#set_size_in_keys sim_num_insn sim_num_refs sim_elapsed_time sim_inst_rate sim_num_branches sim_IPB bpred_bimod.lookups bpred_bimod.updates bpred_bimod.addr_hits bpred_bimod.dir_hits bpred_bimod.misses bpred_bimod.jr_hits bpred_bimod.jr_seen bpred_bimod.jr_non_ras_hits.PP bpred_bimod.jr_non_ras_seen.PP bpred_bimod.bpred_addr_rate bpred_bimod.bpred_dir_rate bpred_bimod.bpred_jr_rate bpred_bimod.bpred_jr_non_ras_rate.PP bpred_bimod.retstack_pushes bpred_bimod.retstack_pops bpred_bimod.used_ras.PP bpred_bimod.ras_hits.PP bpred_bimod.ras_rate.PP
4096 16372.6374511719 6138.19262695312 0.001953125 8382790.3750 2557.34838867188 6.4022 2557.34838867188 2557.34838867188 1973.0517578125 1973.07348632812 584.27490234375 0.013427734375 0.013671875 0 0 0.7715 0.7715 0.9821 <error: 0.01416015625 0.013671875 0.013671875 0.013427734375 0.9821 
8192 32732.4477539062 12269.1231689453 0.0040283203125 8125582.1818 5115.63366699219 6.3985 5115.63366699219 5115.63366699219 3962.39868164062 3962.40942382812 1153.22424316406 0.0067138671875 0.0068359375 0 0 0.7746 0.7746 0.9821 <error: 0.007080078125 0.0068359375 0.0068359375 0.0067138671875 0.9821 
16384 65626.8999633789 24642.4032592773 0.0079345703125 8271008.6846 10235.0623168945 6.4120 10235.0623168945 10235.0623168945 7918.13555908203 7918.14099121094 2316.92132568359 0.00335693359375 0.00341796875 0 0 0.7736 0.7736 0.9821 <error: 0.0035400390625 0.00341796875 0.00341796875 0.00335693359375 0.9821 
32768 130979.160522461 49097.2925109863 0.015838623046875 8269605.2640 20474.2979125977 6.3972 20474.2979125977 20474.2979125977 15782.8643798828 15782.8670654297 4691.43084716797 0.001678466796875 0.001708984375 0 0 0.7709 0.7709 0.9821 <error: 0.00177001953125 0.001708984375 0.001708984375 0.001678466796875 0.9821 
65536 262014.3671875 98226.1807403564 0.0284576416015625 9207170.8139 40953.5221710205 6.3978 40953.5221710205 40953.5221710205 31595.2837524414 31595.2850952148 9358.23707580566 0.0008392333984375 0.0008544921875 0 0 0.7715 0.7715 0.9821 <error: 0.000885009765625 0.0008544921875 0.0008544921875 0.0008392333984375 0.9821 
