#set_size_in_keys sim_num_insn sim_num_refs sim_elapsed_time sim_inst_rate il1.accesses il1.hits il1.misses il1.replacements il1.writebacks il1.invalidations il1.miss_rate il1.repl_rate il1.wb_rate il1.inv_rate dl1.accesses dl1.hits dl1.misses dl1.replacements dl1.writebacks dl1.invalidations dl1.miss_rate dl1.repl_rate dl1.wb_rate dl1.inv_rate dl2.accesses dl2.hits dl2.misses dl2.replacements dl2.writebacks dl2.invalidations dl2.miss_rate dl2.repl_rate dl2.wb_rate dl2.inv_rate itlb.accesses itlb.hits itlb.misses itlb.replacements itlb.writebacks itlb.invalidations itlb.miss_rate itlb.repl_rate itlb.wb_rate itlb.inv_rate dtlb.accesses dtlb.hits dtlb.misses dtlb.replacements dtlb.writebacks dtlb.invalidations dtlb.miss_rate dtlb.repl_rate dtlb.wb_rate dtlb.inv_rate ld_text_base ld_text_size ld_data_base ld_data_size ld_stack_base ld_stack_size ld_prog_entry ld_environ_base ld_target_big_endian mem.page_count mem.page_mem mem.ptab_misses mem.ptab_accesses mem.ptab_miss_rate
4096 7205.45092773438 3084.6142578125 0.0078125 922297.7188 7205.45092773438 7205.369140625 0.081787109375 0.019287109375 0 0 0.0000 0.0000 0.0000 0.0000 3088.6337890625 3035.56811523438 53.065673828125 53.003173828125 52.85595703125 0 0.0172 0.0172 0.0171 0.0000 106.00341796875 105.6962890625 0.30712890625 0 0 0 0.0029 0.0000 0.0000 0.0000 7205.45092773438 7205.44848632812 0.00244140625 0 0 0 0.0000 0.0000 0.0000 0.0000 3088.6337890625 3088.63110351562 0.002685546875 0 0 0 0.0000 0.0000 0.0000 0.0000 0x00400000 18.12109375 0x10000000 2.0126953125 0x7fffc000 4 0x00400140 0x7fff8000 0 0.00732421875 120k 0.00732421875 35111.4624023438 0.0000 
8192 14338.3250732422 6141.43884277344 0.011474609375 1249569.7766 14338.3250732422 14338.2840576172 0.041015625 0.009765625 0 0 0.0000 0.0000 0.0000 0.0000 6145.44860839844 5948.96826171875 196.480346679688 196.449096679688 196.271240234375 0 0.0320 0.0320 0.0319 0.0000 392.792602539062 392.576416015625 0.2161865234375 0 0 0 0.0006 0.0000 0.0000 0.0000 14338.3250732422 14338.3238525391 0.001220703125 0 0 0 0.0000 0.0000 0.0000 0.0000 6145.44860839844 6145.44677734375 0.0018310546875 0 0 0 0.0000 0.0000 0.0000 0.0000 0x00400000 9.064453125 0x10000000 1.00634765625 0x7fffc000 2 0x00400140 0x7fff8000 0 0.004150390625 136k 0.004150390625 69700.4165039062 0.0000 
16384 28976.9945678711 12415.0938110352 0.02032470703125 1425702.9399 28976.9945678711 28976.9745483398 0.02001953125 0.00439453125 0 0 0.0000 0.0000 0.0000 0.0000 12419.0986938477 11941.5936889648 477.505004882812 477.489379882812 477.285949707031 0 0.0384 0.0384 0.0384 0.0000 954.810974121094 954.640991210938 0.16998291015625 0 0 0 0.0002 0.0000 0.0000 0.0000 28976.9945678711 28976.9939575195 0.0006103515625 0 0 0 0.0000 0.0000 0.0000 0.0000 12419.0986938477 12419.0972900391 0.00140380859375 0 0 0 0.0000 0.0000 0.0000 0.0000 0x00400000 4.533203125 0x10000000 0.503173828125 0x7fffc000 1 0x00400140 0x7fff8000 0 0.0025634765625 168k 0.0025634765625 140774.291015625 0.0000 
32768 57229.884979248 24523.4451904297 0.038177490234375 1499047.8585 57229.884979248 57229.8746948242 0.010284423828125 0.002471923828125 0 0 0.0000 0.0000 0.0000 0.0000 24527.4476318359 23530.4594421387 996.988189697266 996.980377197266 996.760620117188 0 0.0406 0.0406 0.0406 0.0000 1993.75909423828 1993.61126708984 0.1478271484375 0 0 0 0.0001 0.0000 0.0000 0.0000 57229.884979248 57229.8846740723 0.00030517578125 0 0 0 0.0000 0.0000 0.0000 0.0000 24527.4476318359 24527.4464416504 0.001190185546875 0 0 0 0.0000 0.0000 0.0000 0.0000 0x00400000 2.26708984375 0x10000000 0.2515869140625 0x7fffc000 0.5 0x00400140 0x7fff8000 0 0.00177001953125 232k 0.00177001953125 277988.495788574 0.0000 
65536 114497.650466919 49066.758102417 0.0326080322265625 3511332.7192 114497.650466919 114497.645355225 0.0051116943359375 0.0012054443359375 0 0 0.0000 0.0000 0.0000 0.0000 49070.7593231201 47041.0838317871 2029.67549133301 2029.67158508301 2029.43998718262 0 0.0414 0.0414 0.0414 0.0000 4059.12059020996 4058.98419189453 0.136398315429688 0 0 0 0.0000 0.0000 0.0000 0.0000 114497.650466919 114497.650314331 0.000152587890625 0 0 0 0.0000 0.0000 0.0000 0.0000 49070.7593231201 49070.7582397461 0.0010833740234375 0 0 0 0.0000 0.0000 0.0000 0.0000 0x00400000 1.133544921875 0x10000000 0.12579345703125 0x7fffc000 0.25 0x00400140 0x7fff8000 0 0.001373291015625 360k 0.001373291015625 556139.150848389 0.0000 
