#set_size_in_keys sim_num_insn sim_num_refs sim_elapsed_time sim_inst_rate sim_num_branches sim_IPB bpred_2lev.lookups bpred_2lev.updates bpred_2lev.addr_hits bpred_2lev.dir_hits bpred_2lev.misses bpred_2lev.jr_hits bpred_2lev.jr_seen bpred_2lev.jr_non_ras_hits.PP bpred_2lev.jr_non_ras_seen.PP bpred_2lev.bpred_addr_rate bpred_2lev.bpred_dir_rate bpred_2lev.bpred_jr_rate bpred_2lev.bpred_jr_non_ras_rate.PP bpred_2lev.retstack_pushes bpred_2lev.retstack_pops bpred_2lev.used_ras.PP bpred_2lev.ras_hits.PP bpred_2lev.ras_rate.PP
4096 7205.45092773438 3084.6142578125 0.002685546875 2683047.9091 1029.17211914062 7.0012 1029.17211914062 1029.17211914062 1028.0966796875 1028.12036132812 1.0517578125 0.013427734375 0.013671875 0 0 0.9990 0.9990 0.9821 <error: 0.01416015625 0.013671875 0.013671875 0.013427734375 0.9821 
8192 14338.3250732422 6141.43884277344 0.0057373046875 2499139.5532 2048.17163085938 7.0005 2048.17163085938 2048.17163085938 2047.13244628906 2047.14465332031 1.0269775390625 0.0067138671875 0.0068359375 0 0 0.9995 0.9995 0.9821 <error: 0.007080078125 0.0068359375 0.0068359375 0.0067138671875 0.9821 
16384 28976.9945678711 12415.0938110352 0.01043701171875 2776368.8830 4139.4189453125 7.0003 4139.4189453125 4139.4189453125 4138.39947509766 4138.40551757812 1.013427734375 0.00335693359375 0.00341796875 0 0 0.9998 0.9998 0.9821 <error: 0.0035400390625 0.00341796875 0.00341796875 0.00335693359375 0.9821 
32768 57229.884979248 24523.4451904297 0.014678955078125 3898771.0416 8175.55056762695 7.0001 8175.55056762695 8175.55056762695 8174.54077148438 8174.54373168945 1.0068359375 0.001678466796875 0.001708984375 0 0 0.9999 0.9999 0.9821 <error: 0.00177001953125 0.001708984375 0.001708984375 0.001678466796875 0.9821 
65536 114497.650466919 49066.758102417 0.012847900390625 8911779.1223 16356.6620941162 7.0001 16356.6620941162 16356.6620941162 16355.6572265625 16355.6586914062 1.00340270996094 0.0008392333984375 0.0008544921875 0 0 0.9999 0.9999 0.9821 <error: 0.000885009765625 0.0008544921875 0.0008544921875 0.0008392333984375 0.9821 
