#set_size_in_keys sim_num_insn sim_num_refs sim_elapsed_time sim_inst_rate il1.accesses il1.hits il1.misses il1.replacements il1.writebacks il1.invalidations il1.miss_rate il1.repl_rate il1.wb_rate il1.inv_rate dl1.accesses dl1.hits dl1.misses dl1.replacements dl1.writebacks dl1.invalidations dl1.miss_rate dl1.repl_rate dl1.wb_rate dl1.inv_rate dl2.accesses dl2.hits dl2.misses dl2.replacements dl2.writebacks dl2.invalidations dl2.miss_rate dl2.repl_rate dl2.wb_rate dl2.inv_rate itlb.accesses itlb.hits itlb.misses itlb.replacements itlb.writebacks itlb.invalidations itlb.miss_rate itlb.repl_rate itlb.wb_rate itlb.inv_rate dtlb.accesses dtlb.hits dtlb.misses dtlb.replacements dtlb.writebacks dtlb.invalidations dtlb.miss_rate dtlb.repl_rate dtlb.wb_rate dtlb.inv_rate ld_text_base ld_text_size ld_data_base ld_data_size ld_stack_base ld_stack_size ld_prog_entry ld_environ_base ld_target_big_endian mem.page_count mem.page_mem mem.ptab_misses mem.ptab_accesses mem.ptab_miss_rate
4096 221.5302734375 48.34619140625 0.000244140625 907388.0000 221.5302734375 221.41455078125 0.11572265625 0.055908203125 0 0 0.0005 0.0003 0.0000 0.0000 52.36572265625 51.128173828125 1.237548828125 1.175048828125 1.019287109375 0 0.0236 0.0224 0.0195 0.0000 2.37255859375 2.042724609375 0.329833984375 0.014892578125 0.001220703125 0 0.1390 0.0063 0.0005 0.0000 221.5302734375 221.52734375 0.0029296875 0 0 0 0.0000 0.0000 0.0000 0.0000 52.36572265625 52.363037109375 0.002685546875 0 0 0 0.0001 0.0000 0.0000 0.0000 0x00400000 18.82421875 0x10000000 2.0126953125 0x7fffc000 4 0x00400140 0x7fff8000 0 0.00732421875 120k 0.00732421875 1107.46240234375 0.0000 
8192 240.509887695312 51.941650390625 0.0001220703125 1970257.0000 240.509887695312 240.451904296875 0.0579833984375 0.028076171875 0 0 0.0002 0.0001 0.0000 0.0000 55.951416015625 53.3157958984375 2.6356201171875 2.6043701171875 2.213623046875 0 0.0471 0.0465 0.0396 0.0000 4.9072265625 4.679931640625 0.227294921875 0.00732421875 0.0006103515625 0 0.0463 0.0015 0.0001 0.0000 240.509887695312 240.508422851562 0.00146484375 0 0 0 0.0000 0.0000 0.0000 0.0000 55.951416015625 55.9495849609375 0.0018310546875 0 0 0 0.0000 0.0000 0.0000 0.0000 0x00400000 9.416015625 0x10000000 1.00634765625 0x7fffc000 2 0x00400140 0x7fff8000 0 0.004150390625 136k 0.004150390625 1132.27075195312 0.0000 
16384 259.418701171875 55.6841430664062 6.103515625e-05 4250316.0000 259.418701171875 259.390380859375 0.0283203125 0.0135498046875 0 0 0.0001 0.0001 0.0000 0.0000 59.6890258789062 55.508056640625 4.18096923828125 4.16534423828125 3.4842529296875 0 0.0700 0.0698 0.0584 0.0000 7.69354248046875 7.517822265625 0.17572021484375 0.0037841796875 0.0003662109375 0 0.0228 0.0005 0.0000 0.0000 259.418701171875 259.41796875 0.000732421875 0 0 0 0.0000 0.0000 0.0000 0.0000 59.6890258789062 59.6876220703125 0.00140380859375 0 0 0 0.0000 0.0000 0.0000 0.0000 0x00400000 4.708984375 0x10000000 0.503173828125 0x7fffc000 1 0x00400140 0x7fff8000 0 0.0025634765625 168k 0.0025634765625 1186.22290039062 0.0000 
32768 278.796264648438 59.5835266113281 6.103515625e-05 4567798.0000 278.796264648438 278.781707763672 0.014556884765625 0.007110595703125 0 0 0.0001 0.0000 0.0000 0.0000 63.5859680175781 57.8070678710938 5.77890014648438 5.77108764648438 4.7845458984375 0 0.0909 0.0908 0.0752 0.0000 10.5780029296875 10.4273986816406 0.150604248046875 0.0018310546875 0.000213623046875 0 0.0142 0.0002 0.0000 0.0000 278.796264648438 278.7958984375 0.0003662109375 0 0 0 0.0000 0.0000 0.0000 0.0000 63.5859680175781 63.5847778320312 0.001190185546875 0 0 0 0.0000 0.0000 0.0000 0.0000 0x00400000 2.35498046875 0x10000000 0.2515869140625 0x7fffc000 0.5 0x00400140 0x7fff8000 0 0.00177001953125 232k 0.00177001953125 1256.94494628906 0.0000 
65536 298.232284545898 63.5330505371094 9.1552734375e-05 3257491.8333 298.232284545898 298.225021362305 0.00726318359375 0.0035400390625 0 0 0.0000 0.0000 0.0000 0.0000 67.5342712402344 60.1473236083984 7.38694763183594 7.38304138183594 6.08851623535156 0 0.1094 0.1093 0.0902 0.0000 13.4827270507812 13.3449401855469 0.137786865234375 0.00091552734375 0.0001068115234375 0 0.0102 0.0001 0.0000 0.0000 298.232284545898 298.23210144043 0.00018310546875 0 0 0 0.0000 0.0000 0.0000 0.0000 67.5342712402344 67.5331878662109 0.0010833740234375 0 0 0 0.0000 0.0000 0.0000 0.0000 0x00400000 1.177490234375 0x10000000 0.12579345703125 0x7fffc000 0.25 0x00400140 0x7fff8000 0 0.001373291015625 360k 0.001373291015625 1335.29165649414 0.0000 
131072 317.671813964844 67.5033798217773 9.1552734375e-05 3469823.3333 317.671813964844 317.668182373047 0.003631591796875 0.00177764892578125 0 0 0.0000 0.0000 0.0000 0.0000 71.5039901733398 62.5241928100586 8.97979736328125 8.97784423828125 7.36609649658203 0 0.1256 0.1256 0.1030 0.0000 16.3495254516602 16.2181396484375 0.131385803222656 0.0004425048828125 4.57763671875e-05 0 0.0080 0.0000 0.0000 0.0000 317.671813964844 317.671722412109 9.1552734375e-05 0 0 0 0.0000 0.0000 0.0000 0.0000 71.5039901733398 71.5027008056641 0.00128936767578125 0.00031280517578125 0.00026702880859375 0 0.0000 0.0000 0.0000 0.0000 0x00400000 0.5887451171875 0x10000000 0.062896728515625 0x7fffc000 0.125 0x00400140 0x7fff8000 0 0.0011749267578125 616k 0.0011749267578125 1417.34222412109 0.0000 
262144 337.153121948242 71.4904403686523 0.000102996826171875 3273432.1481 337.153121948242 337.151306152344 0.0018157958984375 0.000888824462890625 0 0 0.0000 0.0000 0.0000 0.0000 75.4907455444336 64.9546546936035 10.5360908508301 10.5351142883301 8.61419677734375 0 0.1396 0.1396 0.1141 0.0000 19.1521034240723 19.0239105224609 0.128192901611328 0.00022125244140625 2.288818359375e-05 0 0.0067 0.0000 0.0000 0.0000 337.153121948242 337.153076171875 4.57763671875e-05 0 0 0 0.0000 0.0000 0.0000 0.0000 75.4907455444336 75.0822486877441 0.408496856689453 0.408008575439453 0.382503509521484 0 0.0054 0.0054 0.0051 0.0000 0x00400000 0.29437255859375 0x10000000 0.0314483642578125 0x7fffc000 0.0625 0x00400140 0x7fff8000 0 0.00107574462890625 1128k 0.00107574462890625 1501.41747283936 0.0000 
524288 356.642242431641 75.4841709136963 0.000102996826171875 3462652.7407 356.642242431641 356.64133644104 0.000905990600585938 0.0004425048828125 0 0 0.0000 0.0000 0.0000 0.0000 79.4843235015869 67.429349899292 12.0549736022949 12.0544853210449 9.82707595825195 0 0.1517 0.1517 0.1236 0.0000 21.8829555511475 21.7560863494873 0.126869201660156 0.00186920166015625 0.00143623352050781 0 0.0058 0.0001 0.0001 0.0000 356.642242431641 356.642219543457 2.288818359375e-05 0 0 0 0.0000 0.0000 0.0000 0.0000 79.4843235015869 78.1483325958252 1.33599090576172 1.33574676513672 1.26587295532227 0 0.0168 0.0168 0.0159 0.0000 0x00400000 0.147186279296875 0x10000000 0.0157241821289062 0x7fffc000 0.03125 0x00400140 0x7fff8000 0 0.00102615356445312 2152k 0.00102615356445312 1586.4493637085 0.0000 
1048576 376.12487411499 79.4787740707397 0.000115394592285156 3259467.0744 376.12487411499 376.12442111969 0.000452995300292969 0.00022125244140625 0 0 0.0000 0.0000 0.0000 0.0000 83.4788503646851 69.9221134185791 13.556736946106 13.556492805481 11.0253782272339 0 0.1624 0.1624 0.1321 0.0000 24.5825681686401 23.5146312713623 1.06793689727783 1.00543689727783 0.86422061920166 0 0.0434 0.0409 0.0352 0.0000 376.12487411499 376.124862670898 1.1444091796875e-05 0 0 0 0.0000 0.0000 0.0000 0.0000 83.4788503646851 80.9975919723511 2.48125839233398 2.48113632202148 2.3755989074707 0 0.0297 0.0297 0.0285 0.0000 0x00400000 0.0735931396484375 0x10000000 0.00786209106445312 0x7fffc000 0.015625 0x00400140 0x7fff8000 0 0.00100135803222656 4200k 0.00100135803222656 1671.91307067871 0.0000 
2097152 395.63115978241 83.4785284996033 0.000120162963867188 3292455.0714 395.63115978241 395.63093328476 0.000226497650146484 0.000110626220703125 0 0 0.0000 0.0000 0.0000 0.0000 87.4785666465759 72.4511246681213 15.0274419784546 15.0273199081421 12.1985039710999 0 0.1718 0.1718 0.1394 0.0000 27.2261724472046 24.7558717727661 2.47030067443848 2.43905067443848 2.07402038574219 0 0.0907 0.0896 0.0762 0.0000 395.63115978241 395.631154060364 5.7220458984375e-06 0 0 0 0.0000 0.0000 0.0000 0.0000 87.4785666465759 83.7759599685669 3.70260667800903 3.70254564285278 3.57342958450317 0 0.0423 0.0423 0.0408 0.0000 0x00400000 0.0367965698242188 0x10000000 0.00393104553222656 0x7fffc000 0.0078125 0x00400140 0x7fff8000 0 0.000988960266113281 8296k 0.000988960266113281 1757.70970916748 0.0000 
4194304 415.137232542038 87.4792141914368 0.000128269195556641 3236453.0762 415.137232542038 415.137119293213 0.000113248825073242 5.53131103515625e-05 0 0 0.0000 0.0000 0.0000 0.0000 91.4792332649231 74.9986629486084 16.4805703163147 16.4805092811584 13.3570396900177 0 0.1802 0.1802 0.1460 0.0000 29.8377232551575 25.8231656551361 4.01455760002136 3.99893260002136 3.36288118362427 0 0.1345 0.1340 0.1127 0.0000 415.137232542038 415.137229681015 2.86102294921875e-06 0 0 0 0.0000 0.0000 0.0000 0.0000 91.4792332649231 86.5410079956055 4.93822526931763 4.9381947517395 4.79396319389343 0 0.0540 0.0540 0.0524 0.0000 0x00400000 0.0183982849121094 0x10000000 0.00196552276611328 0x7fffc000 0.00390625 0x00400140 0x7fff8000 0 0.000982761383056641 16488k 0.000982761383056641 1843.62136507034 0.0000 
