#set_size_in_keys sim_num_insn sim_num_refs sim_elapsed_time sim_inst_rate il1.accesses il1.hits il1.misses il1.replacements il1.writebacks il1.invalidations il1.miss_rate il1.repl_rate il1.wb_rate il1.inv_rate dl1.accesses dl1.hits dl1.misses dl1.replacements dl1.writebacks dl1.invalidations dl1.miss_rate dl1.repl_rate dl1.wb_rate dl1.inv_rate dl2.accesses dl2.hits dl2.misses dl2.replacements dl2.writebacks dl2.invalidations dl2.miss_rate dl2.repl_rate dl2.wb_rate dl2.inv_rate itlb.accesses itlb.hits itlb.misses itlb.replacements itlb.writebacks itlb.invalidations itlb.miss_rate itlb.repl_rate itlb.wb_rate itlb.inv_rate dtlb.accesses dtlb.hits dtlb.misses dtlb.replacements dtlb.writebacks dtlb.invalidations dtlb.miss_rate dtlb.repl_rate dtlb.wb_rate dtlb.inv_rate ld_text_base ld_text_size ld_data_base ld_data_size ld_stack_base ld_stack_size ld_prog_entry ld_environ_base ld_target_big_endian mem.page_count mem.page_mem mem.ptab_misses mem.ptab_accesses mem.ptab_miss_rate
4096 114.7080078125 30.536376953125 0.000244140625 469844.0000 114.7080078125 114.590087890625 0.117919921875 0.061767578125 0 0 0.0010 0.0005 0.0000 0.0000 34.555908203125 33.86767578125 0.688232421875 0.625732421875 0.590087890625 0 0.0199 0.0181 0.0171 0.0000 1.396240234375 1.062744140625 0.33349609375 0.015625 0.007568359375 0 0.2389 0.0112 0.0054 0.0000 114.7080078125 114.70556640625 0.00244140625 0 0 0 0.0000 0.0000 0.0000 0.0000 34.555908203125 34.552978515625 0.0029296875 0 0 0 0.0001 0.0000 0.0000 0.0000 0x00400000 18.5390625 0x10000000 2.0166015625 0x7fffc000 4 0x00400140 0x7fff8000 0 0.007568359375 124k 0.007568359375 642.8515625 0.0000 
8192 125.51171875 32.5897216796875 0.0001220703125 1028192.0000 125.51171875 125.45263671875 0.05908203125 0.0308837890625 0 0 0.0005 0.0002 0.0000 0.0000 36.5994873046875 35.8021240234375 0.79736328125 0.76611328125 0.6954345703125 0 0.0218 0.0209 0.0190 0.0000 1.5518798828125 1.3226318359375 0.229248046875 0.0078125 0.00390625 0 0.1477 0.0050 0.0025 0.0000 125.51171875 125.510498046875 0.001220703125 0 0 0 0.0000 0.0000 0.0000 0.0000 36.5994873046875 36.5975341796875 0.001953125 0 0 0 0.0001 0.0000 0.0000 0.0000 0x00400000 9.2734375 0x10000000 1.00830078125 0x7fffc000 2 0x00400140 0x7fff8000 0 0.0042724609375 140k 0.0042724609375 632.72314453125 0.0000 
16384 133.111877441406 34.3187255859375 6.103515625e-05 2180905.0000 133.111877441406 133.08203125 0.02984619140625 0.015869140625 0 0 0.0002 0.0001 0.0000 0.0000 38.3236083984375 37.4517822265625 0.871826171875 0.856201171875 0.8035888671875 0 0.0227 0.0223 0.0210 0.0000 1.70526123046875 1.528564453125 0.17669677734375 0.003662109375 0.001953125 0 0.1036 0.0021 0.0011 0.0000 133.111877441406 133.111267089844 0.0006103515625 0 0 0 0.0000 0.0000 0.0000 0.0000 38.3236083984375 38.3221435546875 0.00146484375 0 0 0 0.0000 0.0000 0.0000 0.0000 0x00400000 4.6376953125 0x10000000 0.504150390625 0x7fffc000 1 0x00400140 0x7fff8000 0 0.00262451171875 172k 0.00262451171875 637.839233398438 0.0000 
32768 143.474914550781 36.4635925292969 3.0517578125e-05 4701386.0000 143.474914550781 143.460205078125 0.01470947265625 0.0076904296875 0 0 0.0001 0.0001 0.0000 0.0000 40.4660339355469 39.4208068847656 1.04522705078125 1.03741455078125 0.95623779296875 0 0.0258 0.0256 0.0236 0.0000 2.01617431640625 1.86538696289062 0.150787353515625 0.001861572265625 0.0009765625 0 0.0748 0.0009 0.0005 0.0000 143.474914550781 143.474609375 0.00030517578125 0 0 0 0.0000 0.0000 0.0000 0.0000 40.4660339355469 40.4648132324219 0.001220703125 0 0 0 0.0000 0.0000 0.0000 0.0000 0x00400000 2.3193359375 0x10000000 0.2520751953125 0x7fffc000 0.5 0x00400140 0x7fff8000 0 0.001800537109375 236k 0.001800537109375 669.206909179688 0.0000 
65536 153.65022277832 38.7734375 4.57763671875e-05 3356540.3333 153.65022277832 153.642868041992 0.007354736328125 0.00384521484375 0 0 0.0000 0.0000 0.0000 0.0000 42.774658203125 41.5691375732422 1.20552062988281 1.20161437988281 1.07060241699219 0 0.0282 0.0281 0.0250 0.0000 2.28347778320312 2.14556884765625 0.137908935546875 0.0009307861328125 0.00048828125 0 0.0604 0.0004 0.0002 0.0000 153.65022277832 153.65007019043 0.000152587890625 0 0 0 0.0000 0.0000 0.0000 0.0000 42.774658203125 42.7735595703125 0.0010986328125 0 0 0 0.0000 0.0000 0.0000 0.0000 0x00400000 1.15966796875 0x10000000 0.12603759765625 0x7fffc000 0.25 0x00400140 0x7fff8000 0 0.0013885498046875 364k 0.0013885498046875 707.337799072266 0.0000 
131072 159.424621582031 40.3572616577148 4.57763671875e-05 3482684.0000 159.424621582031 159.420944213867 0.0036773681640625 0.001922607421875 0 0 0.0000 0.0000 0.0000 0.0000 44.3578720092773 43.0892868041992 1.26858520507812 1.26663208007812 1.18173217773438 0 0.0286 0.0286 0.0266 0.0000 2.45399475097656 2.32254028320312 0.131454467773438 0.00046539306640625 0.000244140625 0 0.0536 0.0002 0.0001 0.0000 159.424621582031 159.424545288086 7.62939453125e-05 0 0 0 0.0000 0.0000 0.0000 0.0000 44.3578720092773 44.3565292358398 0.0013427734375 0.0003662109375 0.0003509521484375 0 0.0000 0.0000 0.0000 0.0000 0x00400000 0.579833984375 0x10000000 0.063018798828125 0x7fffc000 0.125 0x00400140 0x7fff8000 0 0.00118255615234375 620k 0.00118255615234375 730.008026123047 0.0000 
262144 172.781478881836 43.0583076477051 4.9591064453125e-05 3484125.2308 172.781478881836 172.779640197754 0.00183868408203125 0.0009613037109375 0 0 0.0000 0.0000 0.0000 0.0000 47.0586128234863 45.5436553955078 1.51495742797852 1.51398086547852 1.35496139526367 0 0.0322 0.0322 0.0288 0.0000 2.87175750732422 2.7435302734375 0.128227233886719 0.000232696533203125 0.0001220703125 0 0.0447 0.0001 0.0000 0.0000 172.781478881836 172.781440734863 3.814697265625e-05 0 0 0 0.0000 0.0000 0.0000 0.0000 47.0586128234863 47.0544281005859 0.00418472290039062 0.00369644165039062 0.00368881225585938 0 0.0001 0.0001 0.0001 0.0000 0x00400000 0.2899169921875 0x10000000 0.0315093994140625 0x7fffc000 0.0625 0x00400140 0x7fff8000 0 0.00107955932617188 1132k 0.00107955932617188 787.0400390625 0.0000 
524288 180.516159057617 45.0041370391846 5.14984130859375e-05 3505276.1481 180.516159057617 180.515239715576 0.000919342041015625 0.00048065185546875 0 0 0.0000 0.0000 0.0000 0.0000 49.0042896270752 47.3699588775635 1.63433074951172 1.63384246826172 1.47335815429688 0 0.0334 0.0333 0.0301 0.0000 3.10860824584961 2.98051643371582 0.128091812133789 0.00309181213378906 0.00250625610351562 0 0.0412 0.0010 0.0008 0.0000 180.516159057617 180.516139984131 1.9073486328125e-05 0 0 0 0.0000 0.0000 0.0000 0.0000 49.0042896270752 48.9989929199219 0.00529670715332031 0.00505256652832031 0.00504875183105469 0 0.0001 0.0001 0.0001 0.0000 0x00400000 0.14495849609375 0x10000000 0.0157546997070312 0x7fffc000 0.03125 0x00400140 0x7fff8000 0 0.00102806091308594 2156k 0.00102806091308594 820.971664428711 0.0000 
1048576 192.078075408936 47.4461355209351 5.43594360351562e-05 3533481.7544 192.078075408936 192.077615737915 0.000459671020507812 0.000240325927734375 0 0 0.0000 0.0000 0.0000 0.0000 51.4462118148804 49.6141757965088 1.83203601837158 1.83179187774658 1.62932205200195 0 0.0356 0.0356 0.0317 0.0000 3.46181774139404 2.97140502929688 0.490412712097168 0.427912712097168 0.414342880249023 0 0.1417 0.1236 0.1197 0.0000 192.078075408936 192.078065872192 9.5367431640625e-06 0 0 0 0.0000 0.0000 0.0000 0.0000 51.4462118148804 51.4389371871948 0.00727462768554688 0.00715255737304688 0.00715065002441406 0 0.0001 0.0001 0.0001 0.0000 0x00400000 0.072479248046875 0x10000000 0.00787734985351562 0x7fffc000 0.015625 0x00400140 0x7fff8000 0 0.00100231170654297 4204k 0.00100231170654297 871.653949737549 0.0000 
2097152 198.833754062653 49.2029871940613 5.57899475097656e-05 3563970.9829 198.833754062653 198.833524227142 0.000229835510253906 0.000120162963867188 0 0 0.0000 0.0000 0.0000 0.0000 53.2030253410339 51.2736892700195 1.9293360710144 1.9292140007019 1.76008224487305 0 0.0363 0.0363 0.0331 0.0000 3.68964815139771 3.00185203552246 0.687796115875244 0.656546115875244 0.616971492767334 0 0.1864 0.1779 0.1672 0.0000 198.833754062653 198.833749294281 4.76837158203125e-06 0 0 0 0.0000 0.0000 0.0000 0.0000 53.2030253410339 53.1951513290405 0.0078740119934082 0.0078129768371582 0.0078120231628418 0 0.0001 0.0001 0.0001 0.0000 0x00400000 0.0362396240234375 0x10000000 0.00393867492675781 0x7fffc000 0.0078125 0x00400140 0x7fff8000 0 0.000989437103271484 8300k 0.000989437103271484 901.965679168701 0.0000 
4194304 206.432480812073 51.1220631599426 5.79357147216797e-05 3563129.9588 206.432480812073 206.432365894318 0.000114917755126953 6.00814819335938e-05 0 0 0.0000 0.0000 0.0000 0.0000 55.122082233429 53.0795121192932 2.04257011413574 2.04250907897949 1.87699198722839 0 0.0371 0.0371 0.0341 0.0000 3.91967701911926 3.13664865493774 0.783028364181519 0.767403364181519 0.732115030288696 0 0.1998 0.1958 0.1868 0.0000 206.432480812073 206.432478427887 2.38418579101562e-06 0 0 0 0.0000 0.0000 0.0000 0.0000 55.122082233429 55.1133623123169 0.00871992111206055 0.00868940353393555 0.00868892669677734 0 0.0002 0.0002 0.0002 0.0000 0x00400000 0.0181198120117188 0x10000000 0.00196933746337891 0x7fffc000 0.00390625 0x00400140 0x7fff8000 0 0.000982999801635742 16492k 0.000982999801635742 936.08639383316 0.0000 
