#set_size_in_keys sim_num_insn sim_num_refs sim_elapsed_time sim_inst_rate sim_num_branches sim_IPB bpred_bimod.lookups bpred_bimod.updates bpred_bimod.addr_hits bpred_bimod.dir_hits bpred_bimod.misses bpred_bimod.jr_hits bpred_bimod.jr_seen bpred_bimod.jr_non_ras_hits.PP bpred_bimod.jr_non_ras_seen.PP bpred_bimod.bpred_addr_rate bpred_bimod.bpred_dir_rate bpred_bimod.bpred_jr_rate bpred_bimod.bpred_jr_non_ras_rate.PP bpred_bimod.retstack_pushes bpred_bimod.retstack_pops bpred_bimod.used_ras.PP bpred_bimod.ras_hits.PP bpred_bimod.ras_rate.PP
4096 114.7080078125 30.536376953125 0.000244140625 469844.0000 18.73046875 6.1241 18.73046875 18.73046875 13.322265625 13.348876953125 5.381591796875 0.12060546875 0.12060546875 0 0 0.7113 0.7127 1.0000 <error: 0.12109375 0.12060546875 0.12060546875 0.12060546875 1.0000 
8192 125.51171875 32.5897216796875 0.0001220703125 1028192.0000 20.6409912109375 6.0807 20.6409912109375 20.6409912109375 14.87744140625 14.8907470703125 5.750244140625 0.1163330078125 0.1163330078125 0 0 0.7208 0.7214 1.0000 <error: 0.1165771484375 0.1163330078125 0.1163330078125 0.1163330078125 1.0000 
16384 133.111877441406 34.3187255859375 6.103515625e-05 2180905.0000 22.0948486328125 6.0246 22.0948486328125 22.0948486328125 15.9566650390625 15.96337890625 6.1314697265625 0.110595703125 0.110595703125 0 0 0.7222 0.7225 1.0000 <error: 0.1107177734375 0.110595703125 0.110595703125 0.110595703125 1.0000 
32768 143.474914550781 36.4635925292969 3.0517578125e-05 4701386.0000 23.9209594726562 5.9979 23.9209594726562 23.9209594726562 17.4795227050781 17.4828491210938 6.4381103515625 0.110137939453125 0.110137939453125 0 0 0.7307 0.7309 1.0000 <error: 0.110198974609375 0.110137939453125 0.110137939453125 0.110137939453125 1.0000 
65536 153.65022277832 38.7734375 1.52587890625e-05 10069621.0000 25.7666625976562 5.9631 25.7666625976562 25.7666625976562 18.7625274658203 18.7642059326172 7.00245666503906 0.1077880859375 0.1077880859375 0 0 0.7282 0.7282 1.0000 <error: 0.107818603515625 0.1077880859375 0.1077880859375 0.1077880859375 1.0000 
131072 159.424621582031 40.3572616577148 1.52587890625e-05 10448052.0000 26.8034210205078 5.9479 26.8034210205078 26.8034210205078 19.24365234375 19.244499206543 7.55892181396484 0.107414245605469 0.107414245605469 0 0 0.7180 0.7180 1.0000 <error: 0.107429504394531 0.107414245605469 0.107414245605469 0.107414245605469 1.0000 
262144 172.781478881836 43.0583076477051 2.288818359375e-05 7548938.0000 29.1449165344238 5.9284 29.1449165344238 29.1449165344238 21.4377174377441 21.4381370544434 7.70677947998047 0.107521057128906 0.107521057128906 0 0 0.7356 0.7356 1.0000 <error: 0.107528686523438 0.107521057128906 0.107521057128906 0.107521057128906 1.0000 
524288 180.516159057617 45.0041370391846 2.288818359375e-05 7886871.3333 30.5805320739746 5.9030 30.5805320739746 30.5805320739746 22.3034038543701 22.3036155700684 8.27691650390625 0.107288360595703 0.107288360595703 0 0 0.7293 0.7293 1.0000 <error: 0.107292175292969 0.107288360595703 0.107288360595703 0.107288360595703 1.0000 
1048576 192.078075408936 47.4461355209351 2.38418579101562e-05 8056338.4000 32.597996711731 5.8923 32.597996711731 32.597996711731 24.045615196228 24.0457201004028 8.55227661132812 0.107253074645996 0.107253074645996 0 0 0.7376 0.7376 1.0000 <error: 0.107254981994629 0.107253074645996 0.107253074645996 0.107253074645996 1.0000 
2097152 198.833754062653 49.2029871940613 2.52723693847656e-05 7867634.0566 33.846700668335 5.8745 33.846700668335 33.846700668335 24.8264932632446 24.8265452384949 9.02015542984009 0.107028484344482 0.107028484344482 0 0 0.7335 0.7335 1.0000 <error: 0.107029438018799 0.107028484344482 0.107028484344482 0.107028484344482 1.0000 
4194304 206.432480812073 51.1220631599426 2.57492065429688e-05 8017042.4074 35.2453780174255 5.8570 35.2453780174255 35.2453780174255 25.6662340164185 25.6662604808807 9.5791175365448 0.107143878936768 0.107143878936768 0 0 0.7282 0.7282 1.0000 <error: 0.107144355773926 0.107143878936768 0.107143878936768 0.107143878936768 1.0000 
