#set_size_in_keys sim_num_insn sim_num_refs sim_elapsed_time sim_inst_rate sim_num_branches sim_IPB bpred_2lev.lookups bpred_2lev.updates bpred_2lev.addr_hits bpred_2lev.dir_hits bpred_2lev.misses bpred_2lev.jr_hits bpred_2lev.jr_seen bpred_2lev.jr_non_ras_hits.PP bpred_2lev.jr_non_ras_seen.PP bpred_2lev.bpred_addr_rate bpred_2lev.bpred_dir_rate bpred_2lev.bpred_jr_rate bpred_2lev.bpred_jr_non_ras_rate.PP bpred_2lev.retstack_pushes bpred_2lev.retstack_pops bpred_2lev.used_ras.PP bpred_2lev.ras_hits.PP bpred_2lev.ras_rate.PP
4096 114.7080078125 30.536376953125 0.000244140625 469844.0000 18.73046875 6.1241 18.73046875 18.73046875 12.651123046875 12.679443359375 6.051025390625 0.12060546875 0.12060546875 0 0 0.6754 0.6769 1.0000 <error: 0.12109375 0.12060546875 0.12060546875 0.12060546875 1.0000 
8192 125.51171875 32.5897216796875 0.0001220703125 1028192.0000 20.6409912109375 6.0807 20.6409912109375 20.6409912109375 14.1461181640625 14.16064453125 6.4803466796875 0.1163330078125 0.1163330078125 0 0 0.6853 0.6860 1.0000 <error: 0.1165771484375 0.1163330078125 0.1163330078125 0.1163330078125 1.0000 
16384 133.111877441406 34.3187255859375 6.103515625e-05 2180905.0000 22.0948486328125 6.0246 22.0948486328125 22.0948486328125 15.2520751953125 15.2592163085938 6.83563232421875 0.110595703125 0.110595703125 0 0 0.6903 0.6906 1.0000 <error: 0.1107177734375 0.110595703125 0.110595703125 0.110595703125 1.0000 
32768 143.474914550781 36.4635925292969 3.0517578125e-05 4701386.0000 23.9209594726562 5.9979 23.9209594726562 23.9209594726562 16.751220703125 16.7550354003906 7.16592407226562 0.110137939453125 0.110137939453125 0 0 0.7003 0.7004 1.0000 <error: 0.110198974609375 0.110137939453125 0.110137939453125 0.110137939453125 1.0000 
65536 153.65022277832 38.7734375 1.52587890625e-05 10069621.0000 25.7666625976562 5.9631 25.7666625976562 25.7666625976562 18.0186004638672 18.0204315185547 7.74623107910156 0.1077880859375 0.1077880859375 0 0 0.6993 0.6994 1.0000 <error: 0.107818603515625 0.1077880859375 0.1077880859375 0.1077880859375 1.0000 
131072 159.424621582031 40.3572616577148 2.288818359375e-05 6965368.0000 26.8034210205078 5.9479 26.8034210205078 26.8034210205078 18.4845733642578 18.485481262207 8.31793975830078 0.107414245605469 0.107414245605469 0 0 0.6896 0.6897 1.0000 <error: 0.107429504394531 0.107414245605469 0.107414245605469 0.107414245605469 1.0000 
262144 172.781478881836 43.0583076477051 1.9073486328125e-05 9058725.6000 29.1449165344238 5.9284 29.1449165344238 29.1449165344238 20.6042137145996 20.6046600341797 8.54025650024414 0.107521057128906 0.107521057128906 0 0 0.7070 0.7070 1.0000 <error: 0.107528686523438 0.107521057128906 0.107521057128906 0.107521057128906 1.0000 
524288 180.516159057617 45.0041370391846 2.47955322265625e-05 7280188.9231 30.5805320739746 5.9030 30.5805320739746 30.5805320739746 21.4435119628906 21.4437465667725 9.13678550720215 0.107288360595703 0.107288360595703 0 0 0.7012 0.7012 1.0000 <error: 0.107292175292969 0.107288360595703 0.107288360595703 0.107288360595703 1.0000 
1048576 192.078075408936 47.4461355209351 2.38418579101562e-05 8056338.4000 32.597996711731 5.8923 32.597996711731 32.597996711731 23.1449384689331 23.1450462341309 9.4529504776001 0.107253074645996 0.107253074645996 0 0 0.7100 0.7100 1.0000 <error: 0.107254981994629 0.107253074645996 0.107253074645996 0.107253074645996 1.0000 
2097152 198.833754062653 49.2029871940613 2.52723693847656e-05 7867634.0566 33.846700668335 5.8745 33.846700668335 33.846700668335 23.8743448257446 23.8744015693665 9.97229909896851 0.107028484344482 0.107028484344482 0 0 0.7054 0.7054 1.0000 <error: 0.107029438018799 0.107028484344482 0.107028484344482 0.107028484344482 1.0000 
4194304 206.432480812073 51.1220631599426 2.64644622802734e-05 7800365.5856 35.2453780174255 5.8570 35.2453780174255 35.2453780174255 24.675416469574 24.6754450798035 10.5699329376221 0.107143878936768 0.107143878936768 0 0 0.7001 0.7001 1.0000 <error: 0.107144355773926 0.107143878936768 0.107143878936768 0.107143878936768 1.0000 
