Fri Jul 29 18:30:11 2005
Run as: "./do_simple -c random.org8 -o 8 algorithm_s"
-------------------------------------------------------------------------------------------------
sim-cache                                     4096 |         4096 |         4096 |         4096 |         8192 |         8192 |         8192 |         8192 |        16384 |        16384 |        16384 |        16384 |        32768 |        32768 |        32768 |        32768 |        65536 |        65536 |        65536 |        65536 |       131072 |       131072 |       131072 |       131072 |       262144 |       262144 |       262144 |       262144 |       524288 |       524288 |       524288 |       524288 |      1048576 |      1048576 |      1048576 |      1048576 |      2097152 |      2097152 |      2097152 |      2097152 |      4194304 |      4194304 |      4194304 |      4194304 |
-cache:dl1 dl1:256:32:1:l -cache:dl2 dl2:131072:32:1:l -cache:il1 il1:256:32:1:l -cache:il2 dl2
-cache:dl1 dl1:256:32:1:l -cache:dl2 dl2:65536:32:1:l -cache:il1 il1:256:32:1:l -cache:il2 dl2
-cache:dl1 dl1:1:32:256:l -cache:dl2 dl2:1:32:131072:l -cache:il1 il1:1:32:256:l -cache:il2 dl2
-cache:dl1 dl1:1:32:256:l -cache:dl2 dl2:1:32:65536:l -cache:il1 il1:1:32:256:l -cache:il2 dl2
-------------------------------------------------------------------------------------------------
sim_num_insn                                766230 |       766230 |       766230 |       766230 |      1669378 |      1669378 |      1669378 |      1669378 |      3536822 |      3536822 |      3536822 |      3536822 |      7639986 |      7639986 |      7639986 |      7639986 |     16092007 |     16092007 |     16092007 |     16092007 |     34470624 |     34470624 |     34470624 |     34470624 |     72212439 |     72212439 |     72212439 |     72212439 |    153595240 |    153595240 |    153595240 |    153595240 |    320299583 |    320299583 |    320299583 |    320299583 |    677283373 |    677283373 |    677283373 |    677283373 |   1406992547 |   1406992547 |   1406992547 |   1406992547 |
sim_num_refs                                146030 |       146030 |       146030 |       146030 |       329323 |       329323 |       329323 |       329323 |       671233 |       671233 |       671233 |       671233 |      1502478 |      1502478 |      1502478 |      1502478 |      3066666 |      3066666 |      3066666 |      3066666 |      6784745 |      6784745 |      6784745 |      6784745 |     13828121 |     13828121 |     13828121 |     13828121 |     30274484 |     30274484 |     30274484 |     30274484 |     61601893 |     61601893 |     61601893 |     61601893 |    133681328 |    133681328 |    133681328 |    133681328 |    271551735 |    271551735 |    271551735 |    271551735 |
sim_elapsed_time                                 1 |            1 |            9 |            5 |            1 |            1 |           14 |            8 |            1 |            1 |           25 |           13 |            2 |            2 |           46 |           23 |            4 |            4 |           86 |           43 |            9 |            9 |          160 |           74 |           19 |           18 |          277 |          105 |           39 |           39 |          383 |          129 |           82 |           82 |          434 |          179 |          170 |          174 |          534 |          286 |          359 |          359 |          762 |          502 |
sim_inst_rate                          766230.0000 |  766230.0000 |   85136.6667 |  153246.0000 | 1669378.0000 | 1669378.0000 |  119241.2857 |  208672.2500 | 3536822.0000 | 3536822.0000 |  141472.8800 |  272063.2308 | 3819993.0000 | 3819993.0000 |  166086.6522 |  332173.3043 | 4023001.7500 | 4023001.7500 |  187116.3605 |  374232.7209 | 3830069.3333 | 3830069.3333 |  215441.4000 |  465819.2432 | 3800654.6842 | 4011802.1667 |  260694.7256 |  687737.5143 | 3938339.4872 | 3938339.4872 |  401031.9582 | 1190660.7752 | 3906092.4756 | 3906092.4756 |  738017.4724 | 1789383.1453 | 3984019.8412 | 3892433.1782 | 1268320.9232 | 2368123.6818 | 3919199.2953 | 3919199.2953 | 1846446.9121 | 2802773.9980 |
il1.accesses                                766230 |       766230 |       766230 |       766230 |      1669378 |      1669378 |      1669378 |      1669378 |      3536822 |      3536822 |      3536822 |      3536822 |      7639986 |      7639986 |      7639986 |      7639986 |     16092007 |     16092007 |     16092007 |     16092007 |     34470624 |     34470624 |     34470624 |     34470624 |     72212439 |     72212439 |     72212439 |     72212439 |    153595240 |    153595240 |    153595240 |    153595240 |    320299583 |    320299583 |    320299583 |    320299583 |    677283373 |    677283373 |    677283373 |    677283373 |   1406992547 |   1406992547 |   1406992547 |   1406992547 |
il1.hits                                    765823 |       765823 |       765888 |       765888 |      1668914 |      1668914 |      1669023 |      1669023 |      3536388 |      3536388 |      3536485 |      3536485 |      7639519 |      7639519 |      7639629 |      7639629 |     16091563 |     16091563 |     16091673 |     16091673 |     34470158 |     34470158 |     34470267 |     34470267 |     72211996 |     72211996 |     72212105 |     72212105 |    153594774 |    153594774 |    153594883 |    153594883 |    320299116 |    320299116 |    320299193 |    320299193 |    677282899 |    677282899 |    677282979 |    677282979 |   1406992080 |   1406992080 |   1406992157 |   1406992157 |
il1.misses                                     407 |          407 |          342 |          342 |          464 |          464 |          355 |          355 |          434 |          434 |          337 |          337 |          467 |          467 |          357 |          357 |          444 |          444 |          334 |          334 |          466 |          466 |          357 |          357 |          443 |          443 |          334 |          334 |          466 |          466 |          357 |          357 |          467 |          467 |          390 |          390 |          474 |          474 |          394 |          394 |          467 |          467 |          390 |          390 |
il1.replacements                               221 |          221 |           86 |           86 |          263 |          263 |           99 |           99 |          249 |          249 |           81 |           81 |          266 |          266 |          101 |          101 |          262 |          262 |           78 |           78 |          265 |          265 |          101 |          101 |          261 |          261 |           78 |           78 |          265 |          265 |          101 |          101 |          249 |          249 |          134 |          134 |          256 |          256 |          138 |          138 |          249 |          249 |          134 |          134 |
il1.writebacks                                   0 |            0 |            0 |            0 |            0 |            0 |            0 |            0 |            0 |            0 |            0 |            0 |            0 |            0 |            0 |            0 |            0 |            0 |            0 |            0 |            0 |            0 |            0 |            0 |            0 |            0 |            0 |            0 |            0 |            0 |            0 |            0 |            0 |            0 |            0 |            0 |            0 |            0 |            0 |            0 |            0 |            0 |            0 |            0 |
il1.invalidations                                0 |            0 |            0 |            0 |            0 |            0 |            0 |            0 |            0 |            0 |            0 |            0 |            0 |            0 |            0 |            0 |            0 |            0 |            0 |            0 |            0 |            0 |            0 |            0 |            0 |            0 |            0 |            0 |            0 |            0 |            0 |            0 |            0 |            0 |            0 |            0 |            0 |            0 |            0 |            0 |            0 |            0 |            0 |            0 |
il1.miss_rate                               0.0005 |       0.0005 |       0.0004 |       0.0004 |       0.0003 |       0.0003 |       0.0002 |       0.0002 |       0.0001 |       0.0001 |       0.0001 |       0.0001 |       0.0001 |       0.0001 |       0.0000 |       0.0000 |       0.0000 |       0.0000 |       0.0000 |       0.0000 |       0.0000 |       0.0000 |       0.0000 |       0.0000 |       0.0000 |       0.0000 |       0.0000 |       0.0000 |       0.0000 |       0.0000 |       0.0000 |       0.0000 |       0.0000 |       0.0000 |       0.0000 |       0.0000 |       0.0000 |       0.0000 |       0.0000 |       0.0000 |       0.0000 |       0.0000 |       0.0000 |       0.0000 |
il1.repl_rate                               0.0003 |       0.0003 |       0.0001 |       0.0001 |       0.0002 |       0.0002 |       0.0001 |       0.0001 |       0.0001 |       0.0001 |       0.0000 |       0.0000 |       0.0000 |       0.0000 |       0.0000 |       0.0000 |       0.0000 |       0.0000 |       0.0000 |       0.0000 |       0.0000 |       0.0000 |       0.0000 |       0.0000 |       0.0000 |       0.0000 |       0.0000 |       0.0000 |       0.0000 |       0.0000 |       0.0000 |       0.0000 |       0.0000 |       0.0000 |       0.0000 |       0.0000 |       0.0000 |       0.0000 |       0.0000 |       0.0000 |       0.0000 |       0.0000 |       0.0000 |       0.0000 |
il1.wb_rate                                 0.0000 |       0.0000 |       0.0000 |       0.0000 |       0.0000 |       0.0000 |       0.0000 |       0.0000 |       0.0000 |       0.0000 |       0.0000 |       0.0000 |       0.0000 |       0.0000 |       0.0000 |       0.0000 |       0.0000 |       0.0000 |       0.0000 |       0.0000 |       0.0000 |       0.0000 |       0.0000 |       0.0000 |       0.0000 |       0.0000 |       0.0000 |       0.0000 |       0.0000 |       0.0000 |       0.0000 |       0.0000 |       0.0000 |       0.0000 |       0.0000 |       0.0000 |       0.0000 |       0.0000 |       0.0000 |       0.0000 |       0.0000 |       0.0000 |       0.0000 |       0.0000 |
il1.inv_rate                                0.0000 |       0.0000 |       0.0000 |       0.0000 |       0.0000 |       0.0000 |       0.0000 |       0.0000 |       0.0000 |       0.0000 |       0.0000 |       0.0000 |       0.0000 |       0.0000 |       0.0000 |       0.0000 |       0.0000 |       0.0000 |       0.0000 |       0.0000 |       0.0000 |       0.0000 |       0.0000 |       0.0000 |       0.0000 |       0.0000 |       0.0000 |       0.0000 |       0.0000 |       0.0000 |       0.0000 |       0.0000 |       0.0000 |       0.0000 |       0.0000 |       0.0000 |       0.0000 |       0.0000 |       0.0000 |       0.0000 |       0.0000 |       0.0000 |       0.0000 |       0.0000 |
dl1.accesses                                162496 |       162496 |       162496 |       162496 |       362173 |       362173 |       362173 |       362173 |       736851 |       736851 |       736851 |       736851 |      1633632 |      1633632 |      1633632 |      1633632 |      3328892 |      3328892 |      3328892 |      3328892 |      7309115 |      7309115 |      7309115 |      7309115 |     14876779 |     14876779 |     14876779 |     14876779 |     32371718 |     32371718 |     32371718 |     32371718 |     65796279 |     65796279 |     65796279 |     65796279 |    142070018 |    142070018 |    142070018 |    142070018 |    288329033 |    288329033 |    288329033 |    288329033 |
dl1.hits                                    148601 |       148601 |       149234 |       149234 |       330532 |       330532 |       332003 |       332003 |       673759 |       673759 |       676978 |       676978 |      1490667 |      1490667 |      1497957 |      1497957 |      3042123 |      3042123 |      3058010 |      3058010 |      6668236 |      6668236 |      6702271 |      6702271 |     13589129 |     13589129 |     13663560 |     13663560 |     29523431 |     29523431 |     29683593 |     29683593 |     60075108 |     60075108 |     60419340 |     60419340 |    129535878 |    129535878 |    130268413 |    130268413 |    263177130 |    263177130 |    264726685 |    264726685 |
dl1.misses                                   13895 |        13895 |        13262 |        13262 |        31641 |        31641 |        30170 |        30170 |        63092 |        63092 |        59873 |        59873 |       142965 |       142965 |       135675 |       135675 |       286769 |       286769 |       270882 |       270882 |       640879 |       640879 |       606844 |       606844 |      1287650 |      1287650 |      1213219 |      1213219 |      2848287 |      2848287 |      2688125 |      2688125 |      5721171 |      5721171 |      5376939 |      5376939 |     12534140 |     12534140 |     11801605 |     11801605 |     25151903 |     25151903 |     23602348 |     23602348 |
dl1.replacements                             13639 |        13639 |        13006 |        13006 |        31385 |        31385 |        29914 |        29914 |        62836 |        62836 |        59617 |        59617 |       142709 |       142709 |       135419 |       135419 |       286513 |       286513 |       270626 |       270626 |       640623 |       640623 |       606588 |       606588 |      1287394 |      1287394 |      1212963 |      1212963 |      2848031 |      2848031 |      2687869 |      2687869 |      5720915 |      5720915 |      5376683 |      5376683 |     12533884 |     12533884 |     11801349 |     11801349 |     25151647 |     25151647 |     23602092 |     23602092 |
dl1.writebacks                                7261 |         7261 |         6961 |         6961 |        16244 |        16244 |        15674 |        15674 |        32293 |        32293 |        31042 |        31042 |        72695 |        72695 |        69978 |        69978 |       145500 |       145500 |       139650 |       139650 |       324117 |       324117 |       311770 |       311770 |       649994 |       649994 |       623234 |       623234 |      1434102 |      1434102 |      1377242 |      1377242 |      2876078 |      2876078 |      2754950 |      2754950 |      6289351 |      6289351 |      6033886 |      6033886 |     12607952 |     12607952 |     12067462 |     12067462 |
dl1.invalidations                                0 |            0 |            0 |            0 |            0 |            0 |            0 |            0 |            0 |            0 |            0 |            0 |            0 |            0 |            0 |            0 |            0 |            0 |            0 |            0 |            0 |            0 |            0 |            0 |            0 |            0 |            0 |            0 |            0 |            0 |            0 |            0 |            0 |            0 |            0 |            0 |            0 |            0 |            0 |            0 |            0 |            0 |            0 |            0 |
dl1.miss_rate                               0.0855 |       0.0855 |       0.0816 |       0.0816 |       0.0874 |       0.0874 |       0.0833 |       0.0833 |       0.0856 |       0.0856 |       0.0813 |       0.0813 |       0.0875 |       0.0875 |       0.0831 |       0.0831 |       0.0861 |       0.0861 |       0.0814 |       0.0814 |       0.0877 |       0.0877 |       0.0830 |       0.0830 |       0.0866 |       0.0866 |       0.0816 |       0.0816 |       0.0880 |       0.0880 |       0.0830 |       0.0830 |       0.0870 |       0.0870 |       0.0817 |       0.0817 |       0.0882 |       0.0882 |       0.0831 |       0.0831 |       0.0872 |       0.0872 |       0.0819 |       0.0819 |
dl1.repl_rate                               0.0839 |       0.0839 |       0.0800 |       0.0800 |       0.0867 |       0.0867 |       0.0826 |       0.0826 |       0.0853 |       0.0853 |       0.0809 |       0.0809 |       0.0874 |       0.0874 |       0.0829 |       0.0829 |       0.0861 |       0.0861 |       0.0813 |       0.0813 |       0.0876 |       0.0876 |       0.0830 |       0.0830 |       0.0865 |       0.0865 |       0.0815 |       0.0815 |       0.0880 |       0.0880 |       0.0830 |       0.0830 |       0.0869 |       0.0869 |       0.0817 |       0.0817 |       0.0882 |       0.0882 |       0.0831 |       0.0831 |       0.0872 |       0.0872 |       0.0819 |       0.0819 |
dl1.wb_rate                                 0.0447 |       0.0447 |       0.0428 |       0.0428 |       0.0449 |       0.0449 |       0.0433 |       0.0433 |       0.0438 |       0.0438 |       0.0421 |       0.0421 |       0.0445 |       0.0445 |       0.0428 |       0.0428 |       0.0437 |       0.0437 |       0.0420 |       0.0420 |       0.0443 |       0.0443 |       0.0427 |       0.0427 |       0.0437 |       0.0437 |       0.0419 |       0.0419 |       0.0443 |       0.0443 |       0.0425 |       0.0425 |       0.0437 |       0.0437 |       0.0419 |       0.0419 |       0.0443 |       0.0443 |       0.0425 |       0.0425 |       0.0437 |       0.0437 |       0.0419 |       0.0419 |
dl1.inv_rate                                0.0000 |       0.0000 |       0.0000 |       0.0000 |       0.0000 |       0.0000 |       0.0000 |       0.0000 |       0.0000 |       0.0000 |       0.0000 |       0.0000 |       0.0000 |       0.0000 |       0.0000 |       0.0000 |       0.0000 |       0.0000 |       0.0000 |       0.0000 |       0.0000 |       0.0000 |       0.0000 |       0.0000 |       0.0000 |       0.0000 |       0.0000 |       0.0000 |       0.0000 |       0.0000 |       0.0000 |       0.0000 |       0.0000 |       0.0000 |       0.0000 |       0.0000 |       0.0000 |       0.0000 |       0.0000 |       0.0000 |       0.0000 |       0.0000 |       0.0000 |       0.0000 |
dl2.accesses                                 21563 |        21563 |        20565 |        20565 |        48349 |        48349 |        46199 |        46199 |        95819 |        95819 |        91252 |        91252 |       216127 |       216127 |       206010 |       206010 |       432713 |       432713 |       410866 |       410866 |       965462 |       965462 |       918971 |       918971 |      1938087 |      1938087 |      1836787 |      1836787 |      4282855 |      4282855 |      4065724 |      4065724 |      8597716 |      8597716 |      8132279 |      8132279 |     18823965 |     18823965 |     17835885 |     17835885 |     37760322 |     37760322 |     35670200 |     35670200 |
dl2.hits                                     19768 |        19768 |        18788 |        18788 |        45508 |        45508 |        43384 |        43384 |        90944 |        90944 |        86407 |        86407 |       207139 |       207139 |       197049 |       197049 |       415557 |       415557 |       393737 |       393737 |       931898 |       931898 |       885434 |       885434 |      1871778 |      1816724 |      1770506 |      1472266 |      4089820 |      1843576 |      3310333 |      1394251 |      3790702 |      3261247 |      2789208 |      2772763 |      7109389 |      7053744 |      6069255 |      6052871 |     14223760 |     14188868 |     12105175 |     12088791 |
dl2.misses                                    1795 |         1795 |         1777 |         1777 |         2841 |         2841 |         2815 |         2815 |         4875 |         4875 |         4845 |         4845 |         8988 |         8988 |         8961 |         8961 |        17156 |        17156 |        17129 |        17129 |        33564 |        33564 |        33537 |        33537 |        66309 |       121363 |        66281 |       364521 |       193035 |      2439279 |       755391 |      2671473 |      4807014 |      5336469 |      5343071 |      5359516 |     11714576 |     11770221 |     11766630 |     11783014 |     23536562 |     23571454 |     23565025 |     23581409 |
dl2.replacements                               183 |          183 |            0 |            0 |          211 |          211 |            0 |            0 |          230 |          230 |            0 |            0 |          233 |          233 |            0 |            0 |          224 |          224 |            0 |            0 |          233 |          233 |            0 |            0 |          225 |        56950 |            0 |       298985 |        63071 |      2373743 |       624319 |      2605937 |      4675942 |      5270933 |      5211999 |      5293980 |     11583504 |     11704685 |     11635558 |     11717478 |     23405490 |     23505918 |     23433953 |     23515873 |
dl2.writebacks                                 112 |          112 |            0 |            0 |          136 |          136 |            0 |            0 |          151 |          151 |            0 |            0 |          155 |          155 |            0 |            0 |          146 |          146 |            0 |            0 |          155 |          155 |            0 |            0 |          146 |        31331 |            0 |       298443 |        35226 |      1313181 |       623758 |      1343940 |      2709543 |      2711767 |      2688185 |      2720953 |      5902932 |      5968828 |      5965758 |      5998526 |     11977765 |     12022214 |     11996605 |     12029373 |
dl2.invalidations                                0 |            0 |            0 |            0 |            0 |            0 |            0 |            0 |            0 |            0 |            0 |            0 |            0 |            0 |            0 |            0 |            0 |            0 |            0 |            0 |            0 |            0 |            0 |            0 |            0 |            0 |            0 |            0 |            0 |            0 |            0 |            0 |            0 |            0 |            0 |            0 |            0 |            0 |            0 |            0 |            0 |            0 |            0 |            0 |
dl2.miss_rate                               0.0832 |       0.0832 |       0.0864 |       0.0864 |       0.0588 |       0.0588 |       0.0609 |       0.0609 |       0.0509 |       0.0509 |       0.0531 |       0.0531 |       0.0416 |       0.0416 |       0.0435 |       0.0435 |       0.0396 |       0.0396 |       0.0417 |       0.0417 |       0.0348 |       0.0348 |       0.0365 |       0.0365 |       0.0342 |       0.0626 |       0.0361 |       0.1985 |       0.0451 |       0.5695 |       0.1858 |       0.6571 |       0.5591 |       0.6207 |       0.6570 |       0.6590 |       0.6223 |       0.6253 |       0.6597 |       0.6606 |       0.6233 |       0.6242 |       0.6606 |       0.6611 |
dl2.repl_rate                               0.0085 |       0.0085 |       0.0000 |       0.0000 |       0.0044 |       0.0044 |       0.0000 |       0.0000 |       0.0024 |       0.0024 |       0.0000 |       0.0000 |       0.0011 |       0.0011 |       0.0000 |       0.0000 |       0.0005 |       0.0005 |       0.0000 |       0.0000 |       0.0002 |       0.0002 |       0.0000 |       0.0000 |       0.0001 |       0.0294 |       0.0000 |       0.1628 |       0.0147 |       0.5542 |       0.1536 |       0.6410 |       0.5439 |       0.6131 |       0.6409 |       0.6510 |       0.6154 |       0.6218 |       0.6524 |       0.6570 |       0.6198 |       0.6225 |       0.6570 |       0.6593 |
dl2.wb_rate                                 0.0052 |       0.0052 |       0.0000 |       0.0000 |       0.0028 |       0.0028 |       0.0000 |       0.0000 |       0.0016 |       0.0016 |       0.0000 |       0.0000 |       0.0007 |       0.0007 |       0.0000 |       0.0000 |       0.0003 |       0.0003 |       0.0000 |       0.0000 |       0.0002 |       0.0002 |       0.0000 |       0.0000 |       0.0001 |       0.0162 |       0.0000 |       0.1625 |       0.0082 |       0.3066 |       0.1534 |       0.3306 |       0.3151 |       0.3154 |       0.3306 |       0.3346 |       0.3136 |       0.3171 |       0.3345 |       0.3363 |       0.3172 |       0.3184 |       0.3363 |       0.3372 |
dl2.inv_rate                                0.0000 |       0.0000 |       0.0000 |       0.0000 |       0.0000 |       0.0000 |       0.0000 |       0.0000 |       0.0000 |       0.0000 |       0.0000 |       0.0000 |       0.0000 |       0.0000 |       0.0000 |       0.0000 |       0.0000 |       0.0000 |       0.0000 |       0.0000 |       0.0000 |       0.0000 |       0.0000 |       0.0000 |       0.0000 |       0.0000 |       0.0000 |       0.0000 |       0.0000 |       0.0000 |       0.0000 |       0.0000 |       0.0000 |       0.0000 |       0.0000 |       0.0000 |       0.0000 |       0.0000 |       0.0000 |       0.0000 |       0.0000 |       0.0000 |       0.0000 |       0.0000 |
itlb.accesses                               766230 |       766230 |       766230 |       766230 |      1669378 |      1669378 |      1669378 |      1669378 |      3536822 |      3536822 |      3536822 |      3536822 |      7639986 |      7639986 |      7639986 |      7639986 |     16092007 |     16092007 |     16092007 |     16092007 |     34470624 |     34470624 |     34470624 |     34470624 |     72212439 |     72212439 |     72212439 |     72212439 |    153595240 |    153595240 |    153595240 |    153595240 |    320299583 |    320299583 |    320299583 |    320299583 |    677283373 |    677283373 |    677283373 |    677283373 |   1406992547 |   1406992547 |   1406992547 |   1406992547 |
itlb.hits                                   766221 |       766221 |       766221 |       766221 |      1669369 |      1669369 |      1669369 |      1669369 |      3536813 |      3536813 |      3536813 |      3536813 |      7639977 |      7639977 |      7639977 |      7639977 |     16091998 |     16091998 |     16091998 |     16091998 |     34470615 |     34470615 |     34470615 |     34470615 |     72212430 |     72212430 |     72212430 |     72212430 |    153595231 |    153595231 |    153595231 |    153595231 |    320299574 |    320299574 |    320299574 |    320299574 |    677283364 |    677283364 |    677283364 |    677283364 |   1406992538 |   1406992538 |   1406992538 |   1406992538 |
itlb.misses                                      9 |            9 |            9 |            9 |            9 |            9 |            9 |            9 |            9 |            9 |            9 |            9 |            9 |            9 |            9 |            9 |            9 |            9 |            9 |            9 |            9 |            9 |            9 |            9 |            9 |            9 |            9 |            9 |            9 |            9 |            9 |            9 |            9 |            9 |            9 |            9 |            9 |            9 |            9 |            9 |            9 |            9 |            9 |            9 |
itlb.replacements                                0 |            0 |            0 |            0 |            0 |            0 |            0 |            0 |            0 |            0 |            0 |            0 |            0 |            0 |            0 |            0 |            0 |            0 |            0 |            0 |            0 |            0 |            0 |            0 |            0 |            0 |            0 |            0 |            0 |            0 |            0 |            0 |            0 |            0 |            0 |            0 |            0 |            0 |            0 |            0 |            0 |            0 |            0 |            0 |
itlb.writebacks                                  0 |            0 |            0 |            0 |            0 |            0 |            0 |            0 |            0 |            0 |            0 |            0 |            0 |            0 |            0 |            0 |            0 |            0 |            0 |            0 |            0 |            0 |            0 |            0 |            0 |            0 |            0 |            0 |            0 |            0 |            0 |            0 |            0 |            0 |            0 |            0 |            0 |            0 |            0 |            0 |            0 |            0 |            0 |            0 |
itlb.invalidations                               0 |            0 |            0 |            0 |            0 |            0 |            0 |            0 |            0 |            0 |            0 |            0 |            0 |            0 |            0 |            0 |            0 |            0 |            0 |            0 |            0 |            0 |            0 |            0 |            0 |            0 |            0 |            0 |            0 |            0 |            0 |            0 |            0 |            0 |            0 |            0 |            0 |            0 |            0 |            0 |            0 |            0 |            0 |            0 |
itlb.miss_rate                              0.0000 |       0.0000 |       0.0000 |       0.0000 |       0.0000 |       0.0000 |       0.0000 |       0.0000 |       0.0000 |       0.0000 |       0.0000 |       0.0000 |       0.0000 |       0.0000 |       0.0000 |       0.0000 |       0.0000 |       0.0000 |       0.0000 |       0.0000 |       0.0000 |       0.0000 |       0.0000 |       0.0000 |       0.0000 |       0.0000 |       0.0000 |       0.0000 |       0.0000 |       0.0000 |       0.0000 |       0.0000 |       0.0000 |       0.0000 |       0.0000 |       0.0000 |       0.0000 |       0.0000 |       0.0000 |       0.0000 |       0.0000 |       0.0000 |       0.0000 |       0.0000 |
itlb.repl_rate                              0.0000 |       0.0000 |       0.0000 |       0.0000 |       0.0000 |       0.0000 |       0.0000 |       0.0000 |       0.0000 |       0.0000 |       0.0000 |       0.0000 |       0.0000 |       0.0000 |       0.0000 |       0.0000 |       0.0000 |       0.0000 |       0.0000 |       0.0000 |       0.0000 |       0.0000 |       0.0000 |       0.0000 |       0.0000 |       0.0000 |       0.0000 |       0.0000 |       0.0000 |       0.0000 |       0.0000 |       0.0000 |       0.0000 |       0.0000 |       0.0000 |       0.0000 |       0.0000 |       0.0000 |       0.0000 |       0.0000 |       0.0000 |       0.0000 |       0.0000 |       0.0000 |
itlb.wb_rate                                0.0000 |       0.0000 |       0.0000 |       0.0000 |       0.0000 |       0.0000 |       0.0000 |       0.0000 |       0.0000 |       0.0000 |       0.0000 |       0.0000 |       0.0000 |       0.0000 |       0.0000 |       0.0000 |       0.0000 |       0.0000 |       0.0000 |       0.0000 |       0.0000 |       0.0000 |       0.0000 |       0.0000 |       0.0000 |       0.0000 |       0.0000 |       0.0000 |       0.0000 |       0.0000 |       0.0000 |       0.0000 |       0.0000 |       0.0000 |       0.0000 |       0.0000 |       0.0000 |       0.0000 |       0.0000 |       0.0000 |       0.0000 |       0.0000 |       0.0000 |       0.0000 |
itlb.inv_rate                               0.0000 |       0.0000 |       0.0000 |       0.0000 |       0.0000 |       0.0000 |       0.0000 |       0.0000 |       0.0000 |       0.0000 |       0.0000 |       0.0000 |       0.0000 |       0.0000 |       0.0000 |       0.0000 |       0.0000 |       0.0000 |       0.0000 |       0.0000 |       0.0000 |       0.0000 |       0.0000 |       0.0000 |       0.0000 |       0.0000 |       0.0000 |       0.0000 |       0.0000 |       0.0000 |       0.0000 |       0.0000 |       0.0000 |       0.0000 |       0.0000 |       0.0000 |       0.0000 |       0.0000 |       0.0000 |       0.0000 |       0.0000 |       0.0000 |       0.0000 |       0.0000 |
dtlb.accesses                               162496 |       162496 |       162496 |       162496 |       362173 |       362173 |       362173 |       362173 |       736851 |       736851 |       736851 |       736851 |      1633632 |      1633632 |      1633632 |      1633632 |      3328892 |      3328892 |      3328892 |      3328892 |      7309115 |      7309115 |      7309115 |      7309115 |     14876779 |     14876779 |     14876779 |     14876779 |     32371718 |     32371718 |     32371718 |     32371718 |     65796279 |     65796279 |     65796279 |     65796279 |    142070018 |    142070018 |    142070018 |    142070018 |    288329033 |    288329033 |    288329033 |    288329033 |
dtlb.hits                                   162481 |       162481 |       162481 |       162481 |       362150 |       362150 |       362150 |       362150 |       736812 |       736812 |       736812 |       736812 |      1633561 |      1633561 |      1633561 |      1633561 |      3328681 |      3328681 |      3328681 |      3328681 |      7304426 |      7304426 |      7304426 |      7304426 |     14867305 |     14867305 |     14867305 |     14867305 |     32350715 |     32350715 |     32350715 |     32350715 |     65754269 |     65754269 |     65754269 |     65754269 |    141977802 |    141977802 |    141977802 |    141977802 |    288144599 |    288144599 |    288144599 |    288144599 |
dtlb.misses                                     15 |           15 |           15 |           15 |           23 |           23 |           23 |           23 |           39 |           39 |           39 |           39 |           71 |           71 |           71 |           71 |          211 |          211 |          211 |          211 |         4689 |         4689 |         4689 |         4689 |         9474 |         9474 |         9474 |         9474 |        21003 |        21003 |        21003 |        21003 |        42010 |        42010 |        42010 |        42010 |        92216 |        92216 |        92216 |        92216 |       184434 |       184434 |       184434 |       184434 |
dtlb.replacements                                0 |            0 |            0 |            0 |            0 |            0 |            0 |            0 |            0 |            0 |            0 |            0 |            0 |            0 |            0 |            0 |           83 |           83 |           83 |           83 |         4561 |         4561 |         4561 |         4561 |         9346 |         9346 |         9346 |         9346 |        20875 |        20875 |        20875 |        20875 |        41882 |        41882 |        41882 |        41882 |        92088 |        92088 |        92088 |        92088 |       184306 |       184306 |       184306 |       184306 |
dtlb.writebacks                                  0 |            0 |            0 |            0 |            0 |            0 |            0 |            0 |            0 |            0 |            0 |            0 |            0 |            0 |            0 |            0 |           47 |           47 |           47 |           47 |         2389 |         2389 |         2389 |         2389 |         4821 |         4821 |         4821 |         4821 |        10718 |        10718 |        10718 |        10718 |        21483 |        21483 |        21483 |        21483 |        47112 |        47112 |        47112 |        47112 |        94269 |        94269 |        94269 |        94269 |
dtlb.invalidations                               0 |            0 |            0 |            0 |            0 |            0 |            0 |            0 |            0 |            0 |            0 |            0 |            0 |            0 |            0 |            0 |            0 |            0 |            0 |            0 |            0 |            0 |            0 |            0 |            0 |            0 |            0 |            0 |            0 |            0 |            0 |            0 |            0 |            0 |            0 |            0 |            0 |            0 |            0 |            0 |            0 |            0 |            0 |            0 |
dtlb.miss_rate                              0.0001 |       0.0001 |       0.0001 |       0.0001 |       0.0001 |       0.0001 |       0.0001 |       0.0001 |       0.0001 |       0.0001 |       0.0001 |       0.0001 |       0.0000 |       0.0000 |       0.0000 |       0.0000 |       0.0001 |       0.0001 |       0.0001 |       0.0001 |       0.0006 |       0.0006 |       0.0006 |       0.0006 |       0.0006 |       0.0006 |       0.0006 |       0.0006 |       0.0006 |       0.0006 |       0.0006 |       0.0006 |       0.0006 |       0.0006 |       0.0006 |       0.0006 |       0.0006 |       0.0006 |       0.0006 |       0.0006 |       0.0006 |       0.0006 |       0.0006 |       0.0006 |
dtlb.repl_rate                              0.0000 |       0.0000 |       0.0000 |       0.0000 |       0.0000 |       0.0000 |       0.0000 |       0.0000 |       0.0000 |       0.0000 |       0.0000 |       0.0000 |       0.0000 |       0.0000 |       0.0000 |       0.0000 |       0.0000 |       0.0000 |       0.0000 |       0.0000 |       0.0006 |       0.0006 |       0.0006 |       0.0006 |       0.0006 |       0.0006 |       0.0006 |       0.0006 |       0.0006 |       0.0006 |       0.0006 |       0.0006 |       0.0006 |       0.0006 |       0.0006 |       0.0006 |       0.0006 |       0.0006 |       0.0006 |       0.0006 |       0.0006 |       0.0006 |       0.0006 |       0.0006 |
dtlb.wb_rate                                0.0000 |       0.0000 |       0.0000 |       0.0000 |       0.0000 |       0.0000 |       0.0000 |       0.0000 |       0.0000 |       0.0000 |       0.0000 |       0.0000 |       0.0000 |       0.0000 |       0.0000 |       0.0000 |       0.0000 |       0.0000 |       0.0000 |       0.0000 |       0.0003 |       0.0003 |       0.0003 |       0.0003 |       0.0003 |       0.0003 |       0.0003 |       0.0003 |       0.0003 |       0.0003 |       0.0003 |       0.0003 |       0.0003 |       0.0003 |       0.0003 |       0.0003 |       0.0003 |       0.0003 |       0.0003 |       0.0003 |       0.0003 |       0.0003 |       0.0003 |       0.0003 |
dtlb.inv_rate                               0.0000 |       0.0000 |       0.0000 |       0.0000 |       0.0000 |       0.0000 |       0.0000 |       0.0000 |       0.0000 |       0.0000 |       0.0000 |       0.0000 |       0.0000 |       0.0000 |       0.0000 |       0.0000 |       0.0000 |       0.0000 |       0.0000 |       0.0000 |       0.0000 |       0.0000 |       0.0000 |       0.0000 |       0.0000 |       0.0000 |       0.0000 |       0.0000 |       0.0000 |       0.0000 |       0.0000 |       0.0000 |       0.0000 |       0.0000 |       0.0000 |       0.0000 |       0.0000 |       0.0000 |       0.0000 |       0.0000 |       0.0000 |       0.0000 |       0.0000 |       0.0000 |
ld_text_base                            0x00400000 |   0x00400000 |   0x00400000 |   0x00400000 |   0x00400000 |   0x00400000 |   0x00400000 |   0x00400000 |   0x00400000 |   0x00400000 |   0x00400000 |   0x00400000 |   0x00400000 |   0x00400000 |   0x00400000 |   0x00400000 |   0x00400000 |   0x00400000 |   0x00400000 |   0x00400000 |   0x00400000 |   0x00400000 |   0x00400000 |   0x00400000 |   0x00400000 |   0x00400000 |   0x00400000 |   0x00400000 |   0x00400000 |   0x00400000 |   0x00400000 |   0x00400000 |   0x00400000 |   0x00400000 |   0x00400000 |   0x00400000 |   0x00400000 |   0x00400000 |   0x00400000 |   0x00400000 |   0x00400000 |   0x00400000 |   0x00400000 |   0x00400000 |
ld_text_size                                 71456 |        71456 |        71456 |        71456 |        71488 |        71488 |        71488 |        71488 |        71504 |        71504 |        71504 |        71504 |        71520 |        71520 |        71520 |        71520 |        71520 |        71520 |        71520 |        71520 |        71520 |        71520 |        71520 |        71520 |        71520 |        71520 |        71520 |        71520 |        71520 |        71520 |        71520 |        71520 |        71520 |        71520 |        71520 |        71520 |        71520 |        71520 |        71520 |        71520 |        71520 |        71520 |        71520 |        71520 |
ld_data_base                            0x10000000 |   0x10000000 |   0x10000000 |   0x10000000 |   0x10000000 |   0x10000000 |   0x10000000 |   0x10000000 |   0x10000000 |   0x10000000 |   0x10000000 |   0x10000000 |   0x10000000 |   0x10000000 |   0x10000000 |   0x10000000 |   0x10000000 |   0x10000000 |   0x10000000 |   0x10000000 |   0x10000000 |   0x10000000 |   0x10000000 |   0x10000000 |   0x10000000 |   0x10000000 |   0x10000000 |   0x10000000 |   0x10000000 |   0x10000000 |   0x10000000 |   0x10000000 |   0x10000000 |   0x10000000 |   0x10000000 |   0x10000000 |   0x10000000 |   0x10000000 |   0x10000000 |   0x10000000 |   0x10000000 |   0x10000000 |   0x10000000 |   0x10000000 |
ld_data_size                                  8192 |         8192 |         8192 |         8192 |         8192 |         8192 |         8192 |         8192 |         8192 |         8192 |         8192 |         8192 |         8192 |         8192 |         8192 |         8192 |         8192 |         8192 |         8192 |         8192 |         8192 |         8192 |         8192 |         8192 |         8192 |         8192 |         8192 |         8192 |         8192 |         8192 |         8192 |         8192 |         8192 |         8192 |         8192 |         8192 |         8192 |         8192 |         8192 |         8192 |         8192 |         8192 |         8192 |         8192 |
ld_stack_base                           0x7fffc000 |   0x7fffc000 |   0x7fffc000 |   0x7fffc000 |   0x7fffc000 |   0x7fffc000 |   0x7fffc000 |   0x7fffc000 |   0x7fffc000 |   0x7fffc000 |   0x7fffc000 |   0x7fffc000 |   0x7fffc000 |   0x7fffc000 |   0x7fffc000 |   0x7fffc000 |   0x7fffc000 |   0x7fffc000 |   0x7fffc000 |   0x7fffc000 |   0x7fffc000 |   0x7fffc000 |   0x7fffc000 |   0x7fffc000 |   0x7fffc000 |   0x7fffc000 |   0x7fffc000 |   0x7fffc000 |   0x7fffc000 |   0x7fffc000 |   0x7fffc000 |   0x7fffc000 |   0x7fffc000 |   0x7fffc000 |   0x7fffc000 |   0x7fffc000 |   0x7fffc000 |   0x7fffc000 |   0x7fffc000 |   0x7fffc000 |   0x7fffc000 |   0x7fffc000 |   0x7fffc000 |   0x7fffc000 |
ld_stack_size                                16384 |        16384 |        16384 |        16384 |        16384 |        16384 |        16384 |        16384 |        16384 |        16384 |        16384 |        16384 |        16384 |        16384 |        16384 |        16384 |        16384 |        16384 |        16384 |        16384 |        16384 |        16384 |        16384 |        16384 |        16384 |        16384 |        16384 |        16384 |        16384 |        16384 |        16384 |        16384 |        16384 |        16384 |        16384 |        16384 |        16384 |        16384 |        16384 |        16384 |        16384 |        16384 |        16384 |        16384 |
ld_prog_entry                           0x00400140 |   0x00400140 |   0x00400140 |   0x00400140 |   0x00400140 |   0x00400140 |   0x00400140 |   0x00400140 |   0x00400140 |   0x00400140 |   0x00400140 |   0x00400140 |   0x00400140 |   0x00400140 |   0x00400140 |   0x00400140 |   0x00400140 |   0x00400140 |   0x00400140 |   0x00400140 |   0x00400140 |   0x00400140 |   0x00400140 |   0x00400140 |   0x00400140 |   0x00400140 |   0x00400140 |   0x00400140 |   0x00400140 |   0x00400140 |   0x00400140 |   0x00400140 |   0x00400140 |   0x00400140 |   0x00400140 |   0x00400140 |   0x00400140 |   0x00400140 |   0x00400140 |   0x00400140 |   0x00400140 |   0x00400140 |   0x00400140 |   0x00400140 |
ld_environ_base                         0x7fff8000 |   0x7fff8000 |   0x7fff8000 |   0x7fff8000 |   0x7fff8000 |   0x7fff8000 |   0x7fff8000 |   0x7fff8000 |   0x7fff8000 |   0x7fff8000 |   0x7fff8000 |   0x7fff8000 |   0x7fff8000 |   0x7fff8000 |   0x7fff8000 |   0x7fff8000 |   0x7fff8000 |   0x7fff8000 |   0x7fff8000 |   0x7fff8000 |   0x7fff8000 |   0x7fff8000 |   0x7fff8000 |   0x7fff8000 |   0x7fff8000 |   0x7fff8000 |   0x7fff8000 |   0x7fff8000 |   0x7fff8000 |   0x7fff8000 |   0x7fff8000 |   0x7fff8000 |   0x7fff8000 |   0x7fff8000 |   0x7fff8000 |   0x7fff8000 |   0x7fff8000 |   0x7fff8000 |   0x7fff8000 |   0x7fff8000 |   0x7fff8000 |   0x7fff8000 |   0x7fff8000 |   0x7fff8000 |
ld_target_big_endian                             0 |            0 |            0 |            0 |            0 |            0 |            0 |            0 |            0 |            0 |            0 |            0 |            0 |            0 |            0 |            0 |            0 |            0 |            0 |            0 |            0 |            0 |            0 |            0 |            0 |            0 |            0 |            0 |            0 |            0 |            0 |            0 |            0 |            0 |            0 |            0 |            0 |            0 |            0 |            0 |            0 |            0 |            0 |            0 |
mem.page_count                                  33 |           33 |           33 |           33 |           41 |           41 |           41 |           41 |           57 |           57 |           57 |           57 |           89 |           89 |           89 |           89 |          153 |          153 |          153 |          153 |          281 |          281 |          281 |          281 |          537 |          537 |          537 |          537 |         1049 |         1049 |         1049 |         1049 |         2079 |         2079 |         2079 |         2079 |         4133 |         4133 |         4133 |         4133 |         8241 |         8241 |         8241 |         8241 |
mem.page_mem                                  132k |         132k |         132k |         132k |         164k |         164k |         164k |         164k |         228k |         228k |         228k |         228k |         356k |         356k |         356k |         356k |         612k |         612k |         612k |         612k |        1124k |        1124k |        1124k |        1124k |        2148k |        2148k |        2148k |        2148k |        4196k |        4196k |        4196k |        4196k |        8316k |        8316k |        8316k |        8316k |       16532k |       16532k |       16532k |       16532k |       32964k |       32964k |       32964k |       32964k |
mem.ptab_misses                                 33 |           33 |           33 |           33 |           41 |           41 |           41 |           41 |           57 |           57 |           57 |           57 |           89 |           89 |           89 |           89 |          153 |          153 |          153 |          153 |          281 |          281 |          281 |          281 |          537 |          537 |          537 |          537 |         1049 |         1049 |         1049 |         1049 |        62613 |        62613 |        62613 |        62613 |        68667 |        68667 |        68667 |        68667 |        74881 |        74881 |        74881 |        74881 |
mem.ptab_accesses                          3833220 |      3833220 |      3833220 |      3833220 |      7845358 |      7845358 |      7845358 |      7845358 |     16064586 |     16064586 |     16064586 |     16064586 |     34270900 |     34270900 |     34270900 |     34270900 |     71469504 |     71469504 |     71469504 |     71469504 |    152944418 |    152944418 |    152944418 |    152944418 |    319047006 |    319047006 |    319047006 |    319047006 |    679568088 |    679568088 |    679568088 |    679568088 |   1413234582 |   1413234582 |   1413234582 |   1413234582 |   2993717220 |   2993717220 |   2993717220 |   2993717220 |   6205071946 |   6205071946 |   6205071946 |   6205071946 |
mem.ptab_miss_rate                          0.0000 |       0.0000 |       0.0000 |       0.0000 |       0.0000 |       0.0000 |       0.0000 |       0.0000 |       0.0000 |       0.0000 |       0.0000 |       0.0000 |       0.0000 |       0.0000 |       0.0000 |       0.0000 |       0.0000 |       0.0000 |       0.0000 |       0.0000 |       0.0000 |       0.0000 |       0.0000 |       0.0000 |       0.0000 |       0.0000 |       0.0000 |       0.0000 |       0.0000 |       0.0000 |       0.0000 |       0.0000 |       0.0000 |       0.0000 |       0.0000 |       0.0000 |       0.0000 |       0.0000 |       0.0000 |       0.0000 |       0.0000 |       0.0000 |       0.0000 |       0.0000 |
-------------------------------------------------------------------------------------------------
sim-bpred                                     4096 |         4096 |         4096 |         4096 |         4096 |         4096 |         4096 |         8192 |         8192 |         8192 |         8192 |         8192 |         8192 |         8192 |        16384 |        16384 |        16384 |        16384 |        16384 |        16384 |        16384 |        32768 |        32768 |        32768 |        32768 |        32768 |        32768 |        32768 |        65536 |        65536 |        65536 |        65536 |        65536 |        65536 |        65536 |       131072 |       131072 |       131072 |       131072 |       131072 |       131072 |       131072 |       262144 |       262144 |       262144 |       262144 |       262144 |       262144 |       262144 |       524288 |       524288 |       524288 |       524288 |       524288 |       524288 |       524288 |      1048576 |      1048576 |      1048576 |      1048576 |      1048576 |      1048576 |      1048576 |      2097152 |      2097152 |      2097152 |      2097152 |      2097152 |      2097152 |      2097152 |      4194304 |      4194304 |      4194304 |      4194304 |      4194304 |      4194304 |      4194304 |
-bpred bimod -bpred:bimod 512
-bpred bimod -bpred:bimod 1024
-bpred bimod -bpred:bimod 2048
-bpred 2lev -bpred:2lev 1 512 10 1
-bpred 2lev -bpred:2lev 1 1024 10 1
-bpred 2lev -bpred:2lev 1 2048 10 1
-bpred 2lev -bpred:2lev 1 4096 10 1
-------------------------------------------------------------------------------------------------
sim_num_insn                                766230 |       766230 |       766230 |       766230 |       766230 |       766230 |       766230 |      1669378 |      1669378 |      1669378 |      1669378 |      1669378 |      1669378 |      1669378 |      3536822 |      3536822 |      3536822 |      3536822 |      3536822 |      3536822 |      3536822 |      7639986 |      7639986 |      7639986 |      7639986 |      7639986 |      7639986 |      7639986 |     16092007 |     16092007 |     16092007 |     16092007 |     16092007 |     16092007 |     16092007 |     34470624 |     34470624 |     34470624 |     34470624 |     34470624 |     34470624 |     34470624 |     72212439 |     72212439 |     72212439 |     72212439 |     72212439 |     72212439 |     72212439 |    153595240 |    153595240 |    153595240 |    153595240 |    153595240 |    153595240 |    153595240 |    320299583 |    320299583 |    320299583 |    320299583 |    320299583 |    320299583 |    320299583 |    677283373 |    677283373 |    677283373 |    677283373 |    677283373 |    677283373 |    677283373 |   1406992547 |   1406992547 |   1406992547 |   1406992547 |   1406992547 |   1406992547 |   1406992547 |
sim_num_refs                                146030 |       146030 |       146030 |       146030 |       146030 |       146030 |       146030 |       329323 |       329323 |       329323 |       329323 |       329323 |       329323 |       329323 |       671233 |       671233 |       671233 |       671233 |       671233 |       671233 |       671233 |      1502478 |      1502478 |      1502478 |      1502478 |      1502478 |      1502478 |      1502478 |      3066666 |      3066666 |      3066666 |      3066666 |      3066666 |      3066666 |      3066666 |      6784745 |      6784745 |      6784745 |      6784745 |      6784745 |      6784745 |      6784745 |     13828121 |     13828121 |     13828121 |     13828121 |     13828121 |     13828121 |     13828121 |     30274484 |     30274484 |     30274484 |     30274484 |     30274484 |     30274484 |     30274484 |     61601893 |     61601893 |     61601893 |     61601893 |     61601893 |     61601893 |     61601893 |    133681328 |    133681328 |    133681328 |    133681328 |    133681328 |    133681328 |    133681328 |    271551735 |    271551735 |    271551735 |    271551735 |    271551735 |    271551735 |    271551735 |
sim_elapsed_time                                 1 |            1 |            1 |            1 |            1 |            1 |            1 |            1 |            1 |            1 |            1 |            1 |            1 |            1 |            1 |            1 |            1 |            1 |            1 |            1 |            1 |            1 |            1 |            1 |            1 |            1 |            1 |            1 |            2 |            2 |            2 |            2 |            1 |            1 |            2 |            4 |            4 |            4 |            3 |            4 |            4 |            4 |            8 |            8 |            8 |            8 |            8 |            8 |            8 |           17 |           17 |           17 |           18 |           17 |           17 |           17 |           35 |           36 |           35 |           36 |           35 |           36 |           35 |           75 |           75 |           75 |           76 |           75 |           76 |           76 |          156 |          156 |          155 |          157 |          156 |          157 |          157 |
sim_inst_rate                          766230.0000 |  766230.0000 |  766230.0000 |  766230.0000 |  766230.0000 |  766230.0000 |  766230.0000 | 1669378.0000 | 1669378.0000 | 1669378.0000 | 1669378.0000 | 1669378.0000 | 1669378.0000 | 1669378.0000 | 3536822.0000 | 3536822.0000 | 3536822.0000 | 3536822.0000 | 3536822.0000 | 3536822.0000 | 3536822.0000 | 7639986.0000 | 7639986.0000 | 7639986.0000 | 7639986.0000 | 7639986.0000 | 7639986.0000 | 7639986.0000 | 8046003.5000 | 8046003.5000 | 8046003.5000 | 8046003.5000 |16092007.0000 |16092007.0000 | 8046003.5000 | 8617656.0000 | 8617656.0000 | 8617656.0000 |11490208.0000 | 8617656.0000 | 8617656.0000 | 8617656.0000 | 9026554.8750 | 9026554.8750 | 9026554.8750 | 9026554.8750 | 9026554.8750 | 9026554.8750 | 9026554.8750 | 9035014.1176 | 9035014.1176 | 9035014.1176 | 8533068.8889 | 9035014.1176 | 9035014.1176 | 9035014.1176 | 9151416.6571 | 8897210.6389 | 9151416.6571 | 8897210.6389 | 9151416.6571 | 8897210.6389 | 9151416.6571 | 9030444.9733 | 9030444.9733 | 9030444.9733 | 8911623.3289 | 9030444.9733 | 8911623.3289 | 8911623.3289 | 9019182.9936 | 9019182.9936 | 9077371.2710 | 8961735.9682 | 9019182.9936 | 8961735.9682 | 8961735.9682 |
sim_num_branches                            109361 |       109361 |       109361 |       109361 |       109361 |       109361 |       109361 |       235368 |       235368 |       235368 |       235368 |       235368 |       235368 |       235368 |       500657 |       500657 |       500657 |       500657 |       500657 |       500657 |       500657 |      1069933 |      1069933 |      1069933 |      1069933 |      1069933 |      1069933 |      1069933 |      2261665 |      2261665 |      2261665 |      2261665 |      2261665 |      2261665 |      2261665 |      4801298 |      4801298 |      4801298 |      4801298 |      4801298 |      4801298 |      4801298 |     10093368 |     10093368 |     10093368 |     10093368 |     10093368 |     10093368 |     10093368 |     21299794 |     21299794 |     21299794 |     21299794 |     21299794 |     21299794 |     21299794 |     44566377 |     44566377 |     44566377 |     44566377 |     44566377 |     44566377 |     44566377 |     93587739 |     93587739 |     93587739 |     93587739 |     93587739 |     93587739 |     93587739 |    195039327 |    195039327 |    195039327 |    195039327 |    195039327 |    195039327 |    195039327 |
sim_IPB                                     7.0064 |       7.0064 |       7.0064 |       7.0064 |       7.0064 |       7.0064 |       7.0064 |       7.0926 |       7.0926 |       7.0926 |       7.0926 |       7.0926 |       7.0926 |       7.0926 |       7.0644 |       7.0644 |       7.0644 |       7.0644 |       7.0644 |       7.0644 |       7.0644 |       7.1406 |       7.1406 |       7.1406 |       7.1406 |       7.1406 |       7.1406 |       7.1406 |       7.1151 |       7.1151 |       7.1151 |       7.1151 |       7.1151 |       7.1151 |       7.1151 |       7.1794 |       7.1794 |       7.1794 |       7.1794 |       7.1794 |       7.1794 |       7.1794 |       7.1544 |       7.1544 |       7.1544 |       7.1544 |       7.1544 |       7.1544 |       7.1544 |       7.2111 |       7.2111 |       7.2111 |       7.2111 |       7.2111 |       7.2111 |       7.2111 |       7.1870 |       7.1870 |       7.1870 |       7.1870 |       7.1870 |       7.1870 |       7.1870 |       7.2369 |       7.2369 |       7.2369 |       7.2369 |       7.2369 |       7.2369 |       7.2369 |       7.2139 |       7.2139 |       7.2139 |       7.2139 |       7.2139 |       7.2139 |       7.2139 |
bpred_bimod.lookups                         109361 |       109361 |       109361 |xxxxxxxxxxxxx |xxxxxxxxxxxxx |xxxxxxxxxxxxx |xxxxxxxxxxxxx |       235368 |       235368 |       235368 |xxxxxxxxxxxxx |xxxxxxxxxxxxx |xxxxxxxxxxxxx |xxxxxxxxxxxxx |       500657 |       500657 |       500657 |xxxxxxxxxxxxx |xxxxxxxxxxxxx |xxxxxxxxxxxxx |xxxxxxxxxxxxx |      1069933 |      1069933 |      1069933 |xxxxxxxxxxxxx |xxxxxxxxxxxxx |xxxxxxxxxxxxx |xxxxxxxxxxxxx |      2261665 |      2261665 |      2261665 |xxxxxxxxxxxxx |xxxxxxxxxxxxx |xxxxxxxxxxxxx |xxxxxxxxxxxxx |      4801298 |      4801298 |      4801298 |xxxxxxxxxxxxx |xxxxxxxxxxxxx |xxxxxxxxxxxxx |xxxxxxxxxxxxx |     10093368 |     10093368 |     10093368 |xxxxxxxxxxxxx |xxxxxxxxxxxxx |xxxxxxxxxxxxx |xxxxxxxxxxxxx |     21299794 |     21299794 |     21299794 |xxxxxxxxxxxxx |xxxxxxxxxxxxx |xxxxxxxxxxxxx |xxxxxxxxxxxxx |     44566377 |     44566377 |     44566377 |xxxxxxxxxxxxx |xxxxxxxxxxxxx |xxxxxxxxxxxxx |xxxxxxxxxxxxx |     93587739 |     93587739 |     93587739 |xxxxxxxxxxxxx |xxxxxxxxxxxxx |xxxxxxxxxxxxx |xxxxxxxxxxxxx |    195039327 |    195039327 |    195039327 |
bpred_bimod.updates                         109361 |       109361 |       109361 |xxxxxxxxxxxxx |xxxxxxxxxxxxx |xxxxxxxxxxxxx |xxxxxxxxxxxxx |       235368 |       235368 |       235368 |xxxxxxxxxxxxx |xxxxxxxxxxxxx |xxxxxxxxxxxxx |xxxxxxxxxxxxx |       500657 |       500657 |       500657 |xxxxxxxxxxxxx |xxxxxxxxxxxxx |xxxxxxxxxxxxx |xxxxxxxxxxxxx |      1069933 |      1069933 |      1069933 |xxxxxxxxxxxxx |xxxxxxxxxxxxx |xxxxxxxxxxxxx |xxxxxxxxxxxxx |      2261665 |      2261665 |      2261665 |xxxxxxxxxxxxx |xxxxxxxxxxxxx |xxxxxxxxxxxxx |xxxxxxxxxxxxx |      4801298 |      4801298 |      4801298 |xxxxxxxxxxxxx |xxxxxxxxxxxxx |xxxxxxxxxxxxx |xxxxxxxxxxxxx |     10093368 |     10093368 |     10093368 |xxxxxxxxxxxxx |xxxxxxxxxxxxx |xxxxxxxxxxxxx |xxxxxxxxxxxxx |     21299794 |     21299794 |     21299794 |xxxxxxxxxxxxx |xxxxxxxxxxxxx |xxxxxxxxxxxxx |xxxxxxxxxxxxx |     44566377 |     44566377 |     44566377 |xxxxxxxxxxxxx |xxxxxxxxxxxxx |xxxxxxxxxxxxx |xxxxxxxxxxxxx |     93587739 |     93587739 |     93587739 |xxxxxxxxxxxxx |xxxxxxxxxxxxx |xxxxxxxxxxxxx |xxxxxxxxxxxxx |    195039327 |    195039327 |    195039327 |
bpred_bimod.addr_hits                        83086 |        83088 |        83093 |xxxxxxxxxxxxx |xxxxxxxxxxxxx |xxxxxxxxxxxxx |xxxxxxxxxxxxx |       179146 |       179149 |       179154 |xxxxxxxxxxxxx |xxxxxxxxxxxxx |xxxxxxxxxxxxx |xxxxxxxxxxxxx |       380140 |       380142 |       380148 |xxxxxxxxxxxxx |xxxxxxxxxxxxx |xxxxxxxxxxxxx |xxxxxxxxxxxxx |       813063 |       813066 |       813071 |xxxxxxxxxxxxx |xxxxxxxxxxxxx |xxxxxxxxxxxxx |xxxxxxxxxxxxx |      1716121 |      1716123 |      1716129 |xxxxxxxxxxxxx |xxxxxxxxxxxxx |xxxxxxxxxxxxx |xxxxxxxxxxxxx |      3644617 |      3644620 |      3644626 |xxxxxxxxxxxxx |xxxxxxxxxxxxx |xxxxxxxxxxxxx |xxxxxxxxxxxxx |      7647928 |      7647930 |      7647936 |xxxxxxxxxxxxx |xxxxxxxxxxxxx |xxxxxxxxxxxxx |xxxxxxxxxxxxx |     16143020 |     16143023 |     16143028 |xxxxxxxxxxxxx |xxxxxxxxxxxxx |xxxxxxxxxxxxx |xxxxxxxxxxxxx |     33730977 |     33730980 |     33730985 |xxxxxxxxxxxxx |xxxxxxxxxxxxx |xxxxxxxxxxxxx |xxxxxxxxxxxxx |     70865048 |     70865051 |     70865056 |xxxxxxxxxxxxx |xxxxxxxxxxxxx |xxxxxxxxxxxxx |xxxxxxxxxxxxx |    147501447 |    147501450 |    147501456 |
bpred_bimod.dir_hits                         83185 |        83187 |        83191 |xxxxxxxxxxxxx |xxxxxxxxxxxxx |xxxxxxxxxxxxx |xxxxxxxxxxxxx |       179255 |       179257 |       179262 |xxxxxxxxxxxxx |xxxxxxxxxxxxx |xxxxxxxxxxxxx |xxxxxxxxxxxxx |       380245 |       380246 |       380250 |xxxxxxxxxxxxx |xxxxxxxxxxxxx |xxxxxxxxxxxxx |xxxxxxxxxxxxx |       813171 |       813173 |       813178 |xxxxxxxxxxxxx |xxxxxxxxxxxxx |xxxxxxxxxxxxx |xxxxxxxxxxxxx |      1716223 |      1716224 |      1716230 |xxxxxxxxxxxxx |xxxxxxxxxxxxx |xxxxxxxxxxxxx |xxxxxxxxxxxxx |      3644726 |      3644728 |      3644734 |xxxxxxxxxxxxx |xxxxxxxxxxxxx |xxxxxxxxxxxxx |xxxxxxxxxxxxx |      7648031 |      7648032 |      7648038 |xxxxxxxxxxxxx |xxxxxxxxxxxxx |xxxxxxxxxxxxx |xxxxxxxxxxxxx |     16143129 |     16143131 |     16143136 |xxxxxxxxxxxxx |xxxxxxxxxxxxx |xxxxxxxxxxxxx |xxxxxxxxxxxxx |     33731091 |     33731093 |     33731098 |xxxxxxxxxxxxx |xxxxxxxxxxxxx |xxxxxxxxxxxxx |xxxxxxxxxxxxx |     70865163 |     70865165 |     70865170 |xxxxxxxxxxxxx |xxxxxxxxxxxxx |xxxxxxxxxxxxx |xxxxxxxxxxxxx |    147501561 |    147501563 |    147501569 |
bpred_bimod.misses                           26176 |        26174 |        26170 |xxxxxxxxxxxxx |xxxxxxxxxxxxx |xxxxxxxxxxxxx |xxxxxxxxxxxxx |        56113 |        56111 |        56106 |xxxxxxxxxxxxx |xxxxxxxxxxxxx |xxxxxxxxxxxxx |xxxxxxxxxxxxx |       120412 |       120411 |       120407 |xxxxxxxxxxxxx |xxxxxxxxxxxxx |xxxxxxxxxxxxx |xxxxxxxxxxxxx |       256762 |       256760 |       256755 |xxxxxxxxxxxxx |xxxxxxxxxxxxx |xxxxxxxxxxxxx |xxxxxxxxxxxxx |       545442 |       545441 |       545435 |xxxxxxxxxxxxx |xxxxxxxxxxxxx |xxxxxxxxxxxxx |xxxxxxxxxxxxx |      1156572 |      1156570 |      1156564 |xxxxxxxxxxxxx |xxxxxxxxxxxxx |xxxxxxxxxxxxx |xxxxxxxxxxxxx |      2445337 |      2445336 |      2445330 |xxxxxxxxxxxxx |xxxxxxxxxxxxx |xxxxxxxxxxxxx |xxxxxxxxxxxxx |      5156665 |      5156663 |      5156658 |xxxxxxxxxxxxx |xxxxxxxxxxxxx |xxxxxxxxxxxxx |xxxxxxxxxxxxx |     10835286 |     10835284 |     10835279 |xxxxxxxxxxxxx |xxxxxxxxxxxxx |xxxxxxxxxxxxx |xxxxxxxxxxxxx |     22722576 |     22722574 |     22722569 |xxxxxxxxxxxxx |xxxxxxxxxxxxx |xxxxxxxxxxxxx |xxxxxxxxxxxxx |     47537766 |     47537764 |     47537758 |
bpred_bimod.jr_hits                             61 |           61 |           61 |xxxxxxxxxxxxx |xxxxxxxxxxxxx |xxxxxxxxxxxxx |xxxxxxxxxxxxx |           71 |           71 |           71 |xxxxxxxxxxxxx |xxxxxxxxxxxxx |xxxxxxxxxxxxx |xxxxxxxxxxxxx |           69 |           69 |           69 |xxxxxxxxxxxxx |xxxxxxxxxxxxx |xxxxxxxxxxxxx |xxxxxxxxxxxxx |           71 |           71 |           71 |xxxxxxxxxxxxx |xxxxxxxxxxxxx |xxxxxxxxxxxxx |xxxxxxxxxxxxx |           69 |           69 |           69 |xxxxxxxxxxxxx |xxxxxxxxxxxxx |xxxxxxxxxxxxx |xxxxxxxxxxxxx |           71 |           71 |           71 |xxxxxxxxxxxxx |xxxxxxxxxxxxx |xxxxxxxxxxxxx |xxxxxxxxxxxxx |           69 |           69 |           69 |xxxxxxxxxxxxx |xxxxxxxxxxxxx |xxxxxxxxxxxxx |xxxxxxxxxxxxx |           71 |           71 |           71 |xxxxxxxxxxxxx |xxxxxxxxxxxxx |xxxxxxxxxxxxx |xxxxxxxxxxxxx |           72 |           72 |           72 |xxxxxxxxxxxxx |xxxxxxxxxxxxx |xxxxxxxxxxxxx |xxxxxxxxxxxxx |           75 |           75 |           75 |xxxxxxxxxxxxx |xxxxxxxxxxxxx |xxxxxxxxxxxxx |xxxxxxxxxxxxx |           72 |           72 |           72 |
bpred_bimod.jr_seen                             61 |           61 |           61 |xxxxxxxxxxxxx |xxxxxxxxxxxxx |xxxxxxxxxxxxx |xxxxxxxxxxxxx |           73 |           73 |           73 |xxxxxxxxxxxxx |xxxxxxxxxxxxx |xxxxxxxxxxxxx |xxxxxxxxxxxxx |           70 |           70 |           70 |xxxxxxxxxxxxx |xxxxxxxxxxxxx |xxxxxxxxxxxxx |xxxxxxxxxxxxx |           73 |           73 |           73 |xxxxxxxxxxxxx |xxxxxxxxxxxxx |xxxxxxxxxxxxx |xxxxxxxxxxxxx |           70 |           70 |           70 |xxxxxxxxxxxxx |xxxxxxxxxxxxx |xxxxxxxxxxxxx |xxxxxxxxxxxxx |           73 |           73 |           73 |xxxxxxxxxxxxx |xxxxxxxxxxxxx |xxxxxxxxxxxxx |xxxxxxxxxxxxx |           70 |           70 |           70 |xxxxxxxxxxxxx |xxxxxxxxxxxxx |xxxxxxxxxxxxx |xxxxxxxxxxxxx |           73 |           73 |           73 |xxxxxxxxxxxxx |xxxxxxxxxxxxx |xxxxxxxxxxxxx |xxxxxxxxxxxxx |           73 |           73 |           73 |xxxxxxxxxxxxx |xxxxxxxxxxxxx |xxxxxxxxxxxxx |xxxxxxxxxxxxx |           76 |           76 |           76 |xxxxxxxxxxxxx |xxxxxxxxxxxxx |xxxxxxxxxxxxx |xxxxxxxxxxxxx |           73 |           73 |           73 |
bpred_bimod.jr_non_ras_hits.PP                   0 |            0 |            0 |xxxxxxxxxxxxx |xxxxxxxxxxxxx |xxxxxxxxxxxxx |xxxxxxxxxxxxx |            0 |            0 |            0 |xxxxxxxxxxxxx |xxxxxxxxxxxxx |xxxxxxxxxxxxx |xxxxxxxxxxxxx |            0 |            0 |            0 |xxxxxxxxxxxxx |xxxxxxxxxxxxx |xxxxxxxxxxxxx |xxxxxxxxxxxxx |            0 |            0 |            0 |xxxxxxxxxxxxx |xxxxxxxxxxxxx |xxxxxxxxxxxxx |xxxxxxxxxxxxx |            0 |            0 |            0 |xxxxxxxxxxxxx |xxxxxxxxxxxxx |xxxxxxxxxxxxx |xxxxxxxxxxxxx |            0 |            0 |            0 |xxxxxxxxxxxxx |xxxxxxxxxxxxx |xxxxxxxxxxxxx |xxxxxxxxxxxxx |            0 |            0 |            0 |xxxxxxxxxxxxx |xxxxxxxxxxxxx |xxxxxxxxxxxxx |xxxxxxxxxxxxx |            0 |            0 |            0 |xxxxxxxxxxxxx |xxxxxxxxxxxxx |xxxxxxxxxxxxx |xxxxxxxxxxxxx |            0 |            0 |            0 |xxxxxxxxxxxxx |xxxxxxxxxxxxx |xxxxxxxxxxxxx |xxxxxxxxxxxxx |            1 |            1 |            1 |xxxxxxxxxxxxx |xxxxxxxxxxxxx |xxxxxxxxxxxxx |xxxxxxxxxxxxx |            0 |            0 |            0 |
bpred_bimod.jr_non_ras_seen.PP                   0 |            0 |            0 |xxxxxxxxxxxxx |xxxxxxxxxxxxx |xxxxxxxxxxxxx |xxxxxxxxxxxxx |            1 |            1 |            1 |xxxxxxxxxxxxx |xxxxxxxxxxxxx |xxxxxxxxxxxxx |xxxxxxxxxxxxx |            0 |            0 |            0 |xxxxxxxxxxxxx |xxxxxxxxxxxxx |xxxxxxxxxxxxx |xxxxxxxxxxxxx |            1 |            1 |            1 |xxxxxxxxxxxxx |xxxxxxxxxxxxx |xxxxxxxxxxxxx |xxxxxxxxxxxxx |            0 |            0 |            0 |xxxxxxxxxxxxx |xxxxxxxxxxxxx |xxxxxxxxxxxxx |xxxxxxxxxxxxx |            1 |            1 |            1 |xxxxxxxxxxxxx |xxxxxxxxxxxxx |xxxxxxxxxxxxx |xxxxxxxxxxxxx |            0 |            0 |            0 |xxxxxxxxxxxxx |xxxxxxxxxxxxx |xxxxxxxxxxxxx |xxxxxxxxxxxxx |            1 |            1 |            1 |xxxxxxxxxxxxx |xxxxxxxxxxxxx |xxxxxxxxxxxxx |xxxxxxxxxxxxx |            1 |            1 |            1 |xxxxxxxxxxxxx |xxxxxxxxxxxxx |xxxxxxxxxxxxx |xxxxxxxxxxxxx |            2 |            2 |            2 |xxxxxxxxxxxxx |xxxxxxxxxxxxx |xxxxxxxxxxxxx |xxxxxxxxxxxxx |            1 |            1 |            1 |
bpred_bimod.bpred_addr_rate                 0.7597 |       0.7598 |       0.7598 |xxxxxxxxxxxxx |xxxxxxxxxxxxx |xxxxxxxxxxxxx |xxxxxxxxxxxxx |       0.7611 |       0.7611 |       0.7612 |xxxxxxxxxxxxx |xxxxxxxxxxxxx |xxxxxxxxxxxxx |xxxxxxxxxxxxx |       0.7593 |       0.7593 |       0.7593 |xxxxxxxxxxxxx |xxxxxxxxxxxxx |xxxxxxxxxxxxx |xxxxxxxxxxxxx |       0.7599 |       0.7599 |       0.7599 |xxxxxxxxxxxxx |xxxxxxxxxxxxx |xxxxxxxxxxxxx |xxxxxxxxxxxxx |       0.7588 |       0.7588 |       0.7588 |xxxxxxxxxxxxx |xxxxxxxxxxxxx |xxxxxxxxxxxxx |xxxxxxxxxxxxx |       0.7591 |       0.7591 |       0.7591 |xxxxxxxxxxxxx |xxxxxxxxxxxxx |xxxxxxxxxxxxx |xxxxxxxxxxxxx |       0.7577 |       0.7577 |       0.7577 |xxxxxxxxxxxxx |xxxxxxxxxxxxx |xxxxxxxxxxxxx |xxxxxxxxxxxxx |       0.7579 |       0.7579 |       0.7579 |xxxxxxxxxxxxx |xxxxxxxxxxxxx |xxxxxxxxxxxxx |xxxxxxxxxxxxx |       0.7569 |       0.7569 |       0.7569 |xxxxxxxxxxxxx |xxxxxxxxxxxxx |xxxxxxxxxxxxx |xxxxxxxxxxxxx |       0.7572 |       0.7572 |       0.7572 |xxxxxxxxxxxxx |xxxxxxxxxxxxx |xxxxxxxxxxxxx |xxxxxxxxxxxxx |       0.7563 |       0.7563 |       0.7563 |
bpred_bimod.bpred_dir_rate                  0.7606 |       0.7607 |       0.7607 |xxxxxxxxxxxxx |xxxxxxxxxxxxx |xxxxxxxxxxxxx |xxxxxxxxxxxxx |       0.7616 |       0.7616 |       0.7616 |xxxxxxxxxxxxx |xxxxxxxxxxxxx |xxxxxxxxxxxxx |xxxxxxxxxxxxx |       0.7595 |       0.7595 |       0.7595 |xxxxxxxxxxxxx |xxxxxxxxxxxxx |xxxxxxxxxxxxx |xxxxxxxxxxxxx |       0.7600 |       0.7600 |       0.7600 |xxxxxxxxxxxxx |xxxxxxxxxxxxx |xxxxxxxxxxxxx |xxxxxxxxxxxxx |       0.7588 |       0.7588 |       0.7588 |xxxxxxxxxxxxx |xxxxxxxxxxxxx |xxxxxxxxxxxxx |xxxxxxxxxxxxx |       0.7591 |       0.7591 |       0.7591 |xxxxxxxxxxxxx |xxxxxxxxxxxxx |xxxxxxxxxxxxx |xxxxxxxxxxxxx |       0.7577 |       0.7577 |       0.7577 |xxxxxxxxxxxxx |xxxxxxxxxxxxx |xxxxxxxxxxxxx |xxxxxxxxxxxxx |       0.7579 |       0.7579 |       0.7579 |xxxxxxxxxxxxx |xxxxxxxxxxxxx |xxxxxxxxxxxxx |xxxxxxxxxxxxx |       0.7569 |       0.7569 |       0.7569 |xxxxxxxxxxxxx |xxxxxxxxxxxxx |xxxxxxxxxxxxx |xxxxxxxxxxxxx |       0.7572 |       0.7572 |       0.7572 |xxxxxxxxxxxxx |xxxxxxxxxxxxx |xxxxxxxxxxxxx |xxxxxxxxxxxxx |       0.7563 |       0.7563 |       0.7563 |
bpred_bimod.bpred_jr_rate                   1.0000 |       1.0000 |       1.0000 |xxxxxxxxxxxxx |xxxxxxxxxxxxx |xxxxxxxxxxxxx |xxxxxxxxxxxxx |       0.9726 |       0.9726 |       0.9726 |xxxxxxxxxxxxx |xxxxxxxxxxxxx |xxxxxxxxxxxxx |xxxxxxxxxxxxx |       0.9857 |       0.9857 |       0.9857 |xxxxxxxxxxxxx |xxxxxxxxxxxxx |xxxxxxxxxxxxx |xxxxxxxxxxxxx |       0.9726 |       0.9726 |       0.9726 |xxxxxxxxxxxxx |xxxxxxxxxxxxx |xxxxxxxxxxxxx |xxxxxxxxxxxxx |       0.9857 |       0.9857 |       0.9857 |xxxxxxxxxxxxx |xxxxxxxxxxxxx |xxxxxxxxxxxxx |xxxxxxxxxxxxx |       0.9726 |       0.9726 |       0.9726 |xxxxxxxxxxxxx |xxxxxxxxxxxxx |xxxxxxxxxxxxx |xxxxxxxxxxxxx |       0.9857 |       0.9857 |       0.9857 |xxxxxxxxxxxxx |xxxxxxxxxxxxx |xxxxxxxxxxxxx |xxxxxxxxxxxxx |       0.9726 |       0.9726 |       0.9726 |xxxxxxxxxxxxx |xxxxxxxxxxxxx |xxxxxxxxxxxxx |xxxxxxxxxxxxx |       0.9863 |       0.9863 |       0.9863 |xxxxxxxxxxxxx |xxxxxxxxxxxxx |xxxxxxxxxxxxx |xxxxxxxxxxxxx |       0.9868 |       0.9868 |       0.9868 |xxxxxxxxxxxxx |xxxxxxxxxxxxx |xxxxxxxxxxxxx |xxxxxxxxxxxxx |       0.9863 |       0.9863 |       0.9863 |
bpred_bimod.bpred_jr_non_ras_rate.PP       <error: |      <error: |      <error: |xxxxxxxxxxxxx |xxxxxxxxxxxxx |xxxxxxxxxxxxx |xxxxxxxxxxxxx |       0.0000 |       0.0000 |       0.0000 |xxxxxxxxxxxxx |xxxxxxxxxxxxx |xxxxxxxxxxxxx |xxxxxxxxxxxxx |      <error: |      <error: |      <error: |xxxxxxxxxxxxx |xxxxxxxxxxxxx |xxxxxxxxxxxxx |xxxxxxxxxxxxx |       0.0000 |       0.0000 |       0.0000 |xxxxxxxxxxxxx |xxxxxxxxxxxxx |xxxxxxxxxxxxx |xxxxxxxxxxxxx |      <error: |      <error: |      <error: |xxxxxxxxxxxxx |xxxxxxxxxxxxx |xxxxxxxxxxxxx |xxxxxxxxxxxxx |       0.0000 |       0.0000 |       0.0000 |xxxxxxxxxxxxx |xxxxxxxxxxxxx |xxxxxxxxxxxxx |xxxxxxxxxxxxx |      <error: |      <error: |      <error: |xxxxxxxxxxxxx |xxxxxxxxxxxxx |xxxxxxxxxxxxx |xxxxxxxxxxxxx |       0.0000 |       0.0000 |       0.0000 |xxxxxxxxxxxxx |xxxxxxxxxxxxx |xxxxxxxxxxxxx |xxxxxxxxxxxxx |       0.0000 |       0.0000 |       0.0000 |xxxxxxxxxxxxx |xxxxxxxxxxxxx |xxxxxxxxxxxxx |xxxxxxxxxxxxx |       0.5000 |       0.5000 |       0.5000 |xxxxxxxxxxxxx |xxxxxxxxxxxxx |xxxxxxxxxxxxx |xxxxxxxxxxxxx |       0.0000 |       0.0000 |       0.0000 |
bpred_bimod.retstack_pushes                     63 |           63 |           63 |xxxxxxxxxxxxx |xxxxxxxxxxxxx |xxxxxxxxxxxxx |xxxxxxxxxxxxx |           74 |           74 |           74 |xxxxxxxxxxxxx |xxxxxxxxxxxxx |xxxxxxxxxxxxx |xxxxxxxxxxxxx |           72 |           72 |           72 |xxxxxxxxxxxxx |xxxxxxxxxxxxx |xxxxxxxxxxxxx |xxxxxxxxxxxxx |           74 |           74 |           74 |xxxxxxxxxxxxx |xxxxxxxxxxxxx |xxxxxxxxxxxxx |xxxxxxxxxxxxx |           72 |           72 |           72 |xxxxxxxxxxxxx |xxxxxxxxxxxxx |xxxxxxxxxxxxx |xxxxxxxxxxxxx |           74 |           74 |           74 |xxxxxxxxxxxxx |xxxxxxxxxxxxx |xxxxxxxxxxxxx |xxxxxxxxxxxxx |           72 |           72 |           72 |xxxxxxxxxxxxx |xxxxxxxxxxxxx |xxxxxxxxxxxxx |xxxxxxxxxxxxx |           74 |           74 |           74 |xxxxxxxxxxxxx |xxxxxxxxxxxxx |xxxxxxxxxxxxx |xxxxxxxxxxxxx |           74 |           74 |           74 |xxxxxxxxxxxxx |xxxxxxxxxxxxx |xxxxxxxxxxxxx |xxxxxxxxxxxxx |           76 |           76 |           76 |xxxxxxxxxxxxx |xxxxxxxxxxxxx |xxxxxxxxxxxxx |xxxxxxxxxxxxx |           74 |           74 |           74 |
bpred_bimod.retstack_pops                       61 |           61 |           61 |xxxxxxxxxxxxx |xxxxxxxxxxxxx |xxxxxxxxxxxxx |xxxxxxxxxxxxx |           72 |           72 |           72 |xxxxxxxxxxxxx |xxxxxxxxxxxxx |xxxxxxxxxxxxx |xxxxxxxxxxxxx |           70 |           70 |           70 |xxxxxxxxxxxxx |xxxxxxxxxxxxx |xxxxxxxxxxxxx |xxxxxxxxxxxxx |           72 |           72 |           72 |xxxxxxxxxxxxx |xxxxxxxxxxxxx |xxxxxxxxxxxxx |xxxxxxxxxxxxx |           70 |           70 |           70 |xxxxxxxxxxxxx |xxxxxxxxxxxxx |xxxxxxxxxxxxx |xxxxxxxxxxxxx |           72 |           72 |           72 |xxxxxxxxxxxxx |xxxxxxxxxxxxx |xxxxxxxxxxxxx |xxxxxxxxxxxxx |           70 |           70 |           70 |xxxxxxxxxxxxx |xxxxxxxxxxxxx |xxxxxxxxxxxxx |xxxxxxxxxxxxx |           72 |           72 |           72 |xxxxxxxxxxxxx |xxxxxxxxxxxxx |xxxxxxxxxxxxx |xxxxxxxxxxxxx |           72 |           72 |           72 |xxxxxxxxxxxxx |xxxxxxxxxxxxx |xxxxxxxxxxxxx |xxxxxxxxxxxxx |           74 |           74 |           74 |xxxxxxxxxxxxx |xxxxxxxxxxxxx |xxxxxxxxxxxxx |xxxxxxxxxxxxx |           72 |           72 |           72 |
bpred_bimod.used_ras.PP                         61 |           61 |           61 |xxxxxxxxxxxxx |xxxxxxxxxxxxx |xxxxxxxxxxxxx |xxxxxxxxxxxxx |           72 |           72 |           72 |xxxxxxxxxxxxx |xxxxxxxxxxxxx |xxxxxxxxxxxxx |xxxxxxxxxxxxx |           70 |           70 |           70 |xxxxxxxxxxxxx |xxxxxxxxxxxxx |xxxxxxxxxxxxx |xxxxxxxxxxxxx |           72 |           72 |           72 |xxxxxxxxxxxxx |xxxxxxxxxxxxx |xxxxxxxxxxxxx |xxxxxxxxxxxxx |           70 |           70 |           70 |xxxxxxxxxxxxx |xxxxxxxxxxxxx |xxxxxxxxxxxxx |xxxxxxxxxxxxx |           72 |           72 |           72 |xxxxxxxxxxxxx |xxxxxxxxxxxxx |xxxxxxxxxxxxx |xxxxxxxxxxxxx |           70 |           70 |           70 |xxxxxxxxxxxxx |xxxxxxxxxxxxx |xxxxxxxxxxxxx |xxxxxxxxxxxxx |           72 |           72 |           72 |xxxxxxxxxxxxx |xxxxxxxxxxxxx |xxxxxxxxxxxxx |xxxxxxxxxxxxx |           72 |           72 |           72 |xxxxxxxxxxxxx |xxxxxxxxxxxxx |xxxxxxxxxxxxx |xxxxxxxxxxxxx |           74 |           74 |           74 |xxxxxxxxxxxxx |xxxxxxxxxxxxx |xxxxxxxxxxxxx |xxxxxxxxxxxxx |           72 |           72 |           72 |
bpred_bimod.ras_hits.PP                         61 |           61 |           61 |xxxxxxxxxxxxx |xxxxxxxxxxxxx |xxxxxxxxxxxxx |xxxxxxxxxxxxx |           71 |           71 |           71 |xxxxxxxxxxxxx |xxxxxxxxxxxxx |xxxxxxxxxxxxx |xxxxxxxxxxxxx |           69 |           69 |           69 |xxxxxxxxxxxxx |xxxxxxxxxxxxx |xxxxxxxxxxxxx |xxxxxxxxxxxxx |           71 |           71 |           71 |xxxxxxxxxxxxx |xxxxxxxxxxxxx |xxxxxxxxxxxxx |xxxxxxxxxxxxx |           69 |           69 |           69 |xxxxxxxxxxxxx |xxxxxxxxxxxxx |xxxxxxxxxxxxx |xxxxxxxxxxxxx |           71 |           71 |           71 |xxxxxxxxxxxxx |xxxxxxxxxxxxx |xxxxxxxxxxxxx |xxxxxxxxxxxxx |           69 |           69 |           69 |xxxxxxxxxxxxx |xxxxxxxxxxxxx |xxxxxxxxxxxxx |xxxxxxxxxxxxx |           71 |           71 |           71 |xxxxxxxxxxxxx |xxxxxxxxxxxxx |xxxxxxxxxxxxx |xxxxxxxxxxxxx |           72 |           72 |           72 |xxxxxxxxxxxxx |xxxxxxxxxxxxx |xxxxxxxxxxxxx |xxxxxxxxxxxxx |           74 |           74 |           74 |xxxxxxxxxxxxx |xxxxxxxxxxxxx |xxxxxxxxxxxxx |xxxxxxxxxxxxx |           72 |           72 |           72 |
bpred_bimod.ras_rate.PP                     1.0000 |       1.0000 |       1.0000 |xxxxxxxxxxxxx |xxxxxxxxxxxxx |xxxxxxxxxxxxx |xxxxxxxxxxxxx |       0.9861 |       0.9861 |       0.9861 |xxxxxxxxxxxxx |xxxxxxxxxxxxx |xxxxxxxxxxxxx |xxxxxxxxxxxxx |       0.9857 |       0.9857 |       0.9857 |xxxxxxxxxxxxx |xxxxxxxxxxxxx |xxxxxxxxxxxxx |xxxxxxxxxxxxx |       0.9861 |       0.9861 |       0.9861 |xxxxxxxxxxxxx |xxxxxxxxxxxxx |xxxxxxxxxxxxx |xxxxxxxxxxxxx |       0.9857 |       0.9857 |       0.9857 |xxxxxxxxxxxxx |xxxxxxxxxxxxx |xxxxxxxxxxxxx |xxxxxxxxxxxxx |       0.9861 |       0.9861 |       0.9861 |xxxxxxxxxxxxx |xxxxxxxxxxxxx |xxxxxxxxxxxxx |xxxxxxxxxxxxx |       0.9857 |       0.9857 |       0.9857 |xxxxxxxxxxxxx |xxxxxxxxxxxxx |xxxxxxxxxxxxx |xxxxxxxxxxxxx |       0.9861 |       0.9861 |       0.9861 |xxxxxxxxxxxxx |xxxxxxxxxxxxx |xxxxxxxxxxxxx |xxxxxxxxxxxxx |       1.0000 |       1.0000 |       1.0000 |xxxxxxxxxxxxx |xxxxxxxxxxxxx |xxxxxxxxxxxxx |xxxxxxxxxxxxx |       1.0000 |       1.0000 |       1.0000 |xxxxxxxxxxxxx |xxxxxxxxxxxxx |xxxxxxxxxxxxx |xxxxxxxxxxxxx |       1.0000 |       1.0000 |       1.0000 |
bpred_2lev.lookups                   xxxxxxxxxxxxx |xxxxxxxxxxxxx |xxxxxxxxxxxxx |       109361 |       109361 |       109361 |       109361 |xxxxxxxxxxxxx |xxxxxxxxxxxxx |xxxxxxxxxxxxx |       235368 |       235368 |       235368 |       235368 |xxxxxxxxxxxxx |xxxxxxxxxxxxx |xxxxxxxxxxxxx |       500657 |       500657 |       500657 |       500657 |xxxxxxxxxxxxx |xxxxxxxxxxxxx |xxxxxxxxxxxxx |      1069933 |      1069933 |      1069933 |      1069933 |xxxxxxxxxxxxx |xxxxxxxxxxxxx |xxxxxxxxxxxxx |      2261665 |      2261665 |      2261665 |      2261665 |xxxxxxxxxxxxx |xxxxxxxxxxxxx |xxxxxxxxxxxxx |      4801298 |      4801298 |      4801298 |      4801298 |xxxxxxxxxxxxx |xxxxxxxxxxxxx |xxxxxxxxxxxxx |     10093368 |     10093368 |     10093368 |     10093368 |xxxxxxxxxxxxx |xxxxxxxxxxxxx |xxxxxxxxxxxxx |     21299794 |     21299794 |     21299794 |     21299794 |xxxxxxxxxxxxx |xxxxxxxxxxxxx |xxxxxxxxxxxxx |     44566377 |     44566377 |     44566377 |     44566377 |xxxxxxxxxxxxx |xxxxxxxxxxxxx |xxxxxxxxxxxxx |     93587739 |     93587739 |     93587739 |     93587739 |xxxxxxxxxxxxx |xxxxxxxxxxxxx |xxxxxxxxxxxxx |    195039327 |    195039327 |    195039327 |    195039327 |
[...]
bpred_2lev.retstack_pushes           xxxxxxxxxxxxx |xxxxxxxxxxxxx |xxxxxxxxxxxxx |           63 |           63 |           63 |           63 |xxxxxxxxxxxxx |xxxxxxxxxxxxx |xxxxxxxxxxxxx |           74 |           74 |           74 |           74 |xxxxxxxxxxxxx |xxxxxxxxxxxxx |xxxxxxxxxxxxx |           72 |           72 |           72 |           72 |xxxxxxxxxxxxx |xxxxxxxxxxxxx |xxxxxxxxxxxxx |           74 |           74 |           74 |           74 |xxxxxxxxxxxxx |xxxxxxxxxxxxx |xxxxxxxxxxxxx |           72 |           72 |           72 |           72 |xxxxxxxxxxxxx |xxxxxxxxxxxxx |xxxxxxxxxxxxx |           74 |           74 |           74 |           74 |xxxxxxxxxxxxx |xxxxxxxxxxxxx |xxxxxxxxxxxxx |           72 |           72 |           72 |           72 |xxxxxxxxxxxxx |xxxxxxxxxxxxx |xxxxxxxxxxxxx |           74 |           74 |           74 |           74 |xxxxxxxxxxxxx |xxxxxxxxxxxxx |xxxxxxxxxxxxx |           74 |           74 |           74 |           74 |xxxxxxxxxxxxx |xxxxxxxxxxxxx |xxxxxxxxxxxxx |           76 |           76 |           76 |           76 |xxxxxxxxxxxxx |xxxxxxxxxxxxx |xxxxxxxxxxxxx |           74 |           74 |           74 |           74 |
bpred_2lev.retstack_pops             xxxxxxxxxxxxx |xxxxxxxxxxxxx |xxxxxxxxxxxxx |           61 |           61 |           61 |           61 |xxxxxxxxxxxxx |xxxxxxxxxxxxx |xxxxxxxxxxxxx |           72 |           72 |           72 |           72 |xxxxxxxxxxxxx |xxxxxxxxxxxxx |xxxxxxxxxxxxx |           70 |           70 |           70 |           70 |xxxxxxxxxxxxx |xxxxxxxxxxxxx |xxxxxxxxxxxxx |           72 |           72 |           72 |           72 |xxxxxxxxxxxxx |xxxxxxxxxxxxx |xxxxxxxxxxxxx |           70 |           70 |           70 |           70 |xxxxxxxxxxxxx |xxxxxxxxxxxxx |xxxxxxxxxxxxx |           72 |           72 |           72 |           72 |xxxxxxxxxxxxx |xxxxxxxxxxxxx |xxxxxxxxxxxxx |           70 |           70 |           70 |           70 |xxxxxxxxxxxxx |xxxxxxxxxxxxx |xxxxxxxxxxxxx |           72 |           72 |           72 |           72 |xxxxxxxxxxxxx |xxxxxxxxxxxxx |xxxxxxxxxxxxx |           72 |           72 |           72 |           72 |xxxxxxxxxxxxx |xxxxxxxxxxxxx |xxxxxxxxxxxxx |           74 |           74 |           74 |           74 |xxxxxxxxxxxxx |xxxxxxxxxxxxx |xxxxxxxxxxxxx |           72 |           72 |           72 |           72 |
bpred_2lev.used_ras.PP               xxxxxxxxxxxxx |xxxxxxxxxxxxx |xxxxxxxxxxxxx |           61 |           61 |           61 |           61 |xxxxxxxxxxxxx |xxxxxxxxxxxxx |xxxxxxxxxxxxx |           72 |           72 |           72 |           72 |xxxxxxxxxxxxx |xxxxxxxxxxxxx |xxxxxxxxxxxxx |           70 |           70 |           70 |           70 |xxxxxxxxxxxxx |xxxxxxxxxxxxx |xxxxxxxxxxxxx |           72 |           72 |           72 |           72 |xxxxxxxxxxxxx |xxxxxxxxxxxxx |xxxxxxxxxxxxx |           70 |           70 |           70 |           70 |xxxxxxxxxxxxx |xxxxxxxxxxxxx |xxxxxxxxxxxxx |           72 |           72 |           72 |           72 |xxxxxxxxxxxxx |xxxxxxxxxxxxx |xxxxxxxxxxxxx |           70 |           70 |           70 |           70 |xxxxxxxxxxxxx |xxxxxxxxxxxxx |xxxxxxxxxxxxx |           72 |           72 |           72 |           72 |xxxxxxxxxxxxx |xxxxxxxxxxxxx |xxxxxxxxxxxxx |           72 |           72 |           72 |           72 |xxxxxxxxxxxxx |xxxxxxxxxxxxx |xxxxxxxxxxxxx |           74 |           74 |           74 |           74 |xxxxxxxxxxxxx |xxxxxxxxxxxxx |xxxxxxxxxxxxx |           72 |           72 |           72 |           72 |
bpred_2lev.ras_hits.PP               xxxxxxxxxxxxx |xxxxxxxxxxxxx |xxxxxxxxxxxxx |           61 |           61 |           61 |           61 |xxxxxxxxxxxxx |xxxxxxxxxxxxx |xxxxxxxxxxxxx |           71 |           71 |           71 |           71 |xxxxxxxxxxxxx |xxxxxxxxxxxxx |xxxxxxxxxxxxx |           69 |           69 |           69 |           69 |xxxxxxxxxxxxx |xxxxxxxxxxxxx |xxxxxxxxxxxxx |           71 |           71 |           71 |           71 |xxxxxxxxxxxxx |xxxxxxxxxxxxx |xxxxxxxxxxxxx |           69 |           69 |           69 |           69 |xxxxxxxxxxxxx |xxxxxxxxxxxxx |xxxxxxxxxxxxx |           71 |           71 |           71 |           71 |xxxxxxxxxxxxx |xxxxxxxxxxxxx |xxxxxxxxxxxxx |           69 |           69 |           69 |           69 |xxxxxxxxxxxxx |xxxxxxxxxxxxx |xxxxxxxxxxxxx |           71 |           71 |           71 |           71 |xxxxxxxxxxxxx |xxxxxxxxxxxxx |xxxxxxxxxxxxx |           72 |           72 |           72 |           72 |xxxxxxxxxxxxx |xxxxxxxxxxxxx |xxxxxxxxxxxxx |           74 |           74 |           74 |           74 |xxxxxxxxxxxxx |xxxxxxxxxxxxx |xxxxxxxxxxxxx |           72 |           72 |           72 |           72 |
bpred_2lev.ras_rate.PP               xxxxxxxxxxxxx |xxxxxxxxxxxxx |xxxxxxxxxxxxx |       1.0000 |       1.0000 |       1.0000 |       1.0000 |xxxxxxxxxxxxx |xxxxxxxxxxxxx |xxxxxxxxxxxxx |       0.9861 |       0.9861 |       0.9861 |       0.9861 |xxxxxxxxxxxxx |xxxxxxxxxxxxx |xxxxxxxxxxxxx |       0.9857 |       0.9857 |       0.9857 |       0.9857 |xxxxxxxxxxxxx |xxxxxxxxxxxxx |xxxxxxxxxxxxx |       0.9861 |       0.9861 |       0.9861 |       0.9861 |xxxxxxxxxxxxx |xxxxxxxxxxxxx |xxxxxxxxxxxxx |       0.9857 |       0.9857 |       0.9857 |       0.9857 |xxxxxxxxxxxxx |xxxxxxxxxxxxx |xxxxxxxxxxxxx |       0.9861 |       0.9861 |       0.9861 |       0.9861 |xxxxxxxxxxxxx |xxxxxxxxxxxxx |xxxxxxxxxxxxx |       0.9857 |       0.9857 |       0.9857 |       0.9857 |xxxxxxxxxxxxx |xxxxxxxxxxxxx |xxxxxxxxxxxxx |       0.9861 |       0.9861 |       0.9861 |       0.9861 |xxxxxxxxxxxxx |xxxxxxxxxxxxx |xxxxxxxxxxxxx |       1.0000 |       1.0000 |       1.0000 |       1.0000 |xxxxxxxxxxxxx |xxxxxxxxxxxxx |xxxxxxxxxxxxx |       1.0000 |       1.0000 |       1.0000 |       1.0000 |xxxxxxxxxxxxx |xxxxxxxxxxxxx |xxxxxxxxxxxxx |       1.0000 |       1.0000 |       1.0000 |       1.0000 |

Command list: 
	sslittle-na-sstrix-gcc -Wall -O3 -funroll-loops -finline-functions  -DRANDOM_SIZE=4096 -DOFFSET=8 -DSORT=algorithm_s sorts/algorithm_s827516529.c simpleMain.c -o algorithm_s1464405511
	sim-cache -cache:dl1 dl1:256:32:1:l -cache:dl2 dl2:131072:32:1:l -cache:il1 il1:256:32:1:l -cache:il2 dl2 algorithm_s1464405511
	sim-cache -cache:dl1 dl1:256:32:1:l -cache:dl2 dl2:65536:32:1:l -cache:il1 il1:256:32:1:l -cache:il2 dl2 algorithm_s1464405511
	sim-cache -cache:dl1 dl1:1:32:256:l -cache:dl2 dl2:1:32:131072:l -cache:il1 il1:1:32:256:l -cache:il2 dl2 algorithm_s1464405511
	sim-cache -cache:dl1 dl1:1:32:256:l -cache:dl2 dl2:1:32:65536:l -cache:il1 il1:1:32:256:l -cache:il2 dl2 algorithm_s1464405511
	sim-bpred -bpred bimod -bpred:bimod 512 algorithm_s1464405511
	sim-bpred -bpred bimod -bpred:bimod 1024 algorithm_s1464405511
	sim-bpred -bpred bimod -bpred:bimod 2048 algorithm_s1464405511
	sim-bpred -bpred 2lev -bpred:2lev 1 512 10 1 algorithm_s1464405511
	sim-bpred -bpred 2lev -bpred:2lev 1 1024 10 1 algorithm_s1464405511
	sim-bpred -bpred 2lev -bpred:2lev 1 2048 10 1 algorithm_s1464405511
	sim-bpred -bpred 2lev -bpred:2lev 1 4096 10 1 algorithm_s1464405511
	sslittle-na-sstrix-gcc -Wall -O3 -funroll-loops -finline-functions  -DRANDOM_SIZE=8192 -DOFFSET=8 -DSORT=algorithm_s sorts/algorithm_s827516529.c simpleMain.c -o algorithm_s1464405511
	sim-cache -cache:dl1 dl1:256:32:1:l -cache:dl2 dl2:131072:32:1:l -cache:il1 il1:256:32:1:l -cache:il2 dl2 algorithm_s1464405511
	sim-cache -cache:dl1 dl1:256:32:1:l -cache:dl2 dl2:65536:32:1:l -cache:il1 il1:256:32:1:l -cache:il2 dl2 algorithm_s1464405511
	sim-cache -cache:dl1 dl1:1:32:256:l -cache:dl2 dl2:1:32:131072:l -cache:il1 il1:1:32:256:l -cache:il2 dl2 algorithm_s1464405511
	sim-cache -cache:dl1 dl1:1:32:256:l -cache:dl2 dl2:1:32:65536:l -cache:il1 il1:1:32:256:l -cache:il2 dl2 algorithm_s1464405511
	sim-bpred -bpred bimod -bpred:bimod 512 algorithm_s1464405511
	sim-bpred -bpred bimod -bpred:bimod 1024 algorithm_s1464405511
	sim-bpred -bpred bimod -bpred:bimod 2048 algorithm_s1464405511
	sim-bpred -bpred 2lev -bpred:2lev 1 512 10 1 algorithm_s1464405511
	sim-bpred -bpred 2lev -bpred:2lev 1 1024 10 1 algorithm_s1464405511
	sim-bpred -bpred 2lev -bpred:2lev 1 2048 10 1 algorithm_s1464405511
	sim-bpred -bpred 2lev -bpred:2lev 1 4096 10 1 algorithm_s1464405511
	sslittle-na-sstrix-gcc -Wall -O3 -funroll-loops -finline-functions  -DRANDOM_SIZE=16384 -DOFFSET=8 -DSORT=algorithm_s sorts/algorithm_s827516529.c simpleMain.c -o algorithm_s1464405511
	sim-cache -cache:dl1 dl1:256:32:1:l -cache:dl2 dl2:131072:32:1:l -cache:il1 il1:256:32:1:l -cache:il2 dl2 algorithm_s1464405511
	sim-cache -cache:dl1 dl1:256:32:1:l -cache:dl2 dl2:65536:32:1:l -cache:il1 il1:256:32:1:l -cache:il2 dl2 algorithm_s1464405511
	sim-cache -cache:dl1 dl1:1:32:256:l -cache:dl2 dl2:1:32:131072:l -cache:il1 il1:1:32:256:l -cache:il2 dl2 algorithm_s1464405511
	sim-cache -cache:dl1 dl1:1:32:256:l -cache:dl2 dl2:1:32:65536:l -cache:il1 il1:1:32:256:l -cache:il2 dl2 algorithm_s1464405511
	sim-bpred -bpred bimod -bpred:bimod 512 algorithm_s1464405511
	sim-bpred -bpred bimod -bpred:bimod 1024 algorithm_s1464405511
	sim-bpred -bpred bimod -bpred:bimod 2048 algorithm_s1464405511
	sim-bpred -bpred 2lev -bpred:2lev 1 512 10 1 algorithm_s1464405511
	sim-bpred -bpred 2lev -bpred:2lev 1 1024 10 1 algorithm_s1464405511
	sim-bpred -bpred 2lev -bpred:2lev 1 2048 10 1 algorithm_s1464405511
	sim-bpred -bpred 2lev -bpred:2lev 1 4096 10 1 algorithm_s1464405511
	sslittle-na-sstrix-gcc -Wall -O3 -funroll-loops -finline-functions  -DRANDOM_SIZE=32768 -DOFFSET=8 -DSORT=algorithm_s sorts/algorithm_s827516529.c simpleMain.c -o algorithm_s1464405511
	sim-cache -cache:dl1 dl1:256:32:1:l -cache:dl2 dl2:131072:32:1:l -cache:il1 il1:256:32:1:l -cache:il2 dl2 algorithm_s1464405511
	sim-cache -cache:dl1 dl1:256:32:1:l -cache:dl2 dl2:65536:32:1:l -cache:il1 il1:256:32:1:l -cache:il2 dl2 algorithm_s1464405511
	sim-cache -cache:dl1 dl1:1:32:256:l -cache:dl2 dl2:1:32:131072:l -cache:il1 il1:1:32:256:l -cache:il2 dl2 algorithm_s1464405511
	sim-cache -cache:dl1 dl1:1:32:256:l -cache:dl2 dl2:1:32:65536:l -cache:il1 il1:1:32:256:l -cache:il2 dl2 algorithm_s1464405511
	sim-bpred -bpred bimod -bpred:bimod 512 algorithm_s1464405511
	sim-bpred -bpred bimod -bpred:bimod 1024 algorithm_s1464405511
	sim-bpred -bpred bimod -bpred:bimod 2048 algorithm_s1464405511
	sim-bpred -bpred 2lev -bpred:2lev 1 512 10 1 algorithm_s1464405511
	sim-bpred -bpred 2lev -bpred:2lev 1 1024 10 1 algorithm_s1464405511
	sim-bpred -bpred 2lev -bpred:2lev 1 2048 10 1 algorithm_s1464405511
	sim-bpred -bpred 2lev -bpred:2lev 1 4096 10 1 algorithm_s1464405511
	sslittle-na-sstrix-gcc -Wall -O3 -funroll-loops -finline-functions  -DRANDOM_SIZE=65536 -DOFFSET=8 -DSORT=algorithm_s sorts/algorithm_s827516529.c simpleMain.c -o algorithm_s1464405511
	sim-cache -cache:dl1 dl1:256:32:1:l -cache:dl2 dl2:131072:32:1:l -cache:il1 il1:256:32:1:l -cache:il2 dl2 algorithm_s1464405511
	sim-cache -cache:dl1 dl1:256:32:1:l -cache:dl2 dl2:65536:32:1:l -cache:il1 il1:256:32:1:l -cache:il2 dl2 algorithm_s1464405511
	sim-cache -cache:dl1 dl1:1:32:256:l -cache:dl2 dl2:1:32:131072:l -cache:il1 il1:1:32:256:l -cache:il2 dl2 algorithm_s1464405511
	sim-cache -cache:dl1 dl1:1:32:256:l -cache:dl2 dl2:1:32:65536:l -cache:il1 il1:1:32:256:l -cache:il2 dl2 algorithm_s1464405511
	sim-bpred -bpred bimod -bpred:bimod 512 algorithm_s1464405511
	sim-bpred -bpred bimod -bpred:bimod 1024 algorithm_s1464405511
	sim-bpred -bpred bimod -bpred:bimod 2048 algorithm_s1464405511
	sim-bpred -bpred 2lev -bpred:2lev 1 512 10 1 algorithm_s1464405511
	sim-bpred -bpred 2lev -bpred:2lev 1 1024 10 1 algorithm_s1464405511
	sim-bpred -bpred 2lev -bpred:2lev 1 2048 10 1 algorithm_s1464405511
	sim-bpred -bpred 2lev -bpred:2lev 1 4096 10 1 algorithm_s1464405511
	sslittle-na-sstrix-gcc -Wall -O3 -funroll-loops -finline-functions  -DRANDOM_SIZE=131072 -DOFFSET=8 -DSORT=algorithm_s sorts/algorithm_s827516529.c simpleMain.c -o algorithm_s1464405511
	sim-cache -cache:dl1 dl1:256:32:1:l -cache:dl2 dl2:131072:32:1:l -cache:il1 il1:256:32:1:l -cache:il2 dl2 algorithm_s1464405511
	sim-cache -cache:dl1 dl1:256:32:1:l -cache:dl2 dl2:65536:32:1:l -cache:il1 il1:256:32:1:l -cache:il2 dl2 algorithm_s1464405511
	sim-cache -cache:dl1 dl1:1:32:256:l -cache:dl2 dl2:1:32:131072:l -cache:il1 il1:1:32:256:l -cache:il2 dl2 algorithm_s1464405511
	sim-cache -cache:dl1 dl1:1:32:256:l -cache:dl2 dl2:1:32:65536:l -cache:il1 il1:1:32:256:l -cache:il2 dl2 algorithm_s1464405511
	sim-bpred -bpred bimod -bpred:bimod 512 algorithm_s1464405511
	sim-bpred -bpred bimod -bpred:bimod 1024 algorithm_s1464405511
	sim-bpred -bpred bimod -bpred:bimod 2048 algorithm_s1464405511
	sim-bpred -bpred 2lev -bpred:2lev 1 512 10 1 algorithm_s1464405511
	sim-bpred -bpred 2lev -bpred:2lev 1 1024 10 1 algorithm_s1464405511
	sim-bpred -bpred 2lev -bpred:2lev 1 2048 10 1 algorithm_s1464405511
	sim-bpred -bpred 2lev -bpred:2lev 1 4096 10 1 algorithm_s1464405511
	sslittle-na-sstrix-gcc -Wall -O3 -funroll-loops -finline-functions  -DRANDOM_SIZE=262144 -DOFFSET=8 -DSORT=algorithm_s sorts/algorithm_s827516529.c simpleMain.c -o algorithm_s1464405511
	sim-cache -cache:dl1 dl1:256:32:1:l -cache:dl2 dl2:131072:32:1:l -cache:il1 il1:256:32:1:l -cache:il2 dl2 algorithm_s1464405511
	sim-cache -cache:dl1 dl1:256:32:1:l -cache:dl2 dl2:65536:32:1:l -cache:il1 il1:256:32:1:l -cache:il2 dl2 algorithm_s1464405511
	sim-cache -cache:dl1 dl1:1:32:256:l -cache:dl2 dl2:1:32:131072:l -cache:il1 il1:1:32:256:l -cache:il2 dl2 algorithm_s1464405511
	sim-cache -cache:dl1 dl1:1:32:256:l -cache:dl2 dl2:1:32:65536:l -cache:il1 il1:1:32:256:l -cache:il2 dl2 algorithm_s1464405511
	sim-bpred -bpred bimod -bpred:bimod 512 algorithm_s1464405511
	sim-bpred -bpred bimod -bpred:bimod 1024 algorithm_s1464405511
	sim-bpred -bpred bimod -bpred:bimod 2048 algorithm_s1464405511
	sim-bpred -bpred 2lev -bpred:2lev 1 512 10 1 algorithm_s1464405511
	sim-bpred -bpred 2lev -bpred:2lev 1 1024 10 1 algorithm_s1464405511
	sim-bpred -bpred 2lev -bpred:2lev 1 2048 10 1 algorithm_s1464405511
	sim-bpred -bpred 2lev -bpred:2lev 1 4096 10 1 algorithm_s1464405511
	sslittle-na-sstrix-gcc -Wall -O3 -funroll-loops -finline-functions  -DRANDOM_SIZE=524288 -DOFFSET=8 -DSORT=algorithm_s sorts/algorithm_s827516529.c simpleMain.c -o algorithm_s1464405511
	sim-cache -cache:dl1 dl1:256:32:1:l -cache:dl2 dl2:131072:32:1:l -cache:il1 il1:256:32:1:l -cache:il2 dl2 algorithm_s1464405511
	sim-cache -cache:dl1 dl1:256:32:1:l -cache:dl2 dl2:65536:32:1:l -cache:il1 il1:256:32:1:l -cache:il2 dl2 algorithm_s1464405511
	sim-cache -cache:dl1 dl1:1:32:256:l -cache:dl2 dl2:1:32:131072:l -cache:il1 il1:1:32:256:l -cache:il2 dl2 algorithm_s1464405511
	sim-cache -cache:dl1 dl1:1:32:256:l -cache:dl2 dl2:1:32:65536:l -cache:il1 il1:1:32:256:l -cache:il2 dl2 algorithm_s1464405511
	sim-bpred -bpred bimod -bpred:bimod 512 algorithm_s1464405511
	sim-bpred -bpred bimod -bpred:bimod 1024 algorithm_s1464405511
	sim-bpred -bpred bimod -bpred:bimod 2048 algorithm_s1464405511
	sim-bpred -bpred 2lev -bpred:2lev 1 512 10 1 algorithm_s1464405511
	sim-bpred -bpred 2lev -bpred:2lev 1 1024 10 1 algorithm_s1464405511
	sim-bpred -bpred 2lev -bpred:2lev 1 2048 10 1 algorithm_s1464405511
	sim-bpred -bpred 2lev -bpred:2lev 1 4096 10 1 algorithm_s1464405511
	sslittle-na-sstrix-gcc -Wall -O3 -funroll-loops -finline-functions  -DRANDOM_SIZE=1048576 -DOFFSET=8 -DSORT=algorithm_s sorts/algorithm_s827516529.c simpleMain.c -o algorithm_s1464405511
	sim-cache -cache:dl1 dl1:256:32:1:l -cache:dl2 dl2:131072:32:1:l -cache:il1 il1:256:32:1:l -cache:il2 dl2 algorithm_s1464405511
	sim-cache -cache:dl1 dl1:256:32:1:l -cache:dl2 dl2:65536:32:1:l -cache:il1 il1:256:32:1:l -cache:il2 dl2 algorithm_s1464405511
	sim-cache -cache:dl1 dl1:1:32:256:l -cache:dl2 dl2:1:32:131072:l -cache:il1 il1:1:32:256:l -cache:il2 dl2 algorithm_s1464405511
	sim-cache -cache:dl1 dl1:1:32:256:l -cache:dl2 dl2:1:32:65536:l -cache:il1 il1:1:32:256:l -cache:il2 dl2 algorithm_s1464405511
	sim-bpred -bpred bimod -bpred:bimod 512 algorithm_s1464405511
	sim-bpred -bpred bimod -bpred:bimod 1024 algorithm_s1464405511
	sim-bpred -bpred bimod -bpred:bimod 2048 algorithm_s1464405511
	sim-bpred -bpred 2lev -bpred:2lev 1 512 10 1 algorithm_s1464405511
	sim-bpred -bpred 2lev -bpred:2lev 1 1024 10 1 algorithm_s1464405511
	sim-bpred -bpred 2lev -bpred:2lev 1 2048 10 1 algorithm_s1464405511
	sim-bpred -bpred 2lev -bpred:2lev 1 4096 10 1 algorithm_s1464405511
	sslittle-na-sstrix-gcc -Wall -O3 -funroll-loops -finline-functions  -DRANDOM_SIZE=2097152 -DOFFSET=8 -DSORT=algorithm_s sorts/algorithm_s827516529.c simpleMain.c -o algorithm_s1464405511
	sim-cache -cache:dl1 dl1:256:32:1:l -cache:dl2 dl2:131072:32:1:l -cache:il1 il1:256:32:1:l -cache:il2 dl2 algorithm_s1464405511
	sim-cache -cache:dl1 dl1:256:32:1:l -cache:dl2 dl2:65536:32:1:l -cache:il1 il1:256:32:1:l -cache:il2 dl2 algorithm_s1464405511
	sim-cache -cache:dl1 dl1:1:32:256:l -cache:dl2 dl2:1:32:131072:l -cache:il1 il1:1:32:256:l -cache:il2 dl2 algorithm_s1464405511
	sim-cache -cache:dl1 dl1:1:32:256:l -cache:dl2 dl2:1:32:65536:l -cache:il1 il1:1:32:256:l -cache:il2 dl2 algorithm_s1464405511
	sim-bpred -bpred bimod -bpred:bimod 512 algorithm_s1464405511
	sim-bpred -bpred bimod -bpred:bimod 1024 algorithm_s1464405511
	sim-bpred -bpred bimod -bpred:bimod 2048 algorithm_s1464405511
	sim-bpred -bpred 2lev -bpred:2lev 1 512 10 1 algorithm_s1464405511
	sim-bpred -bpred 2lev -bpred:2lev 1 1024 10 1 algorithm_s1464405511
	sim-bpred -bpred 2lev -bpred:2lev 1 2048 10 1 algorithm_s1464405511
	sim-bpred -bpred 2lev -bpred:2lev 1 4096 10 1 algorithm_s1464405511
	sslittle-na-sstrix-gcc -Wall -O3 -funroll-loops -finline-functions  -DRANDOM_SIZE=4194304 -DOFFSET=8 -DSORT=algorithm_s sorts/algorithm_s827516529.c simpleMain.c -o algorithm_s1464405511
	sim-cache -cache:dl1 dl1:256:32:1:l -cache:dl2 dl2:131072:32:1:l -cache:il1 il1:256:32:1:l -cache:il2 dl2 algorithm_s1464405511
	sim-cache -cache:dl1 dl1:256:32:1:l -cache:dl2 dl2:65536:32:1:l -cache:il1 il1:256:32:1:l -cache:il2 dl2 algorithm_s1464405511
	sim-cache -cache:dl1 dl1:1:32:256:l -cache:dl2 dl2:1:32:131072:l -cache:il1 il1:1:32:256:l -cache:il2 dl2 algorithm_s1464405511
	sim-cache -cache:dl1 dl1:1:32:256:l -cache:dl2 dl2:1:32:65536:l -cache:il1 il1:1:32:256:l -cache:il2 dl2 algorithm_s1464405511
	sim-bpred -bpred bimod -bpred:bimod 512 algorithm_s1464405511
	sim-bpred -bpred bimod -bpred:bimod 1024 algorithm_s1464405511
	sim-bpred -bpred bimod -bpred:bimod 2048 algorithm_s1464405511
	sim-bpred -bpred 2lev -bpred:2lev 1 512 10 1 algorithm_s1464405511
	sim-bpred -bpred 2lev -bpred:2lev 1 1024 10 1 algorithm_s1464405511
	sim-bpred -bpred 2lev -bpred:2lev 1 2048 10 1 algorithm_s1464405511
	sim-bpred -bpred 2lev -bpred:2lev 1 4096 10 1 algorithm_s1464405511
