Tue Jul 19 16:07:37 2005
Run as: "./do_simple -c random.org6 -o 6 algorithm_n"
-------------------------------------------------------------------------------------------------
sim-cache                                     4096 |         4096 |         4096 |         4096 |         8192 |         8192 |         8192 |         8192 |        16384 |        16384 |        16384 |        16384 |        32768 |        32768 |        32768 |        32768 |        65536 |        65536 |        65536 |        65536 |       131072 |       131072 |       131072 |       131072 |       262144 |       262144 |       262144 |       262144 |       524288 |       524288 |       524288 |       524288 |      1048576 |      1048576 |      1048576 |      1048576 |      2097152 |      2097152 |      2097152 |      2097152 |      4194304 |      4194304 |      4194304 |      4194304 |
-cache:dl1 dl1:256:32:1:l -cache:dl2 dl2:131072:32:1:l -cache:il1 il1:256:32:1:l -cache:il2 dl2
-cache:dl1 dl1:256:32:1:l -cache:dl2 dl2:65536:32:1:l -cache:il1 il1:256:32:1:l -cache:il2 dl2
-cache:dl1 dl1:1:32:256:l -cache:dl2 dl2:1:32:131072:l -cache:il1 il1:1:32:256:l -cache:il2 dl2
-cache:dl1 dl1:1:32:256:l -cache:dl2 dl2:1:32:65536:l -cache:il1 il1:1:32:256:l -cache:il2 dl2
-------------------------------------------------------------------------------------------------
sim_num_insn                                891474 |       891474 |       891474 |       891474 |      1916353 |      1916353 |      1916353 |      1916353 |      4187197 |      4187197 |      4187197 |      4187197 |      8923769 |      8923769 |      8923769 |      8923769 |     19281344 |     19281344 |     19281344 |     19281344 |     40785209 |     40785209 |     40785209 |     40785209 |     87331699 |     87331699 |     87331699 |     87331699 |    183570310 |    183570310 |    183570310 |    183570310 |    390203696 |    390203696 |    390203696 |    390203696 |    816069591 |    816069591 |    816069591 |    816069591 |   1724391198 |   1724391198 |   1724391198 |   1724391198 |
sim_num_refs                                234090 |       234090 |       234090 |       234090 |       489105 |       489105 |       489105 |       489105 |      1089293 |      1089293 |      1089293 |      1089293 |      2272812 |      2272812 |      2272812 |      2272812 |      5000556 |      5000556 |      5000556 |      5000556 |     10390242 |     10390242 |     10390242 |     10390242 |     22612415 |     22612415 |     22612415 |     22612415 |     46793629 |     46793629 |     46793629 |     46793629 |    100931421 |    100931421 |    100931421 |    100931421 |    208149635 |    208149635 |    208149635 |    208149635 |    445651348 |    445651348 |    445651348 |    445651348 |
sim_elapsed_time                                 1 |            1 |           10 |            4 |            1 |            1 |           14 |            8 |            1 |            1 |           26 |           13 |            2 |            3 |           47 |           24 |            5 |            5 |           87 |           44 |           11 |           11 |          161 |           76 |           23 |           23 |          280 |          109 |           48 |           49 |          389 |          138 |          104 |          104 |          453 |          201 |          216 |          216 |          580 |          327 |          458 |          457 |          854 |          600 |
sim_inst_rate                          891474.0000 |  891474.0000 |   89147.4000 |  222868.5000 | 1916353.0000 | 1916353.0000 |  136882.3571 |  239544.1250 | 4187197.0000 | 4187197.0000 |  161046.0385 |  322092.0769 | 4461884.5000 | 2974589.6667 |  189867.4255 |  371823.7083 | 3856268.8000 | 3856268.8000 |  221624.6437 |  438212.3636 | 3707746.2727 | 3707746.2727 |  253324.2795 |  536647.4868 | 3797030.3913 | 3797030.3913 |  311898.9250 |  801208.2477 | 3824381.4583 | 3746332.8571 |  471903.1105 | 1330219.6377 | 3751958.6154 | 3751958.6154 |  861376.8124 | 1941311.9204 | 3778099.9583 | 3778099.9583 | 1407016.5362 | 2495625.6606 | 3765046.2838 | 3773284.8972 | 2019193.4403 | 2873985.3300 |
il1.accesses                                891474 |       891474 |       891474 |       891474 |      1916353 |      1916353 |      1916353 |      1916353 |      4187197 |      4187197 |      4187197 |      4187197 |      8923769 |      8923769 |      8923769 |      8923769 |     19281344 |     19281344 |     19281344 |     19281344 |     40785209 |     40785209 |     40785209 |     40785209 |     87331699 |     87331699 |     87331699 |     87331699 |    183570310 |    183570310 |    183570310 |    183570310 |    390203696 |    390203696 |    390203696 |    390203696 |    816069591 |    816069591 |    816069591 |    816069591 |   1724391198 |   1724391198 |   1724391198 |   1724391198 |
il1.hits                                    891041 |       891041 |       891106 |       891106 |      1915909 |      1915909 |      1916018 |      1916018 |      4186740 |      4186740 |      4186837 |      4186837 |      8923322 |      8923322 |      8923432 |      8923432 |     19280874 |     19280874 |     19280984 |     19280984 |     40784763 |     40784763 |     40784872 |     40784872 |     87331230 |     87331230 |     87331339 |     87331339 |    183569864 |    183569864 |    183569973 |    183569973 |    390203219 |    390203219 |    390203296 |    390203296 |    816069121 |    816069121 |    816069195 |    816069195 |   1724390721 |   1724390721 |   1724390798 |   1724390798 |
il1.misses                                     433 |          433 |          368 |          368 |          444 |          444 |          335 |          335 |          457 |          457 |          360 |          360 |          447 |          447 |          337 |          337 |          470 |          470 |          360 |          360 |          446 |          446 |          337 |          337 |          469 |          469 |          360 |          360 |          446 |          446 |          337 |          337 |          477 |          477 |          400 |          400 |          470 |          470 |          396 |          396 |          477 |          477 |          400 |          400 |
il1.replacements                               226 |          226 |          112 |          112 |          262 |          262 |           79 |           79 |          256 |          256 |          104 |          104 |          265 |          265 |           81 |           81 |          269 |          269 |          104 |          104 |          264 |          264 |           81 |           81 |          268 |          268 |          104 |          104 |          264 |          264 |           81 |           81 |          256 |          256 |          144 |          144 |          249 |          249 |          140 |          140 |          256 |          256 |          144 |          144 |
il1.writebacks                                   0 |            0 |            0 |            0 |            0 |            0 |            0 |            0 |            0 |            0 |            0 |            0 |            0 |            0 |            0 |            0 |            0 |            0 |            0 |            0 |            0 |            0 |            0 |            0 |            0 |            0 |            0 |            0 |            0 |            0 |            0 |            0 |            0 |            0 |            0 |            0 |            0 |            0 |            0 |            0 |            0 |            0 |            0 |            0 |
il1.invalidations                                0 |            0 |            0 |            0 |            0 |            0 |            0 |            0 |            0 |            0 |            0 |            0 |            0 |            0 |            0 |            0 |            0 |            0 |            0 |            0 |            0 |            0 |            0 |            0 |            0 |            0 |            0 |            0 |            0 |            0 |            0 |            0 |            0 |            0 |            0 |            0 |            0 |            0 |            0 |            0 |            0 |            0 |            0 |            0 |
il1.miss_rate                               0.0005 |       0.0005 |       0.0004 |       0.0004 |       0.0002 |       0.0002 |       0.0002 |       0.0002 |       0.0001 |       0.0001 |       0.0001 |       0.0001 |       0.0001 |       0.0001 |       0.0000 |       0.0000 |       0.0000 |       0.0000 |       0.0000 |       0.0000 |       0.0000 |       0.0000 |       0.0000 |       0.0000 |       0.0000 |       0.0000 |       0.0000 |       0.0000 |       0.0000 |       0.0000 |       0.0000 |       0.0000 |       0.0000 |       0.0000 |       0.0000 |       0.0000 |       0.0000 |       0.0000 |       0.0000 |       0.0000 |       0.0000 |       0.0000 |       0.0000 |       0.0000 |
il1.repl_rate                               0.0003 |       0.0003 |       0.0001 |       0.0001 |       0.0001 |       0.0001 |       0.0000 |       0.0000 |       0.0001 |       0.0001 |       0.0000 |       0.0000 |       0.0000 |       0.0000 |       0.0000 |       0.0000 |       0.0000 |       0.0000 |       0.0000 |       0.0000 |       0.0000 |       0.0000 |       0.0000 |       0.0000 |       0.0000 |       0.0000 |       0.0000 |       0.0000 |       0.0000 |       0.0000 |       0.0000 |       0.0000 |       0.0000 |       0.0000 |       0.0000 |       0.0000 |       0.0000 |       0.0000 |       0.0000 |       0.0000 |       0.0000 |       0.0000 |       0.0000 |       0.0000 |
il1.wb_rate                                 0.0000 |       0.0000 |       0.0000 |       0.0000 |       0.0000 |       0.0000 |       0.0000 |       0.0000 |       0.0000 |       0.0000 |       0.0000 |       0.0000 |       0.0000 |       0.0000 |       0.0000 |       0.0000 |       0.0000 |       0.0000 |       0.0000 |       0.0000 |       0.0000 |       0.0000 |       0.0000 |       0.0000 |       0.0000 |       0.0000 |       0.0000 |       0.0000 |       0.0000 |       0.0000 |       0.0000 |       0.0000 |       0.0000 |       0.0000 |       0.0000 |       0.0000 |       0.0000 |       0.0000 |       0.0000 |       0.0000 |       0.0000 |       0.0000 |       0.0000 |       0.0000 |
il1.inv_rate                                0.0000 |       0.0000 |       0.0000 |       0.0000 |       0.0000 |       0.0000 |       0.0000 |       0.0000 |       0.0000 |       0.0000 |       0.0000 |       0.0000 |       0.0000 |       0.0000 |       0.0000 |       0.0000 |       0.0000 |       0.0000 |       0.0000 |       0.0000 |       0.0000 |       0.0000 |       0.0000 |       0.0000 |       0.0000 |       0.0000 |       0.0000 |       0.0000 |       0.0000 |       0.0000 |       0.0000 |       0.0000 |       0.0000 |       0.0000 |       0.0000 |       0.0000 |       0.0000 |       0.0000 |       0.0000 |       0.0000 |       0.0000 |       0.0000 |       0.0000 |       0.0000 |
dl1.accesses                                250556 |       250556 |       250556 |       250556 |       521955 |       521955 |       521955 |       521955 |      1154911 |      1154911 |      1154911 |      1154911 |      2403966 |      2403966 |      2403966 |      2403966 |      5262782 |      5262782 |      5262782 |      5262782 |     10914612 |     10914612 |     10914612 |     10914612 |     23661073 |     23661073 |     23661073 |     23661073 |     48890863 |     48890863 |     48890863 |     48890863 |    105125807 |    105125807 |    105125807 |    105125807 |    216538325 |    216538325 |    216538325 |    216538325 |    462428646 |    462428646 |    462428646 |    462428646 |
dl1.hits                                    236703 |       236703 |       237292 |       237292 |       494272 |       494272 |       495885 |       495885 |      1091632 |      1091632 |      1095036 |      1095036 |      2276371 |      2276371 |      2284674 |      2284674 |      4973048 |      4973048 |      4991881 |      4991881 |     10333785 |     10333785 |     10373268 |     10373268 |     22359263 |     22359263 |     22447763 |     22447763 |     46284317 |     46284317 |     46464737 |     46464737 |     99345875 |     99345875 |     99748516 |     99748516 |    204944707 |    204944707 |    205784577 |    205784577 |    436984868 |    436984868 |    438824977 |    438824977 |
dl1.misses                                   13853 |        13853 |        13264 |        13264 |        27683 |        27683 |        26070 |        26070 |        63279 |        63279 |        59875 |        59875 |       127595 |       127595 |       119292 |       119292 |       289734 |       289734 |       270901 |       270901 |       580827 |       580827 |       541344 |       541344 |      1301810 |      1301810 |      1213310 |      1213310 |      2606546 |      2606546 |      2426126 |      2426126 |      5779932 |      5779932 |      5377291 |      5377291 |     11593618 |     11593618 |     10753748 |     10753748 |     25443778 |     25443778 |     23603669 |     23603669 |
dl1.replacements                             13597 |        13597 |        13008 |        13008 |        27427 |        27427 |        25814 |        25814 |        63023 |        63023 |        59619 |        59619 |       127339 |       127339 |       119036 |       119036 |       289478 |       289478 |       270645 |       270645 |       580571 |       580571 |       541088 |       541088 |      1301554 |      1301554 |      1213054 |      1213054 |      2606290 |      2606290 |      2425870 |      2425870 |      5779676 |      5779676 |      5377035 |      5377035 |     11593362 |     11593362 |     10753492 |     10753492 |     25443522 |     25443522 |     23603413 |     23603413 |
dl1.writebacks                                7159 |         7159 |         6962 |         6962 |        14167 |        14167 |        13624 |        13624 |        32053 |        32053 |        31043 |        31043 |        64220 |        64220 |        61789 |        61789 |       145113 |       145113 |       139668 |       139668 |       290469 |       290469 |       279040 |       279040 |       649231 |       649231 |       623324 |       623324 |      1298859 |      1298859 |      1246317 |      1246317 |      2875285 |      2875285 |      2755301 |      2755301 |      5758348 |      5758348 |      5510319 |      5510319 |     12624666 |     12624666 |     12068782 |     12068782 |
dl1.invalidations                                0 |            0 |            0 |            0 |            0 |            0 |            0 |            0 |            0 |            0 |            0 |            0 |            0 |            0 |            0 |            0 |            0 |            0 |            0 |            0 |            0 |            0 |            0 |            0 |            0 |            0 |            0 |            0 |            0 |            0 |            0 |            0 |            0 |            0 |            0 |            0 |            0 |            0 |            0 |            0 |            0 |            0 |            0 |            0 |
dl1.miss_rate                               0.0553 |       0.0553 |       0.0529 |       0.0529 |       0.0530 |       0.0530 |       0.0499 |       0.0499 |       0.0548 |       0.0548 |       0.0518 |       0.0518 |       0.0531 |       0.0531 |       0.0496 |       0.0496 |       0.0551 |       0.0551 |       0.0515 |       0.0515 |       0.0532 |       0.0532 |       0.0496 |       0.0496 |       0.0550 |       0.0550 |       0.0513 |       0.0513 |       0.0533 |       0.0533 |       0.0496 |       0.0496 |       0.0550 |       0.0550 |       0.0512 |       0.0512 |       0.0535 |       0.0535 |       0.0497 |       0.0497 |       0.0550 |       0.0550 |       0.0510 |       0.0510 |
dl1.repl_rate                               0.0543 |       0.0543 |       0.0519 |       0.0519 |       0.0525 |       0.0525 |       0.0495 |       0.0495 |       0.0546 |       0.0546 |       0.0516 |       0.0516 |       0.0530 |       0.0530 |       0.0495 |       0.0495 |       0.0550 |       0.0550 |       0.0514 |       0.0514 |       0.0532 |       0.0532 |       0.0496 |       0.0496 |       0.0550 |       0.0550 |       0.0513 |       0.0513 |       0.0533 |       0.0533 |       0.0496 |       0.0496 |       0.0550 |       0.0550 |       0.0511 |       0.0511 |       0.0535 |       0.0535 |       0.0497 |       0.0497 |       0.0550 |       0.0550 |       0.0510 |       0.0510 |
dl1.wb_rate                                 0.0286 |       0.0286 |       0.0278 |       0.0278 |       0.0271 |       0.0271 |       0.0261 |       0.0261 |       0.0278 |       0.0278 |       0.0269 |       0.0269 |       0.0267 |       0.0267 |       0.0257 |       0.0257 |       0.0276 |       0.0276 |       0.0265 |       0.0265 |       0.0266 |       0.0266 |       0.0256 |       0.0256 |       0.0274 |       0.0274 |       0.0263 |       0.0263 |       0.0266 |       0.0266 |       0.0255 |       0.0255 |       0.0274 |       0.0274 |       0.0262 |       0.0262 |       0.0266 |       0.0266 |       0.0254 |       0.0254 |       0.0273 |       0.0273 |       0.0261 |       0.0261 |
dl1.inv_rate                                0.0000 |       0.0000 |       0.0000 |       0.0000 |       0.0000 |       0.0000 |       0.0000 |       0.0000 |       0.0000 |       0.0000 |       0.0000 |       0.0000 |       0.0000 |       0.0000 |       0.0000 |       0.0000 |       0.0000 |       0.0000 |       0.0000 |       0.0000 |       0.0000 |       0.0000 |       0.0000 |       0.0000 |       0.0000 |       0.0000 |       0.0000 |       0.0000 |       0.0000 |       0.0000 |       0.0000 |       0.0000 |       0.0000 |       0.0000 |       0.0000 |       0.0000 |       0.0000 |       0.0000 |       0.0000 |       0.0000 |       0.0000 |       0.0000 |       0.0000 |       0.0000 |
dl2.accesses                                 21445 |        21445 |        20594 |        20594 |        42294 |        42294 |        40029 |        40029 |        95789 |        95789 |        91278 |        91278 |       192262 |       192262 |       181418 |       181418 |       435317 |       435317 |       410929 |       410929 |       871742 |       871742 |       820721 |       820721 |      1951510 |      1951510 |      1836994 |      1836994 |      3905851 |      3905851 |      3672780 |      3672780 |      8655694 |      8655694 |      8132992 |      8132992 |     17352436 |     17352436 |     16264463 |     16264463 |     38068921 |     38068921 |     35672851 |     35672851 |
dl2.hits                                     19623 |        19623 |        18790 |        18790 |        39475 |        39475 |        37235 |        37235 |        90893 |        90893 |        86409 |        86409 |       183297 |       183297 |       172478 |       172478 |       418137 |       418137 |       393773 |       393773 |       838202 |       838202 |       787205 |       787205 |      1885177 |      1829772 |      1770686 |      1534958 |      3719203 |      1700949 |      3043262 |      1263911 |      3887223 |      3321491 |      2790710 |      2773434 |      6681560 |      6628924 |      5546402 |      5530001 |     14528770 |     14493108 |     12107815 |     12091416 |
dl2.misses                                    1822 |         1822 |         1804 |         1804 |         2819 |         2819 |         2794 |         2794 |         4896 |         4896 |         4869 |         4869 |         8965 |         8965 |         8940 |         8940 |        17180 |        17180 |        17156 |        17156 |        33540 |        33540 |        33516 |        33516 |        66333 |       121738 |        66308 |       302036 |       186648 |      2204902 |       629518 |      2408869 |      4768471 |      5334203 |      5342282 |      5359558 |     10670876 |     10723512 |     10718061 |     10734462 |     23540151 |     23575813 |     23565036 |     23581435 |
dl2.replacements                               195 |          195 |            0 |            0 |          204 |          204 |            0 |            0 |          239 |          239 |            0 |            0 |          224 |          224 |            0 |            0 |          232 |          232 |            0 |            0 |          223 |          223 |            0 |            0 |          233 |        57309 |            0 |       236500 |        56698 |      2139366 |       498446 |      2343333 |      4637399 |      5268667 |      5211210 |      5294022 |     10539804 |     10657976 |     10586989 |     10668926 |     23409079 |     23510277 |     23433964 |     23515899 |
dl2.writebacks                                 122 |          122 |            0 |            0 |          128 |          128 |            0 |            0 |          160 |          160 |            0 |            0 |          147 |          147 |            0 |            0 |          156 |          156 |            0 |            0 |          147 |          147 |            0 |            0 |          156 |        31890 |            0 |       235678 |        31319 |      1223470 |       497793 |      1212863 |      2625120 |      2690799 |      2688190 |      2720960 |      5423078 |      5467368 |      5441470 |      5474244 |     11936181 |     12002490 |     11996617 |     12029398 |
dl2.invalidations                                0 |            0 |            0 |            0 |            0 |            0 |            0 |            0 |            0 |            0 |            0 |            0 |            0 |            0 |            0 |            0 |            0 |            0 |            0 |            0 |            0 |            0 |            0 |            0 |            0 |            0 |            0 |            0 |            0 |            0 |            0 |            0 |            0 |            0 |            0 |            0 |            0 |            0 |            0 |            0 |            0 |            0 |            0 |            0 |
dl2.miss_rate                               0.0850 |       0.0850 |       0.0876 |       0.0876 |       0.0667 |       0.0667 |       0.0698 |       0.0698 |       0.0511 |       0.0511 |       0.0533 |       0.0533 |       0.0466 |       0.0466 |       0.0493 |       0.0493 |       0.0395 |       0.0395 |       0.0417 |       0.0417 |       0.0385 |       0.0385 |       0.0408 |       0.0408 |       0.0340 |       0.0624 |       0.0361 |       0.1644 |       0.0478 |       0.5645 |       0.1714 |       0.6559 |       0.5509 |       0.6163 |       0.6569 |       0.6590 |       0.6149 |       0.6180 |       0.6590 |       0.6600 |       0.6184 |       0.6193 |       0.6606 |       0.6610 |
dl2.repl_rate                               0.0091 |       0.0091 |       0.0000 |       0.0000 |       0.0048 |       0.0048 |       0.0000 |       0.0000 |       0.0025 |       0.0025 |       0.0000 |       0.0000 |       0.0012 |       0.0012 |       0.0000 |       0.0000 |       0.0005 |       0.0005 |       0.0000 |       0.0000 |       0.0003 |       0.0003 |       0.0000 |       0.0000 |       0.0001 |       0.0294 |       0.0000 |       0.1287 |       0.0145 |       0.5477 |       0.1357 |       0.6380 |       0.5358 |       0.6087 |       0.6407 |       0.6509 |       0.6074 |       0.6142 |       0.6509 |       0.6560 |       0.6149 |       0.6176 |       0.6569 |       0.6592 |
dl2.wb_rate                                 0.0057 |       0.0057 |       0.0000 |       0.0000 |       0.0030 |       0.0030 |       0.0000 |       0.0000 |       0.0017 |       0.0017 |       0.0000 |       0.0000 |       0.0008 |       0.0008 |       0.0000 |       0.0000 |       0.0004 |       0.0004 |       0.0000 |       0.0000 |       0.0002 |       0.0002 |       0.0000 |       0.0000 |       0.0001 |       0.0163 |       0.0000 |       0.1283 |       0.0080 |       0.3132 |       0.1355 |       0.3302 |       0.3033 |       0.3109 |       0.3305 |       0.3346 |       0.3125 |       0.3151 |       0.3346 |       0.3366 |       0.3135 |       0.3153 |       0.3363 |       0.3372 |
dl2.inv_rate                                0.0000 |       0.0000 |       0.0000 |       0.0000 |       0.0000 |       0.0000 |       0.0000 |       0.0000 |       0.0000 |       0.0000 |       0.0000 |       0.0000 |       0.0000 |       0.0000 |       0.0000 |       0.0000 |       0.0000 |       0.0000 |       0.0000 |       0.0000 |       0.0000 |       0.0000 |       0.0000 |       0.0000 |       0.0000 |       0.0000 |       0.0000 |       0.0000 |       0.0000 |       0.0000 |       0.0000 |       0.0000 |       0.0000 |       0.0000 |       0.0000 |       0.0000 |       0.0000 |       0.0000 |       0.0000 |       0.0000 |       0.0000 |       0.0000 |       0.0000 |       0.0000 |
itlb.accesses                               891474 |       891474 |       891474 |       891474 |      1916353 |      1916353 |      1916353 |      1916353 |      4187197 |      4187197 |      4187197 |      4187197 |      8923769 |      8923769 |      8923769 |      8923769 |     19281344 |     19281344 |     19281344 |     19281344 |     40785209 |     40785209 |     40785209 |     40785209 |     87331699 |     87331699 |     87331699 |     87331699 |    183570310 |    183570310 |    183570310 |    183570310 |    390203696 |    390203696 |    390203696 |    390203696 |    816069591 |    816069591 |    816069591 |    816069591 |   1724391198 |   1724391198 |   1724391198 |   1724391198 |
itlb.hits                                   891465 |       891465 |       891465 |       891465 |      1916344 |      1916344 |      1916344 |      1916344 |      4187188 |      4187188 |      4187188 |      4187188 |      8923760 |      8923760 |      8923760 |      8923760 |     19281335 |     19281335 |     19281335 |     19281335 |     40785200 |     40785200 |     40785200 |     40785200 |     87331690 |     87331690 |     87331690 |     87331690 |    183570301 |    183570301 |    183570301 |    183570301 |    390203687 |    390203687 |    390203687 |    390203687 |    816069582 |    816069582 |    816069582 |    816069582 |   1724391189 |   1724391189 |   1724391189 |   1724391189 |
itlb.misses                                      9 |            9 |            9 |            9 |            9 |            9 |            9 |            9 |            9 |            9 |            9 |            9 |            9 |            9 |            9 |            9 |            9 |            9 |            9 |            9 |            9 |            9 |            9 |            9 |            9 |            9 |            9 |            9 |            9 |            9 |            9 |            9 |            9 |            9 |            9 |            9 |            9 |            9 |            9 |            9 |            9 |            9 |            9 |            9 |
itlb.replacements                                0 |            0 |            0 |            0 |            0 |            0 |            0 |            0 |            0 |            0 |            0 |            0 |            0 |            0 |            0 |            0 |            0 |            0 |            0 |            0 |            0 |            0 |            0 |            0 |            0 |            0 |            0 |            0 |            0 |            0 |            0 |            0 |            0 |            0 |            0 |            0 |            0 |            0 |            0 |            0 |            0 |            0 |            0 |            0 |
itlb.writebacks                                  0 |            0 |            0 |            0 |            0 |            0 |            0 |            0 |            0 |            0 |            0 |            0 |            0 |            0 |            0 |            0 |            0 |            0 |            0 |            0 |            0 |            0 |            0 |            0 |            0 |            0 |            0 |            0 |            0 |            0 |            0 |            0 |            0 |            0 |            0 |            0 |            0 |            0 |            0 |            0 |            0 |            0 |            0 |            0 |
itlb.invalidations                               0 |            0 |            0 |            0 |            0 |            0 |            0 |            0 |            0 |            0 |            0 |            0 |            0 |            0 |            0 |            0 |            0 |            0 |            0 |            0 |            0 |            0 |            0 |            0 |            0 |            0 |            0 |            0 |            0 |            0 |            0 |            0 |            0 |            0 |            0 |            0 |            0 |            0 |            0 |            0 |            0 |            0 |            0 |            0 |
itlb.miss_rate                              0.0000 |       0.0000 |       0.0000 |       0.0000 |       0.0000 |       0.0000 |       0.0000 |       0.0000 |       0.0000 |       0.0000 |       0.0000 |       0.0000 |       0.0000 |       0.0000 |       0.0000 |       0.0000 |       0.0000 |       0.0000 |       0.0000 |       0.0000 |       0.0000 |       0.0000 |       0.0000 |       0.0000 |       0.0000 |       0.0000 |       0.0000 |       0.0000 |       0.0000 |       0.0000 |       0.0000 |       0.0000 |       0.0000 |       0.0000 |       0.0000 |       0.0000 |       0.0000 |       0.0000 |       0.0000 |       0.0000 |       0.0000 |       0.0000 |       0.0000 |       0.0000 |
itlb.repl_rate                              0.0000 |       0.0000 |       0.0000 |       0.0000 |       0.0000 |       0.0000 |       0.0000 |       0.0000 |       0.0000 |       0.0000 |       0.0000 |       0.0000 |       0.0000 |       0.0000 |       0.0000 |       0.0000 |       0.0000 |       0.0000 |       0.0000 |       0.0000 |       0.0000 |       0.0000 |       0.0000 |       0.0000 |       0.0000 |       0.0000 |       0.0000 |       0.0000 |       0.0000 |       0.0000 |       0.0000 |       0.0000 |       0.0000 |       0.0000 |       0.0000 |       0.0000 |       0.0000 |       0.0000 |       0.0000 |       0.0000 |       0.0000 |       0.0000 |       0.0000 |       0.0000 |
itlb.wb_rate                                0.0000 |       0.0000 |       0.0000 |       0.0000 |       0.0000 |       0.0000 |       0.0000 |       0.0000 |       0.0000 |       0.0000 |       0.0000 |       0.0000 |       0.0000 |       0.0000 |       0.0000 |       0.0000 |       0.0000 |       0.0000 |       0.0000 |       0.0000 |       0.0000 |       0.0000 |       0.0000 |       0.0000 |       0.0000 |       0.0000 |       0.0000 |       0.0000 |       0.0000 |       0.0000 |       0.0000 |       0.0000 |       0.0000 |       0.0000 |       0.0000 |       0.0000 |       0.0000 |       0.0000 |       0.0000 |       0.0000 |       0.0000 |       0.0000 |       0.0000 |       0.0000 |
itlb.inv_rate                               0.0000 |       0.0000 |       0.0000 |       0.0000 |       0.0000 |       0.0000 |       0.0000 |       0.0000 |       0.0000 |       0.0000 |       0.0000 |       0.0000 |       0.0000 |       0.0000 |       0.0000 |       0.0000 |       0.0000 |       0.0000 |       0.0000 |       0.0000 |       0.0000 |       0.0000 |       0.0000 |       0.0000 |       0.0000 |       0.0000 |       0.0000 |       0.0000 |       0.0000 |       0.0000 |       0.0000 |       0.0000 |       0.0000 |       0.0000 |       0.0000 |       0.0000 |       0.0000 |       0.0000 |       0.0000 |       0.0000 |       0.0000 |       0.0000 |       0.0000 |       0.0000 |
dtlb.accesses                               250556 |       250556 |       250556 |       250556 |       521955 |       521955 |       521955 |       521955 |      1154911 |      1154911 |      1154911 |      1154911 |      2403966 |      2403966 |      2403966 |      2403966 |      5262782 |      5262782 |      5262782 |      5262782 |     10914612 |     10914612 |     10914612 |     10914612 |     23661073 |     23661073 |     23661073 |     23661073 |     48890863 |     48890863 |     48890863 |     48890863 |    105125807 |    105125807 |    105125807 |    105125807 |    216538325 |    216538325 |    216538325 |    216538325 |    462428646 |    462428646 |    462428646 |    462428646 |
dtlb.hits                                   250541 |       250541 |       250541 |       250541 |       521932 |       521932 |       521932 |       521932 |      1154872 |      1154872 |      1154872 |      1154872 |      2403895 |      2403895 |      2403895 |      2403895 |      5262569 |      5262569 |      5262569 |      5262569 |     10910429 |     10910429 |     10910429 |     10910429 |     23651598 |     23651598 |     23651598 |     23651598 |     48871909 |     48871909 |     48871909 |     48871909 |    105083789 |    105083789 |    105083789 |    105083789 |    216454287 |    216454287 |    216454287 |    216454287 |    462244173 |    462244173 |    462244173 |    462244173 |
dtlb.misses                                     15 |           15 |           15 |           15 |           23 |           23 |           23 |           23 |           39 |           39 |           39 |           39 |           71 |           71 |           71 |           71 |          213 |          213 |          213 |          213 |         4183 |         4183 |         4183 |         4183 |         9475 |         9475 |         9475 |         9475 |        18954 |        18954 |        18954 |        18954 |        42018 |        42018 |        42018 |        42018 |        84038 |        84038 |        84038 |        84038 |       184473 |       184473 |       184473 |       184473 |
dtlb.replacements                                0 |            0 |            0 |            0 |            0 |            0 |            0 |            0 |            0 |            0 |            0 |            0 |            0 |            0 |            0 |            0 |           85 |           85 |           85 |           85 |         4055 |         4055 |         4055 |         4055 |         9347 |         9347 |         9347 |         9347 |        18826 |        18826 |        18826 |        18826 |        41890 |        41890 |        41890 |        41890 |        83910 |        83910 |        83910 |        83910 |       184345 |       184345 |       184345 |       184345 |
dtlb.writebacks                                  0 |            0 |            0 |            0 |            0 |            0 |            0 |            0 |            0 |            0 |            0 |            0 |            0 |            0 |            0 |            0 |           51 |           51 |           51 |           51 |         2129 |         2129 |         2129 |         2129 |         4823 |         4823 |         4823 |         4823 |         9694 |         9694 |         9694 |         9694 |        21491 |        21491 |        21491 |        21491 |        43033 |        43033 |        43033 |        43033 |        94308 |        94308 |        94308 |        94308 |
dtlb.invalidations                               0 |            0 |            0 |            0 |            0 |            0 |            0 |            0 |            0 |            0 |            0 |            0 |            0 |            0 |            0 |            0 |            0 |            0 |            0 |            0 |            0 |            0 |            0 |            0 |            0 |            0 |            0 |            0 |            0 |            0 |            0 |            0 |            0 |            0 |            0 |            0 |            0 |            0 |            0 |            0 |            0 |            0 |            0 |            0 |
dtlb.miss_rate                              0.0001 |       0.0001 |       0.0001 |       0.0001 |       0.0000 |       0.0000 |       0.0000 |       0.0000 |       0.0000 |       0.0000 |       0.0000 |       0.0000 |       0.0000 |       0.0000 |       0.0000 |       0.0000 |       0.0000 |       0.0000 |       0.0000 |       0.0000 |       0.0004 |       0.0004 |       0.0004 |       0.0004 |       0.0004 |       0.0004 |       0.0004 |       0.0004 |       0.0004 |       0.0004 |       0.0004 |       0.0004 |       0.0004 |       0.0004 |       0.0004 |       0.0004 |       0.0004 |       0.0004 |       0.0004 |       0.0004 |       0.0004 |       0.0004 |       0.0004 |       0.0004 |
dtlb.repl_rate                              0.0000 |       0.0000 |       0.0000 |       0.0000 |       0.0000 |       0.0000 |       0.0000 |       0.0000 |       0.0000 |       0.0000 |       0.0000 |       0.0000 |       0.0000 |       0.0000 |       0.0000 |       0.0000 |       0.0000 |       0.0000 |       0.0000 |       0.0000 |       0.0004 |       0.0004 |       0.0004 |       0.0004 |       0.0004 |       0.0004 |       0.0004 |       0.0004 |       0.0004 |       0.0004 |       0.0004 |       0.0004 |       0.0004 |       0.0004 |       0.0004 |       0.0004 |       0.0004 |       0.0004 |       0.0004 |       0.0004 |       0.0004 |       0.0004 |       0.0004 |       0.0004 |
dtlb.wb_rate                                0.0000 |       0.0000 |       0.0000 |       0.0000 |       0.0000 |       0.0000 |       0.0000 |       0.0000 |       0.0000 |       0.0000 |       0.0000 |       0.0000 |       0.0000 |       0.0000 |       0.0000 |       0.0000 |       0.0000 |       0.0000 |       0.0000 |       0.0000 |       0.0002 |       0.0002 |       0.0002 |       0.0002 |       0.0002 |       0.0002 |       0.0002 |       0.0002 |       0.0002 |       0.0002 |       0.0002 |       0.0002 |       0.0002 |       0.0002 |       0.0002 |       0.0002 |       0.0002 |       0.0002 |       0.0002 |       0.0002 |       0.0002 |       0.0002 |       0.0002 |       0.0002 |
dtlb.inv_rate                               0.0000 |       0.0000 |       0.0000 |       0.0000 |       0.0000 |       0.0000 |       0.0000 |       0.0000 |       0.0000 |       0.0000 |       0.0000 |       0.0000 |       0.0000 |       0.0000 |       0.0000 |       0.0000 |       0.0000 |       0.0000 |       0.0000 |       0.0000 |       0.0000 |       0.0000 |       0.0000 |       0.0000 |       0.0000 |       0.0000 |       0.0000 |       0.0000 |       0.0000 |       0.0000 |       0.0000 |       0.0000 |       0.0000 |       0.0000 |       0.0000 |       0.0000 |       0.0000 |       0.0000 |       0.0000 |       0.0000 |       0.0000 |       0.0000 |       0.0000 |       0.0000 |
ld_text_base                            0x00400000 |   0x00400000 |   0x00400000 |   0x00400000 |   0x00400000 |   0x00400000 |   0x00400000 |   0x00400000 |   0x00400000 |   0x00400000 |   0x00400000 |   0x00400000 |   0x00400000 |   0x00400000 |   0x00400000 |   0x00400000 |   0x00400000 |   0x00400000 |   0x00400000 |   0x00400000 |   0x00400000 |   0x00400000 |   0x00400000 |   0x00400000 |   0x00400000 |   0x00400000 |   0x00400000 |   0x00400000 |   0x00400000 |   0x00400000 |   0x00400000 |   0x00400000 |   0x00400000 |   0x00400000 |   0x00400000 |   0x00400000 |   0x00400000 |   0x00400000 |   0x00400000 |   0x00400000 |   0x00400000 |   0x00400000 |   0x00400000 |   0x00400000 |
ld_text_size                                 71552 |        71552 |        71552 |        71552 |        71584 |        71584 |        71584 |        71584 |        71600 |        71600 |        71600 |        71600 |        71616 |        71616 |        71616 |        71616 |        71616 |        71616 |        71616 |        71616 |        71616 |        71616 |        71616 |        71616 |        71616 |        71616 |        71616 |        71616 |        71616 |        71616 |        71616 |        71616 |        71616 |        71616 |        71616 |        71616 |        71616 |        71616 |        71616 |        71616 |        71616 |        71616 |        71616 |        71616 |
ld_data_base                            0x10000000 |   0x10000000 |   0x10000000 |   0x10000000 |   0x10000000 |   0x10000000 |   0x10000000 |   0x10000000 |   0x10000000 |   0x10000000 |   0x10000000 |   0x10000000 |   0x10000000 |   0x10000000 |   0x10000000 |   0x10000000 |   0x10000000 |   0x10000000 |   0x10000000 |   0x10000000 |   0x10000000 |   0x10000000 |   0x10000000 |   0x10000000 |   0x10000000 |   0x10000000 |   0x10000000 |   0x10000000 |   0x10000000 |   0x10000000 |   0x10000000 |   0x10000000 |   0x10000000 |   0x10000000 |   0x10000000 |   0x10000000 |   0x10000000 |   0x10000000 |   0x10000000 |   0x10000000 |   0x10000000 |   0x10000000 |   0x10000000 |   0x10000000 |
ld_data_size                                  8192 |         8192 |         8192 |         8192 |         8192 |         8192 |         8192 |         8192 |         8192 |         8192 |         8192 |         8192 |         8192 |         8192 |         8192 |         8192 |         8192 |         8192 |         8192 |         8192 |         8192 |         8192 |         8192 |         8192 |         8192 |         8192 |         8192 |         8192 |         8192 |         8192 |         8192 |         8192 |         8192 |         8192 |         8192 |         8192 |         8192 |         8192 |         8192 |         8192 |         8192 |         8192 |         8192 |         8192 |
ld_stack_base                           0x7fffc000 |   0x7fffc000 |   0x7fffc000 |   0x7fffc000 |   0x7fffc000 |   0x7fffc000 |   0x7fffc000 |   0x7fffc000 |   0x7fffc000 |   0x7fffc000 |   0x7fffc000 |   0x7fffc000 |   0x7fffc000 |   0x7fffc000 |   0x7fffc000 |   0x7fffc000 |   0x7fffc000 |   0x7fffc000 |   0x7fffc000 |   0x7fffc000 |   0x7fffc000 |   0x7fffc000 |   0x7fffc000 |   0x7fffc000 |   0x7fffc000 |   0x7fffc000 |   0x7fffc000 |   0x7fffc000 |   0x7fffc000 |   0x7fffc000 |   0x7fffc000 |   0x7fffc000 |   0x7fffc000 |   0x7fffc000 |   0x7fffc000 |   0x7fffc000 |   0x7fffc000 |   0x7fffc000 |   0x7fffc000 |   0x7fffc000 |   0x7fffc000 |   0x7fffc000 |   0x7fffc000 |   0x7fffc000 |
ld_stack_size                                16384 |        16384 |        16384 |        16384 |        16384 |        16384 |        16384 |        16384 |        16384 |        16384 |        16384 |        16384 |        16384 |        16384 |        16384 |        16384 |        16384 |        16384 |        16384 |        16384 |        16384 |        16384 |        16384 |        16384 |        16384 |        16384 |        16384 |        16384 |        16384 |        16384 |        16384 |        16384 |        16384 |        16384 |        16384 |        16384 |        16384 |        16384 |        16384 |        16384 |        16384 |        16384 |        16384 |        16384 |
ld_prog_entry                           0x00400140 |   0x00400140 |   0x00400140 |   0x00400140 |   0x00400140 |   0x00400140 |   0x00400140 |   0x00400140 |   0x00400140 |   0x00400140 |   0x00400140 |   0x00400140 |   0x00400140 |   0x00400140 |   0x00400140 |   0x00400140 |   0x00400140 |   0x00400140 |   0x00400140 |   0x00400140 |   0x00400140 |   0x00400140 |   0x00400140 |   0x00400140 |   0x00400140 |   0x00400140 |   0x00400140 |   0x00400140 |   0x00400140 |   0x00400140 |   0x00400140 |   0x00400140 |   0x00400140 |   0x00400140 |   0x00400140 |   0x00400140 |   0x00400140 |   0x00400140 |   0x00400140 |   0x00400140 |   0x00400140 |   0x00400140 |   0x00400140 |   0x00400140 |
ld_environ_base                         0x7fff8000 |   0x7fff8000 |   0x7fff8000 |   0x7fff8000 |   0x7fff8000 |   0x7fff8000 |   0x7fff8000 |   0x7fff8000 |   0x7fff8000 |   0x7fff8000 |   0x7fff8000 |   0x7fff8000 |   0x7fff8000 |   0x7fff8000 |   0x7fff8000 |   0x7fff8000 |   0x7fff8000 |   0x7fff8000 |   0x7fff8000 |   0x7fff8000 |   0x7fff8000 |   0x7fff8000 |   0x7fff8000 |   0x7fff8000 |   0x7fff8000 |   0x7fff8000 |   0x7fff8000 |   0x7fff8000 |   0x7fff8000 |   0x7fff8000 |   0x7fff8000 |   0x7fff8000 |   0x7fff8000 |   0x7fff8000 |   0x7fff8000 |   0x7fff8000 |   0x7fff8000 |   0x7fff8000 |   0x7fff8000 |   0x7fff8000 |   0x7fff8000 |   0x7fff8000 |   0x7fff8000 |   0x7fff8000 |
ld_target_big_endian                             0 |            0 |            0 |            0 |            0 |            0 |            0 |            0 |            0 |            0 |            0 |            0 |            0 |            0 |            0 |            0 |            0 |            0 |            0 |            0 |            0 |            0 |            0 |            0 |            0 |            0 |            0 |            0 |            0 |            0 |            0 |            0 |            0 |            0 |            0 |            0 |            0 |            0 |            0 |            0 |            0 |            0 |            0 |            0 |
mem.page_count                                  33 |           33 |           33 |           33 |           41 |           41 |           41 |           41 |           57 |           57 |           57 |           57 |           89 |           89 |           89 |           89 |          153 |          153 |          153 |          153 |          281 |          281 |          281 |          281 |          537 |          537 |          537 |          537 |         1049 |         1049 |         1049 |         1049 |         2079 |         2079 |         2079 |         2079 |         4133 |         4133 |         4133 |         4133 |         8241 |         8241 |         8241 |         8241 |
mem.page_mem                                  132k |         132k |         132k |         132k |         164k |         164k |         164k |         164k |         228k |         228k |         228k |         228k |         356k |         356k |         356k |         356k |         612k |         612k |         612k |         612k |        1124k |        1124k |        1124k |        1124k |        2148k |        2148k |        2148k |        2148k |        4196k |        4196k |        4196k |        4196k |        8316k |        8316k |        8316k |        8316k |       16532k |       16532k |       16532k |       16532k |       32964k |       32964k |       32964k |       32964k |
mem.ptab_misses                                 33 |           33 |           33 |           33 |           41 |           41 |           41 |           41 |           57 |           57 |           57 |           57 |           89 |           89 |           89 |           89 |          153 |          153 |          153 |          153 |          281 |          281 |          281 |          281 |          537 |          537 |          537 |          537 |         1049 |         1049 |         1049 |         1049 |        97930 |        97930 |        97930 |        97930 |       104739 |       104739 |       104739 |       104739 |       114456 |       114456 |       114456 |       114456 |
mem.ptab_accesses                          4510892 |      4510892 |      4510892 |      4510892 |      9153398 |      9153398 |      9153398 |      9153398 |     19502782 |     19502782 |     19502782 |     19502782 |     40947276 |     40947276 |     40947276 |     40947276 |     88095208 |     88095208 |     88095208 |     88095208 |    185414328 |    185414328 |    185414328 |    185414328 |    397093210 |    397093210 |    397093210 |    397093210 |    832507234 |    832507234 |    832507234 |    832507234 |   1771510666 |   1771510666 |   1771510666 |   1771510666 |   3697799282 |   3697799282 |   3697799282 |   3697799282 |   7822866352 |   7822866352 |   7822866352 |   7822866352 |
mem.ptab_miss_rate                          0.0000 |       0.0000 |       0.0000 |       0.0000 |       0.0000 |       0.0000 |       0.0000 |       0.0000 |       0.0000 |       0.0000 |       0.0000 |       0.0000 |       0.0000 |       0.0000 |       0.0000 |       0.0000 |       0.0000 |       0.0000 |       0.0000 |       0.0000 |       0.0000 |       0.0000 |       0.0000 |       0.0000 |       0.0000 |       0.0000 |       0.0000 |       0.0000 |       0.0000 |       0.0000 |       0.0000 |       0.0000 |       0.0001 |       0.0001 |       0.0001 |       0.0001 |       0.0000 |       0.0000 |       0.0000 |       0.0000 |       0.0000 |       0.0000 |       0.0000 |       0.0000 |
-------------------------------------------------------------------------------------------------
sim-bpred                                     4096 |         4096 |         4096 |         4096 |         4096 |         4096 |         4096 |         8192 |         8192 |         8192 |         8192 |         8192 |         8192 |         8192 |        16384 |        16384 |        16384 |        16384 |        16384 |        16384 |        16384 |        32768 |        32768 |        32768 |        32768 |        32768 |        32768 |        32768 |        65536 |        65536 |        65536 |        65536 |        65536 |        65536 |        65536 |       131072 |       131072 |       131072 |       131072 |       131072 |       131072 |       131072 |       262144 |       262144 |       262144 |       262144 |       262144 |       262144 |       262144 |       524288 |       524288 |       524288 |       524288 |       524288 |       524288 |       524288 |      1048576 |      1048576 |      1048576 |      1048576 |      1048576 |      1048576 |      1048576 |      2097152 |      2097152 |      2097152 |      2097152 |      2097152 |      2097152 |      2097152 |      4194304 |      4194304 |      4194304 |      4194304 |      4194304 |      4194304 |      4194304 |
-bpred bimod -bpred:bimod 512
-bpred bimod -bpred:bimod 1024
-bpred bimod -bpred:bimod 2048
-bpred 2lev -bpred:2lev 1 512 10 1
-bpred 2lev -bpred:2lev 1 1024 10 1
-bpred 2lev -bpred:2lev 1 2048 10 1
-bpred 2lev -bpred:2lev 1 4096 10 1
-------------------------------------------------------------------------------------------------
sim_num_insn                                891474 |       891474 |       891474 |       891474 |       891474 |       891474 |       891474 |      1916353 |      1916353 |      1916353 |      1916353 |      1916353 |      1916353 |      1916353 |      4187197 |      4187197 |      4187197 |      4187197 |      4187197 |      4187197 |      4187197 |      8923769 |      8923769 |      8923769 |      8923769 |      8923769 |      8923769 |      8923769 |     19281344 |     19281344 |     19281344 |     19281344 |     19281344 |     19281344 |     19281344 |     40785209 |     40785209 |     40785209 |     40785209 |     40785209 |     40785209 |     40785209 |     87331699 |     87331699 |     87331699 |     87331699 |     87331699 |     87331699 |     87331699 |    183570310 |    183570310 |    183570310 |    183570310 |    183570310 |    183570310 |    183570310 |    390203696 |    390203696 |    390203696 |    390203696 |    390203696 |    390203696 |    390203696 |    816069591 |    816069591 |    816069591 |    816069591 |    816069591 |    816069591 |    816069591 |   1724391198 |   1724391198 |   1724391198 |   1724391198 |   1724391198 |   1724391198 |   1724391198 |
sim_num_refs                                234090 |       234090 |       234090 |       234090 |       234090 |       234090 |       234090 |       489105 |       489105 |       489105 |       489105 |       489105 |       489105 |       489105 |      1089293 |      1089293 |      1089293 |      1089293 |      1089293 |      1089293 |      1089293 |      2272812 |      2272812 |      2272812 |      2272812 |      2272812 |      2272812 |      2272812 |      5000556 |      5000556 |      5000556 |      5000556 |      5000556 |      5000556 |      5000556 |     10390242 |     10390242 |     10390242 |     10390242 |     10390242 |     10390242 |     10390242 |     22612415 |     22612415 |     22612415 |     22612415 |     22612415 |     22612415 |     22612415 |     46793629 |     46793629 |     46793629 |     46793629 |     46793629 |     46793629 |     46793629 |    100931421 |    100931421 |    100931421 |    100931421 |    100931421 |    100931421 |    100931421 |    208149635 |    208149635 |    208149635 |    208149635 |    208149635 |    208149635 |    208149635 |    445651348 |    445651348 |    445651348 |    445651348 |    445651348 |    445651348 |    445651348 |
sim_elapsed_time                                 1 |            1 |            1 |            1 |            1 |            1 |            1 |            1 |            1 |            1 |            1 |            1 |            1 |            1 |            1 |            1 |            1 |            1 |            1 |            1 |            1 |            1 |            1 |            1 |            1 |            1 |            1 |            1 |            3 |            2 |            2 |            2 |            3 |            2 |            2 |            5 |            4 |            4 |            5 |            5 |            4 |            5 |           10 |           10 |            9 |           11 |           10 |           10 |           10 |           21 |           20 |           21 |           21 |           21 |           21 |           21 |           45 |           43 |           43 |           46 |           44 |           44 |           44 |           94 |           90 |           90 |           96 |           92 |           92 |           92 |          197 |          191 |          190 |          202 |          194 |          194 |          195 |
sim_inst_rate                          891474.0000 |  891474.0000 |  891474.0000 |  891474.0000 |  891474.0000 |  891474.0000 |  891474.0000 | 1916353.0000 | 1916353.0000 | 1916353.0000 | 1916353.0000 | 1916353.0000 | 1916353.0000 | 1916353.0000 | 4187197.0000 | 4187197.0000 | 4187197.0000 | 4187197.0000 | 4187197.0000 | 4187197.0000 | 4187197.0000 | 8923769.0000 | 8923769.0000 | 8923769.0000 | 8923769.0000 | 8923769.0000 | 8923769.0000 | 8923769.0000 | 6427114.6667 | 9640672.0000 | 9640672.0000 | 9640672.0000 | 6427114.6667 | 9640672.0000 | 9640672.0000 | 8157041.8000 |10196302.2500 |10196302.2500 | 8157041.8000 | 8157041.8000 |10196302.2500 | 8157041.8000 | 8733169.9000 | 8733169.9000 | 9703522.1111 | 7939245.3636 | 8733169.9000 | 8733169.9000 | 8733169.9000 | 8741443.3333 | 9178515.5000 | 8741443.3333 | 8741443.3333 | 8741443.3333 | 8741443.3333 | 8741443.3333 | 8671193.2444 | 9074504.5581 | 9074504.5581 | 8482689.0435 | 8868265.8182 | 8868265.8182 | 8868265.8182 | 8681591.3936 | 9067439.9000 | 9067439.9000 | 8500724.9062 | 8870321.6413 | 8870321.6413 | 8870321.6413 | 8753254.8122 | 9028226.1675 | 9075743.1474 | 8536590.0891 | 8888614.4227 | 8888614.4227 | 8843031.7846 |
sim_num_branches                            112456 |       112456 |       112456 |       112456 |       112456 |       112456 |       112456 |       243899 |       243899 |       243899 |       243899 |       243899 |       243899 |       243899 |       529925 |       529925 |       529925 |       529925 |       529925 |       529925 |       529925 |      1137056 |      1137056 |      1137056 |      1137056 |      1137056 |      1137056 |      1137056 |      2443661 |      2443661 |      2443661 |      2443661 |      2443661 |      2443661 |      2443661 |      5198643 |      5198643 |      5198643 |      5198643 |      5198643 |      5198643 |      5198643 |     11084411 |     11084411 |     11084411 |     11084411 |     11084411 |     11084411 |     11084411 |     23415400 |     23415400 |     23415400 |     23415400 |     23415400 |     23415400 |     23415400 |     49575515 |     49575515 |     49575515 |     49575515 |     49575515 |     49575515 |     49575515 |    104140801 |    104140801 |    104140801 |    104140801 |    104140801 |    104140801 |    104140801 |    219285111 |    219285111 |    219285111 |    219285111 |    219285111 |    219285111 |    219285111 |
sim_IPB                                     7.9273 |       7.9273 |       7.9273 |       7.9273 |       7.9273 |       7.9273 |       7.9273 |       7.8572 |       7.8572 |       7.8572 |       7.8572 |       7.8572 |       7.8572 |       7.8572 |       7.9015 |       7.9015 |       7.9015 |       7.9015 |       7.9015 |       7.9015 |       7.9015 |       7.8481 |       7.8481 |       7.8481 |       7.8481 |       7.8481 |       7.8481 |       7.8481 |       7.8904 |       7.8904 |       7.8904 |       7.8904 |       7.8904 |       7.8904 |       7.8904 |       7.8454 |       7.8454 |       7.8454 |       7.8454 |       7.8454 |       7.8454 |       7.8454 |       7.8788 |       7.8788 |       7.8788 |       7.8788 |       7.8788 |       7.8788 |       7.8788 |       7.8397 |       7.8397 |       7.8397 |       7.8397 |       7.8397 |       7.8397 |       7.8397 |       7.8709 |       7.8709 |       7.8709 |       7.8709 |       7.8709 |       7.8709 |       7.8709 |       7.8362 |       7.8362 |       7.8362 |       7.8362 |       7.8362 |       7.8362 |       7.8362 |       7.8637 |       7.8637 |       7.8637 |       7.8637 |       7.8637 |       7.8637 |       7.8637 |
bpred_bimod.lookups                         112456 |       112456 |       112456 |xxxxxxxxxxxxx |xxxxxxxxxxxxx |xxxxxxxxxxxxx |xxxxxxxxxxxxx |       243899 |       243899 |       243899 |xxxxxxxxxxxxx |xxxxxxxxxxxxx |xxxxxxxxxxxxx |xxxxxxxxxxxxx |       529925 |       529925 |       529925 |xxxxxxxxxxxxx |xxxxxxxxxxxxx |xxxxxxxxxxxxx |xxxxxxxxxxxxx |      1137056 |      1137056 |      1137056 |xxxxxxxxxxxxx |xxxxxxxxxxxxx |xxxxxxxxxxxxx |xxxxxxxxxxxxx |      2443661 |      2443661 |      2443661 |xxxxxxxxxxxxx |xxxxxxxxxxxxx |xxxxxxxxxxxxx |xxxxxxxxxxxxx |      5198643 |      5198643 |      5198643 |xxxxxxxxxxxxx |xxxxxxxxxxxxx |xxxxxxxxxxxxx |xxxxxxxxxxxxx |     11084411 |     11084411 |     11084411 |xxxxxxxxxxxxx |xxxxxxxxxxxxx |xxxxxxxxxxxxx |xxxxxxxxxxxxx |     23415400 |     23415400 |     23415400 |xxxxxxxxxxxxx |xxxxxxxxxxxxx |xxxxxxxxxxxxx |xxxxxxxxxxxxx |     49575515 |     49575515 |     49575515 |xxxxxxxxxxxxx |xxxxxxxxxxxxx |xxxxxxxxxxxxx |xxxxxxxxxxxxx |    104140801 |    104140801 |    104140801 |xxxxxxxxxxxxx |xxxxxxxxxxxxx |xxxxxxxxxxxxx |xxxxxxxxxxxxx |    219285111 |    219285111 |    219285111 |
bpred_bimod.updates                         112456 |       112456 |       112456 |xxxxxxxxxxxxx |xxxxxxxxxxxxx |xxxxxxxxxxxxx |xxxxxxxxxxxxx |       243899 |       243899 |       243899 |xxxxxxxxxxxxx |xxxxxxxxxxxxx |xxxxxxxxxxxxx |xxxxxxxxxxxxx |       529925 |       529925 |       529925 |xxxxxxxxxxxxx |xxxxxxxxxxxxx |xxxxxxxxxxxxx |xxxxxxxxxxxxx |      1137056 |      1137056 |      1137056 |xxxxxxxxxxxxx |xxxxxxxxxxxxx |xxxxxxxxxxxxx |xxxxxxxxxxxxx |      2443661 |      2443661 |      2443661 |xxxxxxxxxxxxx |xxxxxxxxxxxxx |xxxxxxxxxxxxx |xxxxxxxxxxxxx |      5198643 |      5198643 |      5198643 |xxxxxxxxxxxxx |xxxxxxxxxxxxx |xxxxxxxxxxxxx |xxxxxxxxxxxxx |     11084411 |     11084411 |     11084411 |xxxxxxxxxxxxx |xxxxxxxxxxxxx |xxxxxxxxxxxxx |xxxxxxxxxxxxx |     23415400 |     23415400 |     23415400 |xxxxxxxxxxxxx |xxxxxxxxxxxxx |xxxxxxxxxxxxx |xxxxxxxxxxxxx |     49575515 |     49575515 |     49575515 |xxxxxxxxxxxxx |xxxxxxxxxxxxx |xxxxxxxxxxxxx |xxxxxxxxxxxxx |    104140801 |    104140801 |    104140801 |xxxxxxxxxxxxx |xxxxxxxxxxxxx |xxxxxxxxxxxxx |xxxxxxxxxxxxx |    219285111 |    219285111 |    219285111 |
bpred_bimod.addr_hits                        87178 |        87181 |        87186 |xxxxxxxxxxxxx |xxxxxxxxxxxxx |xxxxxxxxxxxxx |xxxxxxxxxxxxx |       189730 |       189732 |       189738 |xxxxxxxxxxxxx |xxxxxxxxxxxxx |xxxxxxxxxxxxx |xxxxxxxxxxxxx |       413416 |       413419 |       413425 |xxxxxxxxxxxxx |xxxxxxxxxxxxx |xxxxxxxxxxxxx |xxxxxxxxxxxxx |       887577 |       887579 |       887584 |xxxxxxxxxxxxx |xxxxxxxxxxxxx |xxxxxxxxxxxxx |xxxxxxxxxxxxx |      1911480 |      1911483 |      1911488 |xxxxxxxxxxxxx |xxxxxxxxxxxxx |xxxxxxxxxxxxx |xxxxxxxxxxxxx |      4069800 |      4069802 |      4069807 |xxxxxxxxxxxxx |xxxxxxxxxxxxx |xxxxxxxxxxxxx |xxxxxxxxxxxxx |      8696628 |      8696631 |      8696636 |xxxxxxxxxxxxx |xxxxxxxxxxxxx |xxxxxxxxxxxxx |xxxxxxxxxxxxx |     18379363 |     18379365 |     18379370 |xxxxxxxxxxxxx |xxxxxxxxxxxxx |xxxxxxxxxxxxx |xxxxxxxxxxxxx |     38979877 |     38979880 |     38979884 |xxxxxxxxxxxxx |xxxxxxxxxxxxx |xxxxxxxxxxxxx |xxxxxxxxxxxxx |     81891591 |     81891594 |     81891598 |xxxxxxxxxxxxx |xxxxxxxxxxxxx |xxxxxxxxxxxxx |xxxxxxxxxxxxx |    172702252 |    172702255 |    172702259 |
bpred_bimod.dir_hits                         87284 |        87287 |        87292 |xxxxxxxxxxxxx |xxxxxxxxxxxxx |xxxxxxxxxxxxx |xxxxxxxxxxxxx |       189836 |       189837 |       189843 |xxxxxxxxxxxxx |xxxxxxxxxxxxx |xxxxxxxxxxxxx |xxxxxxxxxxxxx |       413529 |       413531 |       413535 |xxxxxxxxxxxxx |xxxxxxxxxxxxx |xxxxxxxxxxxxx |xxxxxxxxxxxxx |       887682 |       887683 |       887688 |xxxxxxxxxxxxx |xxxxxxxxxxxxx |xxxxxxxxxxxxx |xxxxxxxxxxxxx |      1911590 |      1911592 |      1911597 |xxxxxxxxxxxxx |xxxxxxxxxxxxx |xxxxxxxxxxxxx |xxxxxxxxxxxxx |      4069906 |      4069907 |      4069912 |xxxxxxxxxxxxx |xxxxxxxxxxxxx |xxxxxxxxxxxxx |xxxxxxxxxxxxx |      8696739 |      8696741 |      8696746 |xxxxxxxxxxxxx |xxxxxxxxxxxxx |xxxxxxxxxxxxx |xxxxxxxxxxxxx |     18379469 |     18379470 |     18379475 |xxxxxxxxxxxxx |xxxxxxxxxxxxx |xxxxxxxxxxxxx |xxxxxxxxxxxxx |     38979994 |     38979996 |     38980000 |xxxxxxxxxxxxx |xxxxxxxxxxxxx |xxxxxxxxxxxxx |xxxxxxxxxxxxx |     81891708 |     81891710 |     81891714 |xxxxxxxxxxxxx |xxxxxxxxxxxxx |xxxxxxxxxxxxx |xxxxxxxxxxxxx |    172702369 |    172702371 |    172702375 |
bpred_bimod.misses                           25172 |        25169 |        25164 |xxxxxxxxxxxxx |xxxxxxxxxxxxx |xxxxxxxxxxxxx |xxxxxxxxxxxxx |        54063 |        54062 |        54056 |xxxxxxxxxxxxx |xxxxxxxxxxxxx |xxxxxxxxxxxxx |xxxxxxxxxxxxx |       116396 |       116394 |       116390 |xxxxxxxxxxxxx |xxxxxxxxxxxxx |xxxxxxxxxxxxx |xxxxxxxxxxxxx |       249374 |       249373 |       249368 |xxxxxxxxxxxxx |xxxxxxxxxxxxx |xxxxxxxxxxxxx |xxxxxxxxxxxxx |       532071 |       532069 |       532064 |xxxxxxxxxxxxx |xxxxxxxxxxxxx |xxxxxxxxxxxxx |xxxxxxxxxxxxx |      1128737 |      1128736 |      1128731 |xxxxxxxxxxxxx |xxxxxxxxxxxxx |xxxxxxxxxxxxx |xxxxxxxxxxxxx |      2387672 |      2387670 |      2387665 |xxxxxxxxxxxxx |xxxxxxxxxxxxx |xxxxxxxxxxxxx |xxxxxxxxxxxxx |      5035931 |      5035930 |      5035925 |xxxxxxxxxxxxx |xxxxxxxxxxxxx |xxxxxxxxxxxxx |xxxxxxxxxxxxx |     10595521 |     10595519 |     10595515 |xxxxxxxxxxxxx |xxxxxxxxxxxxx |xxxxxxxxxxxxx |xxxxxxxxxxxxx |     22249093 |     22249091 |     22249087 |xxxxxxxxxxxxx |xxxxxxxxxxxxx |xxxxxxxxxxxxx |xxxxxxxxxxxxx |     46582742 |     46582740 |     46582736 |
bpred_bimod.jr_hits                             63 |           63 |           63 |xxxxxxxxxxxxx |xxxxxxxxxxxxx |xxxxxxxxxxxxx |xxxxxxxxxxxxx |           69 |           69 |           69 |xxxxxxxxxxxxx |xxxxxxxxxxxxx |xxxxxxxxxxxxx |xxxxxxxxxxxxx |           71 |           71 |           71 |xxxxxxxxxxxxx |xxxxxxxxxxxxx |xxxxxxxxxxxxx |xxxxxxxxxxxxx |           69 |           69 |           69 |xxxxxxxxxxxxx |xxxxxxxxxxxxx |xxxxxxxxxxxxx |xxxxxxxxxxxxx |           71 |           71 |           71 |xxxxxxxxxxxxx |xxxxxxxxxxxxx |xxxxxxxxxxxxx |xxxxxxxxxxxxx |           69 |           69 |           69 |xxxxxxxxxxxxx |xxxxxxxxxxxxx |xxxxxxxxxxxxx |xxxxxxxxxxxxx |           71 |           71 |           71 |xxxxxxxxxxxxx |xxxxxxxxxxxxx |xxxxxxxxxxxxx |xxxxxxxxxxxxx |           69 |           69 |           69 |xxxxxxxxxxxxx |xxxxxxxxxxxxx |xxxxxxxxxxxxx |xxxxxxxxxxxxx |           75 |           75 |           75 |xxxxxxxxxxxxx |xxxxxxxxxxxxx |xxxxxxxxxxxxx |xxxxxxxxxxxxx |           72 |           72 |           72 |xxxxxxxxxxxxx |xxxxxxxxxxxxx |xxxxxxxxxxxxx |xxxxxxxxxxxxx |           75 |           75 |           75 |
bpred_bimod.jr_seen                             64 |           64 |           64 |xxxxxxxxxxxxx |xxxxxxxxxxxxx |xxxxxxxxxxxxx |xxxxxxxxxxxxx |           70 |           70 |           70 |xxxxxxxxxxxxx |xxxxxxxxxxxxx |xxxxxxxxxxxxx |xxxxxxxxxxxxx |           73 |           73 |           73 |xxxxxxxxxxxxx |xxxxxxxxxxxxx |xxxxxxxxxxxxx |xxxxxxxxxxxxx |           70 |           70 |           70 |xxxxxxxxxxxxx |xxxxxxxxxxxxx |xxxxxxxxxxxxx |xxxxxxxxxxxxx |           73 |           73 |           73 |xxxxxxxxxxxxx |xxxxxxxxxxxxx |xxxxxxxxxxxxx |xxxxxxxxxxxxx |           70 |           70 |           70 |xxxxxxxxxxxxx |xxxxxxxxxxxxx |xxxxxxxxxxxxx |xxxxxxxxxxxxx |           73 |           73 |           73 |xxxxxxxxxxxxx |xxxxxxxxxxxxx |xxxxxxxxxxxxx |xxxxxxxxxxxxx |           70 |           70 |           70 |xxxxxxxxxxxxx |xxxxxxxxxxxxx |xxxxxxxxxxxxx |xxxxxxxxxxxxx |           76 |           76 |           76 |xxxxxxxxxxxxx |xxxxxxxxxxxxx |xxxxxxxxxxxxx |xxxxxxxxxxxxx |           73 |           73 |           73 |xxxxxxxxxxxxx |xxxxxxxxxxxxx |xxxxxxxxxxxxx |xxxxxxxxxxxxx |           76 |           76 |           76 |
bpred_bimod.jr_non_ras_hits.PP                   0 |            0 |            0 |xxxxxxxxxxxxx |xxxxxxxxxxxxx |xxxxxxxxxxxxx |xxxxxxxxxxxxx |            0 |            0 |            0 |xxxxxxxxxxxxx |xxxxxxxxxxxxx |xxxxxxxxxxxxx |xxxxxxxxxxxxx |            0 |            0 |            0 |xxxxxxxxxxxxx |xxxxxxxxxxxxx |xxxxxxxxxxxxx |xxxxxxxxxxxxx |            0 |            0 |            0 |xxxxxxxxxxxxx |xxxxxxxxxxxxx |xxxxxxxxxxxxx |xxxxxxxxxxxxx |            0 |            0 |            0 |xxxxxxxxxxxxx |xxxxxxxxxxxxx |xxxxxxxxxxxxx |xxxxxxxxxxxxx |            0 |            0 |            0 |xxxxxxxxxxxxx |xxxxxxxxxxxxx |xxxxxxxxxxxxx |xxxxxxxxxxxxx |            0 |            0 |            0 |xxxxxxxxxxxxx |xxxxxxxxxxxxx |xxxxxxxxxxxxx |xxxxxxxxxxxxx |            0 |            0 |            0 |xxxxxxxxxxxxx |xxxxxxxxxxxxx |xxxxxxxxxxxxx |xxxxxxxxxxxxx |            1 |            1 |            1 |xxxxxxxxxxxxx |xxxxxxxxxxxxx |xxxxxxxxxxxxx |xxxxxxxxxxxxx |            0 |            0 |            0 |xxxxxxxxxxxxx |xxxxxxxxxxxxx |xxxxxxxxxxxxx |xxxxxxxxxxxxx |            1 |            1 |            1 |
bpred_bimod.jr_non_ras_seen.PP                   1 |            1 |            1 |xxxxxxxxxxxxx |xxxxxxxxxxxxx |xxxxxxxxxxxxx |xxxxxxxxxxxxx |            0 |            0 |            0 |xxxxxxxxxxxxx |xxxxxxxxxxxxx |xxxxxxxxxxxxx |xxxxxxxxxxxxx |            1 |            1 |            1 |xxxxxxxxxxxxx |xxxxxxxxxxxxx |xxxxxxxxxxxxx |xxxxxxxxxxxxx |            0 |            0 |            0 |xxxxxxxxxxxxx |xxxxxxxxxxxxx |xxxxxxxxxxxxx |xxxxxxxxxxxxx |            1 |            1 |            1 |xxxxxxxxxxxxx |xxxxxxxxxxxxx |xxxxxxxxxxxxx |xxxxxxxxxxxxx |            0 |            0 |            0 |xxxxxxxxxxxxx |xxxxxxxxxxxxx |xxxxxxxxxxxxx |xxxxxxxxxxxxx |            1 |            1 |            1 |xxxxxxxxxxxxx |xxxxxxxxxxxxx |xxxxxxxxxxxxx |xxxxxxxxxxxxx |            0 |            0 |            0 |xxxxxxxxxxxxx |xxxxxxxxxxxxx |xxxxxxxxxxxxx |xxxxxxxxxxxxx |            2 |            2 |            2 |xxxxxxxxxxxxx |xxxxxxxxxxxxx |xxxxxxxxxxxxx |xxxxxxxxxxxxx |            1 |            1 |            1 |xxxxxxxxxxxxx |xxxxxxxxxxxxx |xxxxxxxxxxxxx |xxxxxxxxxxxxx |            2 |            2 |            2 |
bpred_bimod.bpred_addr_rate                 0.7752 |       0.7752 |       0.7753 |xxxxxxxxxxxxx |xxxxxxxxxxxxx |xxxxxxxxxxxxx |xxxxxxxxxxxxx |       0.7779 |       0.7779 |       0.7779 |xxxxxxxxxxxxx |xxxxxxxxxxxxx |xxxxxxxxxxxxx |xxxxxxxxxxxxx |       0.7801 |       0.7801 |       0.7802 |xxxxxxxxxxxxx |xxxxxxxxxxxxx |xxxxxxxxxxxxx |xxxxxxxxxxxxx |       0.7806 |       0.7806 |       0.7806 |xxxxxxxxxxxxx |xxxxxxxxxxxxx |xxxxxxxxxxxxx |xxxxxxxxxxxxx |       0.7822 |       0.7822 |       0.7822 |xxxxxxxxxxxxx |xxxxxxxxxxxxx |xxxxxxxxxxxxx |xxxxxxxxxxxxx |       0.7829 |       0.7829 |       0.7829 |xxxxxxxxxxxxx |xxxxxxxxxxxxx |xxxxxxxxxxxxx |xxxxxxxxxxxxx |       0.7846 |       0.7846 |       0.7846 |xxxxxxxxxxxxx |xxxxxxxxxxxxx |xxxxxxxxxxxxx |xxxxxxxxxxxxx |       0.7849 |       0.7849 |       0.7849 |xxxxxxxxxxxxx |xxxxxxxxxxxxx |xxxxxxxxxxxxx |xxxxxxxxxxxxx |       0.7863 |       0.7863 |       0.7863 |xxxxxxxxxxxxx |xxxxxxxxxxxxx |xxxxxxxxxxxxx |xxxxxxxxxxxxx |       0.7864 |       0.7864 |       0.7864 |xxxxxxxxxxxxx |xxxxxxxxxxxxx |xxxxxxxxxxxxx |xxxxxxxxxxxxx |       0.7876 |       0.7876 |       0.7876 |
bpred_bimod.bpred_dir_rate                  0.7762 |       0.7762 |       0.7762 |xxxxxxxxxxxxx |xxxxxxxxxxxxx |xxxxxxxxxxxxx |xxxxxxxxxxxxx |       0.7783 |       0.7783 |       0.7784 |xxxxxxxxxxxxx |xxxxxxxxxxxxx |xxxxxxxxxxxxx |xxxxxxxxxxxxx |       0.7804 |       0.7804 |       0.7804 |xxxxxxxxxxxxx |xxxxxxxxxxxxx |xxxxxxxxxxxxx |xxxxxxxxxxxxx |       0.7807 |       0.7807 |       0.7807 |xxxxxxxxxxxxx |xxxxxxxxxxxxx |xxxxxxxxxxxxx |xxxxxxxxxxxxx |       0.7823 |       0.7823 |       0.7823 |xxxxxxxxxxxxx |xxxxxxxxxxxxx |xxxxxxxxxxxxx |xxxxxxxxxxxxx |       0.7829 |       0.7829 |       0.7829 |xxxxxxxxxxxxx |xxxxxxxxxxxxx |xxxxxxxxxxxxx |xxxxxxxxxxxxx |       0.7846 |       0.7846 |       0.7846 |xxxxxxxxxxxxx |xxxxxxxxxxxxx |xxxxxxxxxxxxx |xxxxxxxxxxxxx |       0.7849 |       0.7849 |       0.7849 |xxxxxxxxxxxxx |xxxxxxxxxxxxx |xxxxxxxxxxxxx |xxxxxxxxxxxxx |       0.7863 |       0.7863 |       0.7863 |xxxxxxxxxxxxx |xxxxxxxxxxxxx |xxxxxxxxxxxxx |xxxxxxxxxxxxx |       0.7864 |       0.7864 |       0.7864 |xxxxxxxxxxxxx |xxxxxxxxxxxxx |xxxxxxxxxxxxx |xxxxxxxxxxxxx |       0.7876 |       0.7876 |       0.7876 |
bpred_bimod.bpred_jr_rate                   0.9844 |       0.9844 |       0.9844 |xxxxxxxxxxxxx |xxxxxxxxxxxxx |xxxxxxxxxxxxx |xxxxxxxxxxxxx |       0.9857 |       0.9857 |       0.9857 |xxxxxxxxxxxxx |xxxxxxxxxxxxx |xxxxxxxxxxxxx |xxxxxxxxxxxxx |       0.9726 |       0.9726 |       0.9726 |xxxxxxxxxxxxx |xxxxxxxxxxxxx |xxxxxxxxxxxxx |xxxxxxxxxxxxx |       0.9857 |       0.9857 |       0.9857 |xxxxxxxxxxxxx |xxxxxxxxxxxxx |xxxxxxxxxxxxx |xxxxxxxxxxxxx |       0.9726 |       0.9726 |       0.9726 |xxxxxxxxxxxxx |xxxxxxxxxxxxx |xxxxxxxxxxxxx |xxxxxxxxxxxxx |       0.9857 |       0.9857 |       0.9857 |xxxxxxxxxxxxx |xxxxxxxxxxxxx |xxxxxxxxxxxxx |xxxxxxxxxxxxx |       0.9726 |       0.9726 |       0.9726 |xxxxxxxxxxxxx |xxxxxxxxxxxxx |xxxxxxxxxxxxx |xxxxxxxxxxxxx |       0.9857 |       0.9857 |       0.9857 |xxxxxxxxxxxxx |xxxxxxxxxxxxx |xxxxxxxxxxxxx |xxxxxxxxxxxxx |       0.9868 |       0.9868 |       0.9868 |xxxxxxxxxxxxx |xxxxxxxxxxxxx |xxxxxxxxxxxxx |xxxxxxxxxxxxx |       0.9863 |       0.9863 |       0.9863 |xxxxxxxxxxxxx |xxxxxxxxxxxxx |xxxxxxxxxxxxx |xxxxxxxxxxxxx |       0.9868 |       0.9868 |       0.9868 |
bpred_bimod.bpred_jr_non_ras_rate.PP        0.0000 |       0.0000 |       0.0000 |xxxxxxxxxxxxx |xxxxxxxxxxxxx |xxxxxxxxxxxxx |xxxxxxxxxxxxx |      <error: |      <error: |      <error: |xxxxxxxxxxxxx |xxxxxxxxxxxxx |xxxxxxxxxxxxx |xxxxxxxxxxxxx |       0.0000 |       0.0000 |       0.0000 |xxxxxxxxxxxxx |xxxxxxxxxxxxx |xxxxxxxxxxxxx |xxxxxxxxxxxxx |      <error: |      <error: |      <error: |xxxxxxxxxxxxx |xxxxxxxxxxxxx |xxxxxxxxxxxxx |xxxxxxxxxxxxx |       0.0000 |       0.0000 |       0.0000 |xxxxxxxxxxxxx |xxxxxxxxxxxxx |xxxxxxxxxxxxx |xxxxxxxxxxxxx |      <error: |      <error: |      <error: |xxxxxxxxxxxxx |xxxxxxxxxxxxx |xxxxxxxxxxxxx |xxxxxxxxxxxxx |       0.0000 |       0.0000 |       0.0000 |xxxxxxxxxxxxx |xxxxxxxxxxxxx |xxxxxxxxxxxxx |xxxxxxxxxxxxx |      <error: |      <error: |      <error: |xxxxxxxxxxxxx |xxxxxxxxxxxxx |xxxxxxxxxxxxx |xxxxxxxxxxxxx |       0.5000 |       0.5000 |       0.5000 |xxxxxxxxxxxxx |xxxxxxxxxxxxx |xxxxxxxxxxxxx |xxxxxxxxxxxxx |       0.0000 |       0.0000 |       0.0000 |xxxxxxxxxxxxx |xxxxxxxxxxxxx |xxxxxxxxxxxxx |xxxxxxxxxxxxx |       0.5000 |       0.5000 |       0.5000 |
bpred_bimod.retstack_pushes                     65 |           65 |           65 |xxxxxxxxxxxxx |xxxxxxxxxxxxx |xxxxxxxxxxxxx |xxxxxxxxxxxxx |           72 |           72 |           72 |xxxxxxxxxxxxx |xxxxxxxxxxxxx |xxxxxxxxxxxxx |xxxxxxxxxxxxx |           74 |           74 |           74 |xxxxxxxxxxxxx |xxxxxxxxxxxxx |xxxxxxxxxxxxx |xxxxxxxxxxxxx |           72 |           72 |           72 |xxxxxxxxxxxxx |xxxxxxxxxxxxx |xxxxxxxxxxxxx |xxxxxxxxxxxxx |           74 |           74 |           74 |xxxxxxxxxxxxx |xxxxxxxxxxxxx |xxxxxxxxxxxxx |xxxxxxxxxxxxx |           72 |           72 |           72 |xxxxxxxxxxxxx |xxxxxxxxxxxxx |xxxxxxxxxxxxx |xxxxxxxxxxxxx |           74 |           74 |           74 |xxxxxxxxxxxxx |xxxxxxxxxxxxx |xxxxxxxxxxxxx |xxxxxxxxxxxxx |           72 |           72 |           72 |xxxxxxxxxxxxx |xxxxxxxxxxxxx |xxxxxxxxxxxxx |xxxxxxxxxxxxx |           76 |           76 |           76 |xxxxxxxxxxxxx |xxxxxxxxxxxxx |xxxxxxxxxxxxx |xxxxxxxxxxxxx |           74 |           74 |           74 |xxxxxxxxxxxxx |xxxxxxxxxxxxx |xxxxxxxxxxxxx |xxxxxxxxxxxxx |           76 |           76 |           76 |
bpred_bimod.retstack_pops                       63 |           63 |           63 |xxxxxxxxxxxxx |xxxxxxxxxxxxx |xxxxxxxxxxxxx |xxxxxxxxxxxxx |           70 |           70 |           70 |xxxxxxxxxxxxx |xxxxxxxxxxxxx |xxxxxxxxxxxxx |xxxxxxxxxxxxx |           72 |           72 |           72 |xxxxxxxxxxxxx |xxxxxxxxxxxxx |xxxxxxxxxxxxx |xxxxxxxxxxxxx |           70 |           70 |           70 |xxxxxxxxxxxxx |xxxxxxxxxxxxx |xxxxxxxxxxxxx |xxxxxxxxxxxxx |           72 |           72 |           72 |xxxxxxxxxxxxx |xxxxxxxxxxxxx |xxxxxxxxxxxxx |xxxxxxxxxxxxx |           70 |           70 |           70 |xxxxxxxxxxxxx |xxxxxxxxxxxxx |xxxxxxxxxxxxx |xxxxxxxxxxxxx |           72 |           72 |           72 |xxxxxxxxxxxxx |xxxxxxxxxxxxx |xxxxxxxxxxxxx |xxxxxxxxxxxxx |           70 |           70 |           70 |xxxxxxxxxxxxx |xxxxxxxxxxxxx |xxxxxxxxxxxxx |xxxxxxxxxxxxx |           74 |           74 |           74 |xxxxxxxxxxxxx |xxxxxxxxxxxxx |xxxxxxxxxxxxx |xxxxxxxxxxxxx |           72 |           72 |           72 |xxxxxxxxxxxxx |xxxxxxxxxxxxx |xxxxxxxxxxxxx |xxxxxxxxxxxxx |           74 |           74 |           74 |
bpred_bimod.used_ras.PP                         63 |           63 |           63 |xxxxxxxxxxxxx |xxxxxxxxxxxxx |xxxxxxxxxxxxx |xxxxxxxxxxxxx |           70 |           70 |           70 |xxxxxxxxxxxxx |xxxxxxxxxxxxx |xxxxxxxxxxxxx |xxxxxxxxxxxxx |           72 |           72 |           72 |xxxxxxxxxxxxx |xxxxxxxxxxxxx |xxxxxxxxxxxxx |xxxxxxxxxxxxx |           70 |           70 |           70 |xxxxxxxxxxxxx |xxxxxxxxxxxxx |xxxxxxxxxxxxx |xxxxxxxxxxxxx |           72 |           72 |           72 |xxxxxxxxxxxxx |xxxxxxxxxxxxx |xxxxxxxxxxxxx |xxxxxxxxxxxxx |           70 |           70 |           70 |xxxxxxxxxxxxx |xxxxxxxxxxxxx |xxxxxxxxxxxxx |xxxxxxxxxxxxx |           72 |           72 |           72 |xxxxxxxxxxxxx |xxxxxxxxxxxxx |xxxxxxxxxxxxx |xxxxxxxxxxxxx |           70 |           70 |           70 |xxxxxxxxxxxxx |xxxxxxxxxxxxx |xxxxxxxxxxxxx |xxxxxxxxxxxxx |           74 |           74 |           74 |xxxxxxxxxxxxx |xxxxxxxxxxxxx |xxxxxxxxxxxxx |xxxxxxxxxxxxx |           72 |           72 |           72 |xxxxxxxxxxxxx |xxxxxxxxxxxxx |xxxxxxxxxxxxx |xxxxxxxxxxxxx |           74 |           74 |           74 |
bpred_bimod.ras_hits.PP                         63 |           63 |           63 |xxxxxxxxxxxxx |xxxxxxxxxxxxx |xxxxxxxxxxxxx |xxxxxxxxxxxxx |           69 |           69 |           69 |xxxxxxxxxxxxx |xxxxxxxxxxxxx |xxxxxxxxxxxxx |xxxxxxxxxxxxx |           71 |           71 |           71 |xxxxxxxxxxxxx |xxxxxxxxxxxxx |xxxxxxxxxxxxx |xxxxxxxxxxxxx |           69 |           69 |           69 |xxxxxxxxxxxxx |xxxxxxxxxxxxx |xxxxxxxxxxxxx |xxxxxxxxxxxxx |           71 |           71 |           71 |xxxxxxxxxxxxx |xxxxxxxxxxxxx |xxxxxxxxxxxxx |xxxxxxxxxxxxx |           69 |           69 |           69 |xxxxxxxxxxxxx |xxxxxxxxxxxxx |xxxxxxxxxxxxx |xxxxxxxxxxxxx |           71 |           71 |           71 |xxxxxxxxxxxxx |xxxxxxxxxxxxx |xxxxxxxxxxxxx |xxxxxxxxxxxxx |           69 |           69 |           69 |xxxxxxxxxxxxx |xxxxxxxxxxxxx |xxxxxxxxxxxxx |xxxxxxxxxxxxx |           74 |           74 |           74 |xxxxxxxxxxxxx |xxxxxxxxxxxxx |xxxxxxxxxxxxx |xxxxxxxxxxxxx |           72 |           72 |           72 |xxxxxxxxxxxxx |xxxxxxxxxxxxx |xxxxxxxxxxxxx |xxxxxxxxxxxxx |           74 |           74 |           74 |
bpred_bimod.ras_rate.PP                     1.0000 |       1.0000 |       1.0000 |xxxxxxxxxxxxx |xxxxxxxxxxxxx |xxxxxxxxxxxxx |xxxxxxxxxxxxx |       0.9857 |       0.9857 |       0.9857 |xxxxxxxxxxxxx |xxxxxxxxxxxxx |xxxxxxxxxxxxx |xxxxxxxxxxxxx |       0.9861 |       0.9861 |       0.9861 |xxxxxxxxxxxxx |xxxxxxxxxxxxx |xxxxxxxxxxxxx |xxxxxxxxxxxxx |       0.9857 |       0.9857 |       0.9857 |xxxxxxxxxxxxx |xxxxxxxxxxxxx |xxxxxxxxxxxxx |xxxxxxxxxxxxx |       0.9861 |       0.9861 |       0.9861 |xxxxxxxxxxxxx |xxxxxxxxxxxxx |xxxxxxxxxxxxx |xxxxxxxxxxxxx |       0.9857 |       0.9857 |       0.9857 |xxxxxxxxxxxxx |xxxxxxxxxxxxx |xxxxxxxxxxxxx |xxxxxxxxxxxxx |       0.9861 |       0.9861 |       0.9861 |xxxxxxxxxxxxx |xxxxxxxxxxxxx |xxxxxxxxxxxxx |xxxxxxxxxxxxx |       0.9857 |       0.9857 |       0.9857 |xxxxxxxxxxxxx |xxxxxxxxxxxxx |xxxxxxxxxxxxx |xxxxxxxxxxxxx |       1.0000 |       1.0000 |       1.0000 |xxxxxxxxxxxxx |xxxxxxxxxxxxx |xxxxxxxxxxxxx |xxxxxxxxxxxxx |       1.0000 |       1.0000 |       1.0000 |xxxxxxxxxxxxx |xxxxxxxxxxxxx |xxxxxxxxxxxxx |xxxxxxxxxxxxx |       1.0000 |       1.0000 |       1.0000 |
bpred_2lev.lookups                   xxxxxxxxxxxxx |xxxxxxxxxxxxx |xxxxxxxxxxxxx |       112456 |       112456 |       112456 |       112456 |xxxxxxxxxxxxx |xxxxxxxxxxxxx |xxxxxxxxxxxxx |       243899 |       243899 |       243899 |       243899 |xxxxxxxxxxxxx |xxxxxxxxxxxxx |xxxxxxxxxxxxx |       529925 |       529925 |       529925 |       529925 |xxxxxxxxxxxxx |xxxxxxxxxxxxx |xxxxxxxxxxxxx |      1137056 |      1137056 |      1137056 |      1137056 |xxxxxxxxxxxxx |xxxxxxxxxxxxx |xxxxxxxxxxxxx |      2443661 |      2443661 |      2443661 |      2443661 |xxxxxxxxxxxxx |xxxxxxxxxxxxx |xxxxxxxxxxxxx |      5198643 |      5198643 |      5198643 |      5198643 |xxxxxxxxxxxxx |xxxxxxxxxxxxx |xxxxxxxxxxxxx |     11084411 |     11084411 |     11084411 |     11084411 |xxxxxxxxxxxxx |xxxxxxxxxxxxx |xxxxxxxxxxxxx |     23415400 |     23415400 |     23415400 |     23415400 |xxxxxxxxxxxxx |xxxxxxxxxxxxx |xxxxxxxxxxxxx |     49575515 |     49575515 |     49575515 |     49575515 |xxxxxxxxxxxxx |xxxxxxxxxxxxx |xxxxxxxxxxxxx |    104140801 |    104140801 |    104140801 |    104140801 |xxxxxxxxxxxxx |xxxxxxxxxxxxx |xxxxxxxxxxxxx |    219285111 |    219285111 |    219285111 |    219285111 |
[...]
bpred_2lev.bpred_jr_non_ras_rate.PP  xxxxxxxxxxxxx |xxxxxxxxxxxxx |xxxxxxxxxxxxx |       0.0000 |       0.0000 |       0.0000 |       0.0000 |xxxxxxxxxxxxx |xxxxxxxxxxxxx |xxxxxxxxxxxxx |      <error: |      <error: |      <error: |      <error: |xxxxxxxxxxxxx |xxxxxxxxxxxxx |xxxxxxxxxxxxx |       0.0000 |       0.0000 |       0.0000 |       0.0000 |xxxxxxxxxxxxx |xxxxxxxxxxxxx |xxxxxxxxxxxxx |      <error: |      <error: |      <error: |      <error: |xxxxxxxxxxxxx |xxxxxxxxxxxxx |xxxxxxxxxxxxx |       0.0000 |       0.0000 |       0.0000 |       0.0000 |xxxxxxxxxxxxx |xxxxxxxxxxxxx |xxxxxxxxxxxxx |      <error: |      <error: |      <error: |      <error: |xxxxxxxxxxxxx |xxxxxxxxxxxxx |xxxxxxxxxxxxx |       0.0000 |       0.0000 |       0.0000 |       0.0000 |xxxxxxxxxxxxx |xxxxxxxxxxxxx |xxxxxxxxxxxxx |      <error: |      <error: |      <error: |      <error: |xxxxxxxxxxxxx |xxxxxxxxxxxxx |xxxxxxxxxxxxx |       0.5000 |       0.5000 |       0.5000 |       0.5000 |xxxxxxxxxxxxx |xxxxxxxxxxxxx |xxxxxxxxxxxxx |       0.0000 |       0.0000 |       0.0000 |       0.0000 |xxxxxxxxxxxxx |xxxxxxxxxxxxx |xxxxxxxxxxxxx |       0.5000 |       0.5000 |       0.5000 |       0.5000 |
bpred_2lev.retstack_pushes           xxxxxxxxxxxxx |xxxxxxxxxxxxx |xxxxxxxxxxxxx |           65 |           65 |           65 |           65 |xxxxxxxxxxxxx |xxxxxxxxxxxxx |xxxxxxxxxxxxx |           72 |           72 |           72 |           72 |xxxxxxxxxxxxx |xxxxxxxxxxxxx |xxxxxxxxxxxxx |           74 |           74 |           74 |           74 |xxxxxxxxxxxxx |xxxxxxxxxxxxx |xxxxxxxxxxxxx |           72 |           72 |           72 |           72 |xxxxxxxxxxxxx |xxxxxxxxxxxxx |xxxxxxxxxxxxx |           74 |           74 |           74 |           74 |xxxxxxxxxxxxx |xxxxxxxxxxxxx |xxxxxxxxxxxxx |           72 |           72 |           72 |           72 |xxxxxxxxxxxxx |xxxxxxxxxxxxx |xxxxxxxxxxxxx |           74 |           74 |           74 |           74 |xxxxxxxxxxxxx |xxxxxxxxxxxxx |xxxxxxxxxxxxx |           72 |           72 |           72 |           72 |xxxxxxxxxxxxx |xxxxxxxxxxxxx |xxxxxxxxxxxxx |           76 |           76 |           76 |           76 |xxxxxxxxxxxxx |xxxxxxxxxxxxx |xxxxxxxxxxxxx |           74 |           74 |           74 |           74 |xxxxxxxxxxxxx |xxxxxxxxxxxxx |xxxxxxxxxxxxx |           76 |           76 |           76 |           76 |
bpred_2lev.retstack_pops             xxxxxxxxxxxxx |xxxxxxxxxxxxx |xxxxxxxxxxxxx |           63 |           63 |           63 |           63 |xxxxxxxxxxxxx |xxxxxxxxxxxxx |xxxxxxxxxxxxx |           70 |           70 |           70 |           70 |xxxxxxxxxxxxx |xxxxxxxxxxxxx |xxxxxxxxxxxxx |           72 |           72 |           72 |           72 |xxxxxxxxxxxxx |xxxxxxxxxxxxx |xxxxxxxxxxxxx |           70 |           70 |           70 |           70 |xxxxxxxxxxxxx |xxxxxxxxxxxxx |xxxxxxxxxxxxx |           72 |           72 |           72 |           72 |xxxxxxxxxxxxx |xxxxxxxxxxxxx |xxxxxxxxxxxxx |           70 |           70 |           70 |           70 |xxxxxxxxxxxxx |xxxxxxxxxxxxx |xxxxxxxxxxxxx |           72 |           72 |           72 |           72 |xxxxxxxxxxxxx |xxxxxxxxxxxxx |xxxxxxxxxxxxx |           70 |           70 |           70 |           70 |xxxxxxxxxxxxx |xxxxxxxxxxxxx |xxxxxxxxxxxxx |           74 |           74 |           74 |           74 |xxxxxxxxxxxxx |xxxxxxxxxxxxx |xxxxxxxxxxxxx |           72 |           72 |           72 |           72 |xxxxxxxxxxxxx |xxxxxxxxxxxxx |xxxxxxxxxxxxx |           74 |           74 |           74 |           74 |
bpred_2lev.used_ras.PP               xxxxxxxxxxxxx |xxxxxxxxxxxxx |xxxxxxxxxxxxx |           63 |           63 |           63 |           63 |xxxxxxxxxxxxx |xxxxxxxxxxxxx |xxxxxxxxxxxxx |           70 |           70 |           70 |           70 |xxxxxxxxxxxxx |xxxxxxxxxxxxx |xxxxxxxxxxxxx |           72 |           72 |           72 |           72 |xxxxxxxxxxxxx |xxxxxxxxxxxxx |xxxxxxxxxxxxx |           70 |           70 |           70 |           70 |xxxxxxxxxxxxx |xxxxxxxxxxxxx |xxxxxxxxxxxxx |           72 |           72 |           72 |           72 |xxxxxxxxxxxxx |xxxxxxxxxxxxx |xxxxxxxxxxxxx |           70 |           70 |           70 |           70 |xxxxxxxxxxxxx |xxxxxxxxxxxxx |xxxxxxxxxxxxx |           72 |           72 |           72 |           72 |xxxxxxxxxxxxx |xxxxxxxxxxxxx |xxxxxxxxxxxxx |           70 |           70 |           70 |           70 |xxxxxxxxxxxxx |xxxxxxxxxxxxx |xxxxxxxxxxxxx |           74 |           74 |           74 |           74 |xxxxxxxxxxxxx |xxxxxxxxxxxxx |xxxxxxxxxxxxx |           72 |           72 |           72 |           72 |xxxxxxxxxxxxx |xxxxxxxxxxxxx |xxxxxxxxxxxxx |           74 |           74 |           74 |           74 |
bpred_2lev.ras_hits.PP               xxxxxxxxxxxxx |xxxxxxxxxxxxx |xxxxxxxxxxxxx |           63 |           63 |           63 |           63 |xxxxxxxxxxxxx |xxxxxxxxxxxxx |xxxxxxxxxxxxx |           69 |           69 |           69 |           69 |xxxxxxxxxxxxx |xxxxxxxxxxxxx |xxxxxxxxxxxxx |           71 |           71 |           71 |           71 |xxxxxxxxxxxxx |xxxxxxxxxxxxx |xxxxxxxxxxxxx |           69 |           69 |           69 |           69 |xxxxxxxxxxxxx |xxxxxxxxxxxxx |xxxxxxxxxxxxx |           71 |           71 |           71 |           71 |xxxxxxxxxxxxx |xxxxxxxxxxxxx |xxxxxxxxxxxxx |           69 |           69 |           69 |           69 |xxxxxxxxxxxxx |xxxxxxxxxxxxx |xxxxxxxxxxxxx |           71 |           71 |           71 |           71 |xxxxxxxxxxxxx |xxxxxxxxxxxxx |xxxxxxxxxxxxx |           69 |           69 |           69 |           69 |xxxxxxxxxxxxx |xxxxxxxxxxxxx |xxxxxxxxxxxxx |           74 |           74 |           74 |           74 |xxxxxxxxxxxxx |xxxxxxxxxxxxx |xxxxxxxxxxxxx |           72 |           72 |           72 |           72 |xxxxxxxxxxxxx |xxxxxxxxxxxxx |xxxxxxxxxxxxx |           74 |           74 |           74 |           74 |
bpred_2lev.ras_rate.PP               xxxxxxxxxxxxx |xxxxxxxxxxxxx |xxxxxxxxxxxxx |       1.0000 |       1.0000 |       1.0000 |       1.0000 |xxxxxxxxxxxxx |xxxxxxxxxxxxx |xxxxxxxxxxxxx |       0.9857 |       0.9857 |       0.9857 |       0.9857 |xxxxxxxxxxxxx |xxxxxxxxxxxxx |xxxxxxxxxxxxx |       0.9861 |       0.9861 |       0.9861 |       0.9861 |xxxxxxxxxxxxx |xxxxxxxxxxxxx |xxxxxxxxxxxxx |       0.9857 |       0.9857 |       0.9857 |       0.9857 |xxxxxxxxxxxxx |xxxxxxxxxxxxx |xxxxxxxxxxxxx |       0.9861 |       0.9861 |       0.9861 |       0.9861 |xxxxxxxxxxxxx |xxxxxxxxxxxxx |xxxxxxxxxxxxx |       0.9857 |       0.9857 |       0.9857 |       0.9857 |xxxxxxxxxxxxx |xxxxxxxxxxxxx |xxxxxxxxxxxxx |       0.9861 |       0.9861 |       0.9861 |       0.9861 |xxxxxxxxxxxxx |xxxxxxxxxxxxx |xxxxxxxxxxxxx |       0.9857 |       0.9857 |       0.9857 |       0.9857 |xxxxxxxxxxxxx |xxxxxxxxxxxxx |xxxxxxxxxxxxx |       1.0000 |       1.0000 |       1.0000 |       1.0000 |xxxxxxxxxxxxx |xxxxxxxxxxxxx |xxxxxxxxxxxxx |       1.0000 |       1.0000 |       1.0000 |       1.0000 |xxxxxxxxxxxxx |xxxxxxxxxxxxx |xxxxxxxxxxxxx |       1.0000 |       1.0000 |       1.0000 |       1.0000 |

Command list: 
	sslittle-na-sstrix-gcc -Wall -O3 -funroll-loops -finline-functions  -DRANDOM_SIZE=4096 -DOFFSET=6 -DSORT=algorithm_n sorts/algorithm_n8755138.c simpleMain.c -o algorithm_n1062192827
	sim-cache -cache:dl1 dl1:256:32:1:l -cache:dl2 dl2:131072:32:1:l -cache:il1 il1:256:32:1:l -cache:il2 dl2 algorithm_n1062192827
	sim-cache -cache:dl1 dl1:256:32:1:l -cache:dl2 dl2:65536:32:1:l -cache:il1 il1:256:32:1:l -cache:il2 dl2 algorithm_n1062192827
	sim-cache -cache:dl1 dl1:1:32:256:l -cache:dl2 dl2:1:32:131072:l -cache:il1 il1:1:32:256:l -cache:il2 dl2 algorithm_n1062192827
	sim-cache -cache:dl1 dl1:1:32:256:l -cache:dl2 dl2:1:32:65536:l -cache:il1 il1:1:32:256:l -cache:il2 dl2 algorithm_n1062192827
	sim-bpred -bpred bimod -bpred:bimod 512 algorithm_n1062192827
	sim-bpred -bpred bimod -bpred:bimod 1024 algorithm_n1062192827
	sim-bpred -bpred bimod -bpred:bimod 2048 algorithm_n1062192827
	sim-bpred -bpred 2lev -bpred:2lev 1 512 10 1 algorithm_n1062192827
	sim-bpred -bpred 2lev -bpred:2lev 1 1024 10 1 algorithm_n1062192827
	sim-bpred -bpred 2lev -bpred:2lev 1 2048 10 1 algorithm_n1062192827
	sim-bpred -bpred 2lev -bpred:2lev 1 4096 10 1 algorithm_n1062192827
	sslittle-na-sstrix-gcc -Wall -O3 -funroll-loops -finline-functions  -DRANDOM_SIZE=8192 -DOFFSET=6 -DSORT=algorithm_n sorts/algorithm_n8755138.c simpleMain.c -o algorithm_n1062192827
	sim-cache -cache:dl1 dl1:256:32:1:l -cache:dl2 dl2:131072:32:1:l -cache:il1 il1:256:32:1:l -cache:il2 dl2 algorithm_n1062192827
	sim-cache -cache:dl1 dl1:256:32:1:l -cache:dl2 dl2:65536:32:1:l -cache:il1 il1:256:32:1:l -cache:il2 dl2 algorithm_n1062192827
	sim-cache -cache:dl1 dl1:1:32:256:l -cache:dl2 dl2:1:32:131072:l -cache:il1 il1:1:32:256:l -cache:il2 dl2 algorithm_n1062192827
	sim-cache -cache:dl1 dl1:1:32:256:l -cache:dl2 dl2:1:32:65536:l -cache:il1 il1:1:32:256:l -cache:il2 dl2 algorithm_n1062192827
	sim-bpred -bpred bimod -bpred:bimod 512 algorithm_n1062192827
	sim-bpred -bpred bimod -bpred:bimod 1024 algorithm_n1062192827
	sim-bpred -bpred bimod -bpred:bimod 2048 algorithm_n1062192827
	sim-bpred -bpred 2lev -bpred:2lev 1 512 10 1 algorithm_n1062192827
	sim-bpred -bpred 2lev -bpred:2lev 1 1024 10 1 algorithm_n1062192827
	sim-bpred -bpred 2lev -bpred:2lev 1 2048 10 1 algorithm_n1062192827
	sim-bpred -bpred 2lev -bpred:2lev 1 4096 10 1 algorithm_n1062192827
	sslittle-na-sstrix-gcc -Wall -O3 -funroll-loops -finline-functions  -DRANDOM_SIZE=16384 -DOFFSET=6 -DSORT=algorithm_n sorts/algorithm_n8755138.c simpleMain.c -o algorithm_n1062192827
	sim-cache -cache:dl1 dl1:256:32:1:l -cache:dl2 dl2:131072:32:1:l -cache:il1 il1:256:32:1:l -cache:il2 dl2 algorithm_n1062192827
	sim-cache -cache:dl1 dl1:256:32:1:l -cache:dl2 dl2:65536:32:1:l -cache:il1 il1:256:32:1:l -cache:il2 dl2 algorithm_n1062192827
	sim-cache -cache:dl1 dl1:1:32:256:l -cache:dl2 dl2:1:32:131072:l -cache:il1 il1:1:32:256:l -cache:il2 dl2 algorithm_n1062192827
	sim-cache -cache:dl1 dl1:1:32:256:l -cache:dl2 dl2:1:32:65536:l -cache:il1 il1:1:32:256:l -cache:il2 dl2 algorithm_n1062192827
	sim-bpred -bpred bimod -bpred:bimod 512 algorithm_n1062192827
	sim-bpred -bpred bimod -bpred:bimod 1024 algorithm_n1062192827
	sim-bpred -bpred bimod -bpred:bimod 2048 algorithm_n1062192827
	sim-bpred -bpred 2lev -bpred:2lev 1 512 10 1 algorithm_n1062192827
	sim-bpred -bpred 2lev -bpred:2lev 1 1024 10 1 algorithm_n1062192827
	sim-bpred -bpred 2lev -bpred:2lev 1 2048 10 1 algorithm_n1062192827
	sim-bpred -bpred 2lev -bpred:2lev 1 4096 10 1 algorithm_n1062192827
	sslittle-na-sstrix-gcc -Wall -O3 -funroll-loops -finline-functions  -DRANDOM_SIZE=32768 -DOFFSET=6 -DSORT=algorithm_n sorts/algorithm_n8755138.c simpleMain.c -o algorithm_n1062192827
	sim-cache -cache:dl1 dl1:256:32:1:l -cache:dl2 dl2:131072:32:1:l -cache:il1 il1:256:32:1:l -cache:il2 dl2 algorithm_n1062192827
	sim-cache -cache:dl1 dl1:256:32:1:l -cache:dl2 dl2:65536:32:1:l -cache:il1 il1:256:32:1:l -cache:il2 dl2 algorithm_n1062192827
	sim-cache -cache:dl1 dl1:1:32:256:l -cache:dl2 dl2:1:32:131072:l -cache:il1 il1:1:32:256:l -cache:il2 dl2 algorithm_n1062192827
	sim-cache -cache:dl1 dl1:1:32:256:l -cache:dl2 dl2:1:32:65536:l -cache:il1 il1:1:32:256:l -cache:il2 dl2 algorithm_n1062192827
	sim-bpred -bpred bimod -bpred:bimod 512 algorithm_n1062192827
	sim-bpred -bpred bimod -bpred:bimod 1024 algorithm_n1062192827
	sim-bpred -bpred bimod -bpred:bimod 2048 algorithm_n1062192827
	sim-bpred -bpred 2lev -bpred:2lev 1 512 10 1 algorithm_n1062192827
	sim-bpred -bpred 2lev -bpred:2lev 1 1024 10 1 algorithm_n1062192827
	sim-bpred -bpred 2lev -bpred:2lev 1 2048 10 1 algorithm_n1062192827
	sim-bpred -bpred 2lev -bpred:2lev 1 4096 10 1 algorithm_n1062192827
	sslittle-na-sstrix-gcc -Wall -O3 -funroll-loops -finline-functions  -DRANDOM_SIZE=65536 -DOFFSET=6 -DSORT=algorithm_n sorts/algorithm_n8755138.c simpleMain.c -o algorithm_n1062192827
	sim-cache -cache:dl1 dl1:256:32:1:l -cache:dl2 dl2:131072:32:1:l -cache:il1 il1:256:32:1:l -cache:il2 dl2 algorithm_n1062192827
	sim-cache -cache:dl1 dl1:256:32:1:l -cache:dl2 dl2:65536:32:1:l -cache:il1 il1:256:32:1:l -cache:il2 dl2 algorithm_n1062192827
	sim-cache -cache:dl1 dl1:1:32:256:l -cache:dl2 dl2:1:32:131072:l -cache:il1 il1:1:32:256:l -cache:il2 dl2 algorithm_n1062192827
	sim-cache -cache:dl1 dl1:1:32:256:l -cache:dl2 dl2:1:32:65536:l -cache:il1 il1:1:32:256:l -cache:il2 dl2 algorithm_n1062192827
	sim-bpred -bpred bimod -bpred:bimod 512 algorithm_n1062192827
	sim-bpred -bpred bimod -bpred:bimod 1024 algorithm_n1062192827
	sim-bpred -bpred bimod -bpred:bimod 2048 algorithm_n1062192827
	sim-bpred -bpred 2lev -bpred:2lev 1 512 10 1 algorithm_n1062192827
	sim-bpred -bpred 2lev -bpred:2lev 1 1024 10 1 algorithm_n1062192827
	sim-bpred -bpred 2lev -bpred:2lev 1 2048 10 1 algorithm_n1062192827
	sim-bpred -bpred 2lev -bpred:2lev 1 4096 10 1 algorithm_n1062192827
	sslittle-na-sstrix-gcc -Wall -O3 -funroll-loops -finline-functions  -DRANDOM_SIZE=131072 -DOFFSET=6 -DSORT=algorithm_n sorts/algorithm_n8755138.c simpleMain.c -o algorithm_n1062192827
	sim-cache -cache:dl1 dl1:256:32:1:l -cache:dl2 dl2:131072:32:1:l -cache:il1 il1:256:32:1:l -cache:il2 dl2 algorithm_n1062192827
	sim-cache -cache:dl1 dl1:256:32:1:l -cache:dl2 dl2:65536:32:1:l -cache:il1 il1:256:32:1:l -cache:il2 dl2 algorithm_n1062192827
	sim-cache -cache:dl1 dl1:1:32:256:l -cache:dl2 dl2:1:32:131072:l -cache:il1 il1:1:32:256:l -cache:il2 dl2 algorithm_n1062192827
	sim-cache -cache:dl1 dl1:1:32:256:l -cache:dl2 dl2:1:32:65536:l -cache:il1 il1:1:32:256:l -cache:il2 dl2 algorithm_n1062192827
	sim-bpred -bpred bimod -bpred:bimod 512 algorithm_n1062192827
	sim-bpred -bpred bimod -bpred:bimod 1024 algorithm_n1062192827
	sim-bpred -bpred bimod -bpred:bimod 2048 algorithm_n1062192827
	sim-bpred -bpred 2lev -bpred:2lev 1 512 10 1 algorithm_n1062192827
	sim-bpred -bpred 2lev -bpred:2lev 1 1024 10 1 algorithm_n1062192827
	sim-bpred -bpred 2lev -bpred:2lev 1 2048 10 1 algorithm_n1062192827
	sim-bpred -bpred 2lev -bpred:2lev 1 4096 10 1 algorithm_n1062192827
	sslittle-na-sstrix-gcc -Wall -O3 -funroll-loops -finline-functions  -DRANDOM_SIZE=262144 -DOFFSET=6 -DSORT=algorithm_n sorts/algorithm_n8755138.c simpleMain.c -o algorithm_n1062192827
	sim-cache -cache:dl1 dl1:256:32:1:l -cache:dl2 dl2:131072:32:1:l -cache:il1 il1:256:32:1:l -cache:il2 dl2 algorithm_n1062192827
	sim-cache -cache:dl1 dl1:256:32:1:l -cache:dl2 dl2:65536:32:1:l -cache:il1 il1:256:32:1:l -cache:il2 dl2 algorithm_n1062192827
	sim-cache -cache:dl1 dl1:1:32:256:l -cache:dl2 dl2:1:32:131072:l -cache:il1 il1:1:32:256:l -cache:il2 dl2 algorithm_n1062192827
	sim-cache -cache:dl1 dl1:1:32:256:l -cache:dl2 dl2:1:32:65536:l -cache:il1 il1:1:32:256:l -cache:il2 dl2 algorithm_n1062192827
	sim-bpred -bpred bimod -bpred:bimod 512 algorithm_n1062192827
	sim-bpred -bpred bimod -bpred:bimod 1024 algorithm_n1062192827
	sim-bpred -bpred bimod -bpred:bimod 2048 algorithm_n1062192827
	sim-bpred -bpred 2lev -bpred:2lev 1 512 10 1 algorithm_n1062192827
	sim-bpred -bpred 2lev -bpred:2lev 1 1024 10 1 algorithm_n1062192827
	sim-bpred -bpred 2lev -bpred:2lev 1 2048 10 1 algorithm_n1062192827
	sim-bpred -bpred 2lev -bpred:2lev 1 4096 10 1 algorithm_n1062192827
	sslittle-na-sstrix-gcc -Wall -O3 -funroll-loops -finline-functions  -DRANDOM_SIZE=524288 -DOFFSET=6 -DSORT=algorithm_n sorts/algorithm_n8755138.c simpleMain.c -o algorithm_n1062192827
	sim-cache -cache:dl1 dl1:256:32:1:l -cache:dl2 dl2:131072:32:1:l -cache:il1 il1:256:32:1:l -cache:il2 dl2 algorithm_n1062192827
	sim-cache -cache:dl1 dl1:256:32:1:l -cache:dl2 dl2:65536:32:1:l -cache:il1 il1:256:32:1:l -cache:il2 dl2 algorithm_n1062192827
	sim-cache -cache:dl1 dl1:1:32:256:l -cache:dl2 dl2:1:32:131072:l -cache:il1 il1:1:32:256:l -cache:il2 dl2 algorithm_n1062192827
	sim-cache -cache:dl1 dl1:1:32:256:l -cache:dl2 dl2:1:32:65536:l -cache:il1 il1:1:32:256:l -cache:il2 dl2 algorithm_n1062192827
	sim-bpred -bpred bimod -bpred:bimod 512 algorithm_n1062192827
	sim-bpred -bpred bimod -bpred:bimod 1024 algorithm_n1062192827
	sim-bpred -bpred bimod -bpred:bimod 2048 algorithm_n1062192827
	sim-bpred -bpred 2lev -bpred:2lev 1 512 10 1 algorithm_n1062192827
	sim-bpred -bpred 2lev -bpred:2lev 1 1024 10 1 algorithm_n1062192827
	sim-bpred -bpred 2lev -bpred:2lev 1 2048 10 1 algorithm_n1062192827
	sim-bpred -bpred 2lev -bpred:2lev 1 4096 10 1 algorithm_n1062192827
	sslittle-na-sstrix-gcc -Wall -O3 -funroll-loops -finline-functions  -DRANDOM_SIZE=1048576 -DOFFSET=6 -DSORT=algorithm_n sorts/algorithm_n8755138.c simpleMain.c -o algorithm_n1062192827
	sim-cache -cache:dl1 dl1:256:32:1:l -cache:dl2 dl2:131072:32:1:l -cache:il1 il1:256:32:1:l -cache:il2 dl2 algorithm_n1062192827
	sim-cache -cache:dl1 dl1:256:32:1:l -cache:dl2 dl2:65536:32:1:l -cache:il1 il1:256:32:1:l -cache:il2 dl2 algorithm_n1062192827
	sim-cache -cache:dl1 dl1:1:32:256:l -cache:dl2 dl2:1:32:131072:l -cache:il1 il1:1:32:256:l -cache:il2 dl2 algorithm_n1062192827
	sim-cache -cache:dl1 dl1:1:32:256:l -cache:dl2 dl2:1:32:65536:l -cache:il1 il1:1:32:256:l -cache:il2 dl2 algorithm_n1062192827
	sim-bpred -bpred bimod -bpred:bimod 512 algorithm_n1062192827
	sim-bpred -bpred bimod -bpred:bimod 1024 algorithm_n1062192827
	sim-bpred -bpred bimod -bpred:bimod 2048 algorithm_n1062192827
	sim-bpred -bpred 2lev -bpred:2lev 1 512 10 1 algorithm_n1062192827
	sim-bpred -bpred 2lev -bpred:2lev 1 1024 10 1 algorithm_n1062192827
	sim-bpred -bpred 2lev -bpred:2lev 1 2048 10 1 algorithm_n1062192827
	sim-bpred -bpred 2lev -bpred:2lev 1 4096 10 1 algorithm_n1062192827
	sslittle-na-sstrix-gcc -Wall -O3 -funroll-loops -finline-functions  -DRANDOM_SIZE=2097152 -DOFFSET=6 -DSORT=algorithm_n sorts/algorithm_n8755138.c simpleMain.c -o algorithm_n1062192827
	sim-cache -cache:dl1 dl1:256:32:1:l -cache:dl2 dl2:131072:32:1:l -cache:il1 il1:256:32:1:l -cache:il2 dl2 algorithm_n1062192827
	sim-cache -cache:dl1 dl1:256:32:1:l -cache:dl2 dl2:65536:32:1:l -cache:il1 il1:256:32:1:l -cache:il2 dl2 algorithm_n1062192827
	sim-cache -cache:dl1 dl1:1:32:256:l -cache:dl2 dl2:1:32:131072:l -cache:il1 il1:1:32:256:l -cache:il2 dl2 algorithm_n1062192827
	sim-cache -cache:dl1 dl1:1:32:256:l -cache:dl2 dl2:1:32:65536:l -cache:il1 il1:1:32:256:l -cache:il2 dl2 algorithm_n1062192827
	sim-bpred -bpred bimod -bpred:bimod 512 algorithm_n1062192827
	sim-bpred -bpred bimod -bpred:bimod 1024 algorithm_n1062192827
	sim-bpred -bpred bimod -bpred:bimod 2048 algorithm_n1062192827
	sim-bpred -bpred 2lev -bpred:2lev 1 512 10 1 algorithm_n1062192827
	sim-bpred -bpred 2lev -bpred:2lev 1 1024 10 1 algorithm_n1062192827
	sim-bpred -bpred 2lev -bpred:2lev 1 2048 10 1 algorithm_n1062192827
	sim-bpred -bpred 2lev -bpred:2lev 1 4096 10 1 algorithm_n1062192827
	sslittle-na-sstrix-gcc -Wall -O3 -funroll-loops -finline-functions  -DRANDOM_SIZE=4194304 -DOFFSET=6 -DSORT=algorithm_n sorts/algorithm_n8755138.c simpleMain.c -o algorithm_n1062192827
	sim-cache -cache:dl1 dl1:256:32:1:l -cache:dl2 dl2:131072:32:1:l -cache:il1 il1:256:32:1:l -cache:il2 dl2 algorithm_n1062192827
	sim-cache -cache:dl1 dl1:256:32:1:l -cache:dl2 dl2:65536:32:1:l -cache:il1 il1:256:32:1:l -cache:il2 dl2 algorithm_n1062192827
	sim-cache -cache:dl1 dl1:1:32:256:l -cache:dl2 dl2:1:32:131072:l -cache:il1 il1:1:32:256:l -cache:il2 dl2 algorithm_n1062192827
	sim-cache -cache:dl1 dl1:1:32:256:l -cache:dl2 dl2:1:32:65536:l -cache:il1 il1:1:32:256:l -cache:il2 dl2 algorithm_n1062192827
	sim-bpred -bpred bimod -bpred:bimod 512 algorithm_n1062192827
	sim-bpred -bpred bimod -bpred:bimod 1024 algorithm_n1062192827
	sim-bpred -bpred bimod -bpred:bimod 2048 algorithm_n1062192827
	sim-bpred -bpred 2lev -bpred:2lev 1 512 10 1 algorithm_n1062192827
	sim-bpred -bpred 2lev -bpred:2lev 1 1024 10 1 algorithm_n1062192827
	sim-bpred -bpred 2lev -bpred:2lev 1 2048 10 1 algorithm_n1062192827
	sim-bpred -bpred 2lev -bpred:2lev 1 4096 10 1 algorithm_n1062192827
