Tue Jun 14 17:38:51 2005
Run as: "./simple -c random.org0 -o 0 algorithm_s"
-------------------------------------------------------------------------------------------------
sim-cache                                     4096 |         4096 |         4096 |         4096 |         8192 |         8192 |         8192 |         8192 |        16384 |        16384 |        16384 |        16384 |        32768 |        32768 |        32768 |        32768 |        65536 |        65536 |        65536 |        65536 |       131072 |       131072 |       131072 |       131072 |       262144 |       262144 |       262144 |       262144 |       524288 |       524288 |       524288 |       524288 |      1048576 |      1048576 |      1048576 |      1048576 |      2097152 |      2097152 |      2097152 |      2097152 |      4194304 |      4194304 |      4194304 |      4194304 |
-cache:dl1 dl1:256:32:1:l -cache:dl2 dl2:131072:32:1:l -cache:il1 il1:256:32:1:l -cache:il2 dl2
-cache:dl1 dl1:256:32:1:l -cache:dl2 dl2:65536:32:1:l -cache:il1 il1:256:32:1:l -cache:il2 dl2
-cache:dl1 dl1:1:32:256:l -cache:dl2 dl2:1:32:131072:l -cache:il1 il1:1:32:256:l -cache:il2 dl2
-cache:dl1 dl1:1:32:256:l -cache:dl2 dl2:1:32:65536:l -cache:il1 il1:1:32:256:l -cache:il2 dl2
-------------------------------------------------------------------------------------------------
sim_num_insn                                766173 |       766173 |       766173 |       766173 |      1669208 |      1669208 |      1669208 |      1669208 |      3536543 |      3536543 |      3536543 |      3536543 |      7640417 |      7640417 |      7640417 |      7640417 |     16091682 |     16091682 |     16091682 |     16091682 |     34470172 |     34470172 |     34470172 |     34470172 |     72211284 |     72211284 |     72211284 |     72211284 |    153591257 |    153591257 |    153591257 |    153591257 |    320299981 |    320299981 |    320299981 |    320299981 |    677289674 |    677289674 |    677289674 |    677289674 |   1406996781 |   1406996781 |   1406996781 |   1406996781 |
sim_num_refs                                145999 |       145999 |       145999 |       145999 |       329267 |       329267 |       329267 |       329267 |       671203 |       671203 |       671203 |       671203 |      1502559 |      1502559 |      1502559 |      1502559 |      3066493 |      3066493 |      3066493 |      3066493 |      6784615 |      6784615 |      6784615 |      6784615 |     13827894 |     13827894 |     13827894 |     13827894 |     30273403 |     30273403 |     30273403 |     30273403 |     61602135 |     61602135 |     61602135 |     61602135 |    133682741 |    133682741 |    133682741 |    133682741 |    271552529 |    271552529 |    271552529 |    271552529 |
sim_elapsed_time                                 1 |            1 |            9 |            5 |            1 |            1 |           15 |            8 |            1 |            1 |           26 |           13 |            2 |            2 |           47 |           24 |            4 |            4 |           88 |           43 |            9 |            9 |          162 |           74 |           18 |           19 |          277 |          106 |           39 |           40 |          384 |          130 |           83 |           82 |          433 |          179 |          175 |          174 |          542 |          287 |          361 |          360 |          762 |          507 |
sim_inst_rate                          766173.0000 |  766173.0000 |   85130.3333 |  153234.6000 | 1669208.0000 | 1669208.0000 |  111280.5333 |  208651.0000 | 3536543.0000 | 3536543.0000 |  136020.8846 |  272041.7692 | 3820208.5000 | 3820208.5000 |  162562.0638 |  318350.7083 | 4022920.5000 | 4022920.5000 |  182860.0227 |  374225.1628 | 3830019.1111 | 3830019.1111 |  212778.8395 |  465813.1351 | 4011738.0000 | 3800593.8947 |  260690.5560 |  681238.5283 | 3938237.3590 | 3839781.4250 |  399977.2318 | 1181471.2077 | 3859035.9157 | 3906097.3293 |  739722.8199 | 1789385.3687 | 3870226.7086 | 3892469.3908 | 1249611.9446 | 2359894.3345 | 3897498.0083 | 3908324.3917 | 1846452.4685 | 2775141.5799 |
il1.accesses                                766173 |       766173 |       766173 |       766173 |      1669208 |      1669208 |      1669208 |      1669208 |      3536543 |      3536543 |      3536543 |      3536543 |      7640417 |      7640417 |      7640417 |      7640417 |     16091682 |     16091682 |     16091682 |     16091682 |     34470172 |     34470172 |     34470172 |     34470172 |     72211284 |     72211284 |     72211284 |     72211284 |    153591257 |    153591257 |    153591257 |    153591257 |    320299981 |    320299981 |    320299981 |    320299981 |    677289674 |    677289674 |    677289674 |    677289674 |   1406996781 |   1406996781 |   1406996781 |   1406996781 |
il1.hits                                    765766 |       765766 |       765825 |       765825 |      1668752 |      1668752 |      1668849 |      1668849 |      3536100 |      3536100 |      3536208 |      3536208 |      7639961 |      7639961 |      7640057 |      7640057 |     16091246 |     16091246 |     16091342 |     16091342 |     34469717 |     34469717 |     34469813 |     34469813 |     72210849 |     72210849 |     72210945 |     72210945 |    153590802 |    153590802 |    153590898 |    153590898 |    320299521 |    320299521 |    320299588 |    320299588 |    677289206 |    677289206 |    677289277 |    677289277 |   1406996321 |   1406996321 |   1406996388 |   1406996388 |
il1.misses                                     407 |          407 |          348 |          348 |          456 |          456 |          359 |          359 |          443 |          443 |          335 |          335 |          456 |          456 |          360 |          360 |          436 |          436 |          340 |          340 |          455 |          455 |          359 |          359 |          435 |          435 |          339 |          339 |          455 |          455 |          359 |          359 |          460 |          460 |          393 |          393 |          468 |          468 |          397 |          397 |          460 |          460 |          393 |          393 |
il1.replacements                               219 |          219 |           92 |           92 |          256 |          256 |          103 |          103 |          261 |          261 |           79 |           79 |          255 |          255 |          104 |          104 |          251 |          251 |           84 |           84 |          254 |          254 |          103 |          103 |          250 |          250 |           83 |           83 |          254 |          254 |          103 |          103 |          243 |          243 |          137 |          137 |          251 |          251 |          141 |          141 |          243 |          243 |          137 |          137 |
il1.writebacks                                   0 |            0 |            0 |            0 |            0 |            0 |            0 |            0 |            0 |            0 |            0 |            0 |            0 |            0 |            0 |            0 |            0 |            0 |            0 |            0 |            0 |            0 |            0 |            0 |            0 |            0 |            0 |            0 |            0 |            0 |            0 |            0 |            0 |            0 |            0 |            0 |            0 |            0 |            0 |            0 |            0 |            0 |            0 |            0 |
il1.invalidations                                0 |            0 |            0 |            0 |            0 |            0 |            0 |            0 |            0 |            0 |            0 |            0 |            0 |            0 |            0 |            0 |            0 |            0 |            0 |            0 |            0 |            0 |            0 |            0 |            0 |            0 |            0 |            0 |            0 |            0 |            0 |            0 |            0 |            0 |            0 |            0 |            0 |            0 |            0 |            0 |            0 |            0 |            0 |            0 |
il1.miss_rate                               0.0005 |       0.0005 |       0.0005 |       0.0005 |       0.0003 |       0.0003 |       0.0002 |       0.0002 |       0.0001 |       0.0001 |       0.0001 |       0.0001 |       0.0001 |       0.0001 |       0.0000 |       0.0000 |       0.0000 |       0.0000 |       0.0000 |       0.0000 |       0.0000 |       0.0000 |       0.0000 |       0.0000 |       0.0000 |       0.0000 |       0.0000 |       0.0000 |       0.0000 |       0.0000 |       0.0000 |       0.0000 |       0.0000 |       0.0000 |       0.0000 |       0.0000 |       0.0000 |       0.0000 |       0.0000 |       0.0000 |       0.0000 |       0.0000 |       0.0000 |       0.0000 |
il1.repl_rate                               0.0003 |       0.0003 |       0.0001 |       0.0001 |       0.0002 |       0.0002 |       0.0001 |       0.0001 |       0.0001 |       0.0001 |       0.0000 |       0.0000 |       0.0000 |       0.0000 |       0.0000 |       0.0000 |       0.0000 |       0.0000 |       0.0000 |       0.0000 |       0.0000 |       0.0000 |       0.0000 |       0.0000 |       0.0000 |       0.0000 |       0.0000 |       0.0000 |       0.0000 |       0.0000 |       0.0000 |       0.0000 |       0.0000 |       0.0000 |       0.0000 |       0.0000 |       0.0000 |       0.0000 |       0.0000 |       0.0000 |       0.0000 |       0.0000 |       0.0000 |       0.0000 |
il1.wb_rate                                 0.0000 |       0.0000 |       0.0000 |       0.0000 |       0.0000 |       0.0000 |       0.0000 |       0.0000 |       0.0000 |       0.0000 |       0.0000 |       0.0000 |       0.0000 |       0.0000 |       0.0000 |       0.0000 |       0.0000 |       0.0000 |       0.0000 |       0.0000 |       0.0000 |       0.0000 |       0.0000 |       0.0000 |       0.0000 |       0.0000 |       0.0000 |       0.0000 |       0.0000 |       0.0000 |       0.0000 |       0.0000 |       0.0000 |       0.0000 |       0.0000 |       0.0000 |       0.0000 |       0.0000 |       0.0000 |       0.0000 |       0.0000 |       0.0000 |       0.0000 |       0.0000 |
il1.inv_rate                                0.0000 |       0.0000 |       0.0000 |       0.0000 |       0.0000 |       0.0000 |       0.0000 |       0.0000 |       0.0000 |       0.0000 |       0.0000 |       0.0000 |       0.0000 |       0.0000 |       0.0000 |       0.0000 |       0.0000 |       0.0000 |       0.0000 |       0.0000 |       0.0000 |       0.0000 |       0.0000 |       0.0000 |       0.0000 |       0.0000 |       0.0000 |       0.0000 |       0.0000 |       0.0000 |       0.0000 |       0.0000 |       0.0000 |       0.0000 |       0.0000 |       0.0000 |       0.0000 |       0.0000 |       0.0000 |       0.0000 |       0.0000 |       0.0000 |       0.0000 |       0.0000 |
dl1.accesses                                162457 |       162457 |       162457 |       162457 |       362109 |       362109 |       362109 |       362109 |       736813 |       736813 |       736813 |       736813 |      1633705 |      1633705 |      1633705 |      1633705 |      3328711 |      3328711 |      3328711 |      3328711 |      7308977 |      7308977 |      7308977 |      7308977 |     14876544 |     14876544 |     14876544 |     14876544 |     32370629 |     32370629 |     32370629 |     32370629 |     65796513 |     65796513 |     65796513 |     65796513 |    142071423 |    142071423 |    142071423 |    142071423 |    288329819 |    288329819 |    288329819 |    288329819 |
dl1.hits                                    148631 |       148631 |       149197 |       149197 |       330527 |       330527 |       331940 |       331940 |       673810 |       673810 |       676941 |       676941 |      1490879 |      1490879 |      1498031 |      1498031 |      3042157 |      3042157 |      3057830 |      3057830 |      6667756 |      6667756 |      6702134 |      6702134 |     13588578 |     13588578 |     13663326 |     13663326 |     29521634 |     29521634 |     29682505 |     29682505 |     60076247 |     60076247 |     60419576 |     60419576 |    129540175 |    129540175 |    130269820 |    130269820 |    263178252 |    263178252 |    264727473 |    264727473 |
dl1.misses                                   13826 |        13826 |        13260 |        13260 |        31582 |        31582 |        30169 |        30169 |        63003 |        63003 |        59872 |        59872 |       142826 |       142826 |       135674 |       135674 |       286554 |       286554 |       270881 |       270881 |       641221 |       641221 |       606843 |       606843 |      1287966 |      1287966 |      1213218 |      1213218 |      2848995 |      2848995 |      2688124 |      2688124 |      5720266 |      5720266 |      5376937 |      5376937 |     12531248 |     12531248 |     11801603 |     11801603 |     25151567 |     25151567 |     23602346 |     23602346 |
dl1.replacements                             13570 |        13570 |        13004 |        13004 |        31326 |        31326 |        29913 |        29913 |        62747 |        62747 |        59616 |        59616 |       142570 |       142570 |       135418 |       135418 |       286298 |       286298 |       270625 |       270625 |       640965 |       640965 |       606587 |       606587 |      1287710 |      1287710 |      1212962 |      1212962 |      2848739 |      2848739 |      2687868 |      2687868 |      5720010 |      5720010 |      5376681 |      5376681 |     12530992 |     12530992 |     11801347 |     11801347 |     25151311 |     25151311 |     23602090 |     23602090 |
dl1.writebacks                                7234 |         7234 |         6960 |         6960 |        16240 |        16240 |        15673 |        15673 |        32264 |        32264 |        31042 |        31042 |        72633 |        72633 |        69977 |        69977 |       145414 |       145414 |       139650 |       139650 |       324249 |       324249 |       311769 |       311769 |       649974 |       649974 |       623234 |       623234 |      1434404 |      1434404 |      1377241 |      1377241 |      2875830 |      2875830 |      2754950 |      2754950 |      6289944 |      6289944 |      6033885 |      6033885 |     12607424 |     12607424 |     12067461 |     12067461 |
dl1.invalidations                                0 |            0 |            0 |            0 |            0 |            0 |            0 |            0 |            0 |            0 |            0 |            0 |            0 |            0 |            0 |            0 |            0 |            0 |            0 |            0 |            0 |            0 |            0 |            0 |            0 |            0 |            0 |            0 |            0 |            0 |            0 |            0 |            0 |            0 |            0 |            0 |            0 |            0 |            0 |            0 |            0 |            0 |            0 |            0 |
dl1.miss_rate                               0.0851 |       0.0851 |       0.0816 |       0.0816 |       0.0872 |       0.0872 |       0.0833 |       0.0833 |       0.0855 |       0.0855 |       0.0813 |       0.0813 |       0.0874 |       0.0874 |       0.0830 |       0.0830 |       0.0861 |       0.0861 |       0.0814 |       0.0814 |       0.0877 |       0.0877 |       0.0830 |       0.0830 |       0.0866 |       0.0866 |       0.0816 |       0.0816 |       0.0880 |       0.0880 |       0.0830 |       0.0830 |       0.0869 |       0.0869 |       0.0817 |       0.0817 |       0.0882 |       0.0882 |       0.0831 |       0.0831 |       0.0872 |       0.0872 |       0.0819 |       0.0819 |
dl1.repl_rate                               0.0835 |       0.0835 |       0.0800 |       0.0800 |       0.0865 |       0.0865 |       0.0826 |       0.0826 |       0.0852 |       0.0852 |       0.0809 |       0.0809 |       0.0873 |       0.0873 |       0.0829 |       0.0829 |       0.0860 |       0.0860 |       0.0813 |       0.0813 |       0.0877 |       0.0877 |       0.0830 |       0.0830 |       0.0866 |       0.0866 |       0.0815 |       0.0815 |       0.0880 |       0.0880 |       0.0830 |       0.0830 |       0.0869 |       0.0869 |       0.0817 |       0.0817 |       0.0882 |       0.0882 |       0.0831 |       0.0831 |       0.0872 |       0.0872 |       0.0819 |       0.0819 |
dl1.wb_rate                                 0.0445 |       0.0445 |       0.0428 |       0.0428 |       0.0448 |       0.0448 |       0.0433 |       0.0433 |       0.0438 |       0.0438 |       0.0421 |       0.0421 |       0.0445 |       0.0445 |       0.0428 |       0.0428 |       0.0437 |       0.0437 |       0.0420 |       0.0420 |       0.0444 |       0.0444 |       0.0427 |       0.0427 |       0.0437 |       0.0437 |       0.0419 |       0.0419 |       0.0443 |       0.0443 |       0.0425 |       0.0425 |       0.0437 |       0.0437 |       0.0419 |       0.0419 |       0.0443 |       0.0443 |       0.0425 |       0.0425 |       0.0437 |       0.0437 |       0.0419 |       0.0419 |
dl1.inv_rate                                0.0000 |       0.0000 |       0.0000 |       0.0000 |       0.0000 |       0.0000 |       0.0000 |       0.0000 |       0.0000 |       0.0000 |       0.0000 |       0.0000 |       0.0000 |       0.0000 |       0.0000 |       0.0000 |       0.0000 |       0.0000 |       0.0000 |       0.0000 |       0.0000 |       0.0000 |       0.0000 |       0.0000 |       0.0000 |       0.0000 |       0.0000 |       0.0000 |       0.0000 |       0.0000 |       0.0000 |       0.0000 |       0.0000 |       0.0000 |       0.0000 |       0.0000 |       0.0000 |       0.0000 |       0.0000 |       0.0000 |       0.0000 |       0.0000 |       0.0000 |       0.0000 |
dl2.accesses                                 21467 |        21467 |        20568 |        20568 |        48278 |        48278 |        46201 |        46201 |        95710 |        95710 |        91249 |        91249 |       215915 |       215915 |       206011 |       206011 |       432404 |       432404 |       410871 |       410871 |       965925 |       965925 |       918971 |       918971 |      1938375 |      1938375 |      1836791 |      1836791 |      4283854 |      4283854 |      4065724 |      4065724 |      8596556 |      8596556 |      8132280 |      8132280 |     18821660 |     18821660 |     17835885 |     17835885 |     37759451 |     37759451 |     35670200 |     35670200 |
dl2.hits                                     19667 |        19667 |        18783 |        18783 |        45431 |        45431 |        43380 |        43380 |        90837 |        90837 |        86406 |        86406 |       206920 |       206920 |       197045 |       197045 |       415238 |       415238 |       393734 |       393734 |       932355 |       932355 |       885430 |       885430 |      1872056 |      1817014 |      1770503 |      1472259 |      4090817 |      1844715 |      3310348 |      1394249 |      3789783 |      3260109 |      2789217 |      2772763 |      7107259 |      7051613 |      6069254 |      6052870 |     14222801 |     14187834 |     12105174 |     12088790 |
dl2.misses                                    1800 |         1800 |         1785 |         1785 |         2847 |         2847 |         2821 |         2821 |         4873 |         4873 |         4843 |         4843 |         8995 |         8995 |         8966 |         8966 |        17166 |        17166 |        17137 |        17137 |        33570 |        33570 |        33541 |        33541 |        66319 |       121361 |        66288 |       364532 |       193037 |      2439139 |       755376 |      2671475 |      4806773 |      5336447 |      5343063 |      5359517 |     11714401 |     11770047 |     11766631 |     11783015 |     23536650 |     23571617 |     23565026 |     23581410 |
dl2.replacements                               183 |          183 |            0 |            0 |          214 |          214 |            0 |            0 |          228 |          228 |            0 |            0 |          241 |          241 |            0 |            0 |          231 |          231 |            0 |            0 |          241 |          241 |            0 |            0 |          233 |        56946 |            0 |       298996 |        63075 |      2373603 |       624304 |      2605939 |      4675701 |      5270911 |      5211991 |      5293981 |     11583329 |     11704511 |     11635559 |     11717479 |     23405578 |     23506081 |     23433954 |     23515874 |
dl2.writebacks                                 113 |          113 |            0 |            0 |          137 |          137 |            0 |            0 |          148 |          148 |            0 |            0 |          162 |          162 |            0 |            0 |          152 |          152 |            0 |            0 |          162 |          162 |            0 |            0 |          152 |        31328 |            0 |       298452 |        35228 |      1313185 |       623743 |      1343941 |      2709517 |      2711766 |      2688185 |      2720953 |      5902893 |      5968787 |      5965758 |      5998526 |     11977858 |     12022322 |     11996605 |     12029373 |
dl2.invalidations                                0 |            0 |            0 |            0 |            0 |            0 |            0 |            0 |            0 |            0 |            0 |            0 |            0 |            0 |            0 |            0 |            0 |            0 |            0 |            0 |            0 |            0 |            0 |            0 |            0 |            0 |            0 |            0 |            0 |            0 |            0 |            0 |            0 |            0 |            0 |            0 |            0 |            0 |            0 |            0 |            0 |            0 |            0 |            0 |
dl2.miss_rate                               0.0838 |       0.0838 |       0.0868 |       0.0868 |       0.0590 |       0.0590 |       0.0611 |       0.0611 |       0.0509 |       0.0509 |       0.0531 |       0.0531 |       0.0417 |       0.0417 |       0.0435 |       0.0435 |       0.0397 |       0.0397 |       0.0417 |       0.0417 |       0.0348 |       0.0348 |       0.0365 |       0.0365 |       0.0342 |       0.0626 |       0.0361 |       0.1985 |       0.0451 |       0.5694 |       0.1858 |       0.6571 |       0.5592 |       0.6208 |       0.6570 |       0.6590 |       0.6224 |       0.6253 |       0.6597 |       0.6606 |       0.6233 |       0.6243 |       0.6606 |       0.6611 |
dl2.repl_rate                               0.0085 |       0.0085 |       0.0000 |       0.0000 |       0.0044 |       0.0044 |       0.0000 |       0.0000 |       0.0024 |       0.0024 |       0.0000 |       0.0000 |       0.0011 |       0.0011 |       0.0000 |       0.0000 |       0.0005 |       0.0005 |       0.0000 |       0.0000 |       0.0002 |       0.0002 |       0.0000 |       0.0000 |       0.0001 |       0.0294 |       0.0000 |       0.1628 |       0.0147 |       0.5541 |       0.1536 |       0.6410 |       0.5439 |       0.6131 |       0.6409 |       0.6510 |       0.6154 |       0.6219 |       0.6524 |       0.6570 |       0.6199 |       0.6225 |       0.6570 |       0.6593 |
dl2.wb_rate                                 0.0053 |       0.0053 |       0.0000 |       0.0000 |       0.0028 |       0.0028 |       0.0000 |       0.0000 |       0.0015 |       0.0015 |       0.0000 |       0.0000 |       0.0008 |       0.0008 |       0.0000 |       0.0000 |       0.0004 |       0.0004 |       0.0000 |       0.0000 |       0.0002 |       0.0002 |       0.0000 |       0.0000 |       0.0001 |       0.0162 |       0.0000 |       0.1625 |       0.0082 |       0.3065 |       0.1534 |       0.3306 |       0.3152 |       0.3154 |       0.3306 |       0.3346 |       0.3136 |       0.3171 |       0.3345 |       0.3363 |       0.3172 |       0.3184 |       0.3363 |       0.3372 |
dl2.inv_rate                                0.0000 |       0.0000 |       0.0000 |       0.0000 |       0.0000 |       0.0000 |       0.0000 |       0.0000 |       0.0000 |       0.0000 |       0.0000 |       0.0000 |       0.0000 |       0.0000 |       0.0000 |       0.0000 |       0.0000 |       0.0000 |       0.0000 |       0.0000 |       0.0000 |       0.0000 |       0.0000 |       0.0000 |       0.0000 |       0.0000 |       0.0000 |       0.0000 |       0.0000 |       0.0000 |       0.0000 |       0.0000 |       0.0000 |       0.0000 |       0.0000 |       0.0000 |       0.0000 |       0.0000 |       0.0000 |       0.0000 |       0.0000 |       0.0000 |       0.0000 |       0.0000 |
itlb.accesses                               766173 |       766173 |       766173 |       766173 |      1669208 |      1669208 |      1669208 |      1669208 |      3536543 |      3536543 |      3536543 |      3536543 |      7640417 |      7640417 |      7640417 |      7640417 |     16091682 |     16091682 |     16091682 |     16091682 |     34470172 |     34470172 |     34470172 |     34470172 |     72211284 |     72211284 |     72211284 |     72211284 |    153591257 |    153591257 |    153591257 |    153591257 |    320299981 |    320299981 |    320299981 |    320299981 |    677289674 |    677289674 |    677289674 |    677289674 |   1406996781 |   1406996781 |   1406996781 |   1406996781 |
itlb.hits                                   766164 |       766164 |       766164 |       766164 |      1669199 |      1669199 |      1669199 |      1669199 |      3536534 |      3536534 |      3536534 |      3536534 |      7640408 |      7640408 |      7640408 |      7640408 |     16091673 |     16091673 |     16091673 |     16091673 |     34470163 |     34470163 |     34470163 |     34470163 |     72211275 |     72211275 |     72211275 |     72211275 |    153591248 |    153591248 |    153591248 |    153591248 |    320299972 |    320299972 |    320299972 |    320299972 |    677289665 |    677289665 |    677289665 |    677289665 |   1406996772 |   1406996772 |   1406996772 |   1406996772 |
itlb.misses                                      9 |            9 |            9 |            9 |            9 |            9 |            9 |            9 |            9 |            9 |            9 |            9 |            9 |            9 |            9 |            9 |            9 |            9 |            9 |            9 |            9 |            9 |            9 |            9 |            9 |            9 |            9 |            9 |            9 |            9 |            9 |            9 |            9 |            9 |            9 |            9 |            9 |            9 |            9 |            9 |            9 |            9 |            9 |            9 |
itlb.replacements                                0 |            0 |            0 |            0 |            0 |            0 |            0 |            0 |            0 |            0 |            0 |            0 |            0 |            0 |            0 |            0 |            0 |            0 |            0 |            0 |            0 |            0 |            0 |            0 |            0 |            0 |            0 |            0 |            0 |            0 |            0 |            0 |            0 |            0 |            0 |            0 |            0 |            0 |            0 |            0 |            0 |            0 |            0 |            0 |
itlb.writebacks                                  0 |            0 |            0 |            0 |            0 |            0 |            0 |            0 |            0 |            0 |            0 |            0 |            0 |            0 |            0 |            0 |            0 |            0 |            0 |            0 |            0 |            0 |            0 |            0 |            0 |            0 |            0 |            0 |            0 |            0 |            0 |            0 |            0 |            0 |            0 |            0 |            0 |            0 |            0 |            0 |            0 |            0 |            0 |            0 |
itlb.invalidations                               0 |            0 |            0 |            0 |            0 |            0 |            0 |            0 |            0 |            0 |            0 |            0 |            0 |            0 |            0 |            0 |            0 |            0 |            0 |            0 |            0 |            0 |            0 |            0 |            0 |            0 |            0 |            0 |            0 |            0 |            0 |            0 |            0 |            0 |            0 |            0 |            0 |            0 |            0 |            0 |            0 |            0 |            0 |            0 |
itlb.miss_rate                              0.0000 |       0.0000 |       0.0000 |       0.0000 |       0.0000 |       0.0000 |       0.0000 |       0.0000 |       0.0000 |       0.0000 |       0.0000 |       0.0000 |       0.0000 |       0.0000 |       0.0000 |       0.0000 |       0.0000 |       0.0000 |       0.0000 |       0.0000 |       0.0000 |       0.0000 |       0.0000 |       0.0000 |       0.0000 |       0.0000 |       0.0000 |       0.0000 |       0.0000 |       0.0000 |       0.0000 |       0.0000 |       0.0000 |       0.0000 |       0.0000 |       0.0000 |       0.0000 |       0.0000 |       0.0000 |       0.0000 |       0.0000 |       0.0000 |       0.0000 |       0.0000 |
itlb.repl_rate                              0.0000 |       0.0000 |       0.0000 |       0.0000 |       0.0000 |       0.0000 |       0.0000 |       0.0000 |       0.0000 |       0.0000 |       0.0000 |       0.0000 |       0.0000 |       0.0000 |       0.0000 |       0.0000 |       0.0000 |       0.0000 |       0.0000 |       0.0000 |       0.0000 |       0.0000 |       0.0000 |       0.0000 |       0.0000 |       0.0000 |       0.0000 |       0.0000 |       0.0000 |       0.0000 |       0.0000 |       0.0000 |       0.0000 |       0.0000 |       0.0000 |       0.0000 |       0.0000 |       0.0000 |       0.0000 |       0.0000 |       0.0000 |       0.0000 |       0.0000 |       0.0000 |
itlb.wb_rate                                0.0000 |       0.0000 |       0.0000 |       0.0000 |       0.0000 |       0.0000 |       0.0000 |       0.0000 |       0.0000 |       0.0000 |       0.0000 |       0.0000 |       0.0000 |       0.0000 |       0.0000 |       0.0000 |       0.0000 |       0.0000 |       0.0000 |       0.0000 |       0.0000 |       0.0000 |       0.0000 |       0.0000 |       0.0000 |       0.0000 |       0.0000 |       0.0000 |       0.0000 |       0.0000 |       0.0000 |       0.0000 |       0.0000 |       0.0000 |       0.0000 |       0.0000 |       0.0000 |       0.0000 |       0.0000 |       0.0000 |       0.0000 |       0.0000 |       0.0000 |       0.0000 |
itlb.inv_rate                               0.0000 |       0.0000 |       0.0000 |       0.0000 |       0.0000 |       0.0000 |       0.0000 |       0.0000 |       0.0000 |       0.0000 |       0.0000 |       0.0000 |       0.0000 |       0.0000 |       0.0000 |       0.0000 |       0.0000 |       0.0000 |       0.0000 |       0.0000 |       0.0000 |       0.0000 |       0.0000 |       0.0000 |       0.0000 |       0.0000 |       0.0000 |       0.0000 |       0.0000 |       0.0000 |       0.0000 |       0.0000 |       0.0000 |       0.0000 |       0.0000 |       0.0000 |       0.0000 |       0.0000 |       0.0000 |       0.0000 |       0.0000 |       0.0000 |       0.0000 |       0.0000 |
dtlb.accesses                               162457 |       162457 |       162457 |       162457 |       362109 |       362109 |       362109 |       362109 |       736813 |       736813 |       736813 |       736813 |      1633705 |      1633705 |      1633705 |      1633705 |      3328711 |      3328711 |      3328711 |      3328711 |      7308977 |      7308977 |      7308977 |      7308977 |     14876544 |     14876544 |     14876544 |     14876544 |     32370629 |     32370629 |     32370629 |     32370629 |     65796513 |     65796513 |     65796513 |     65796513 |    142071423 |    142071423 |    142071423 |    142071423 |    288329819 |    288329819 |    288329819 |    288329819 |
dtlb.hits                                   162442 |       162442 |       162442 |       162442 |       362086 |       362086 |       362086 |       362086 |       736774 |       736774 |       736774 |       736774 |      1633634 |      1633634 |      1633634 |      1633634 |      3328501 |      3328501 |      3328501 |      3328501 |      7304287 |      7304287 |      7304287 |      7304287 |     14867071 |     14867071 |     14867071 |     14867071 |     32349627 |     32349627 |     32349627 |     32349627 |     65754504 |     65754504 |     65754504 |     65754504 |    141979208 |    141979208 |    141979208 |    141979208 |    288145386 |    288145386 |    288145386 |    288145386 |
dtlb.misses                                     15 |           15 |           15 |           15 |           23 |           23 |           23 |           23 |           39 |           39 |           39 |           39 |           71 |           71 |           71 |           71 |          210 |          210 |          210 |          210 |         4690 |         4690 |         4690 |         4690 |         9473 |         9473 |         9473 |         9473 |        21002 |        21002 |        21002 |        21002 |        42009 |        42009 |        42009 |        42009 |        92215 |        92215 |        92215 |        92215 |       184433 |       184433 |       184433 |       184433 |
dtlb.replacements                                0 |            0 |            0 |            0 |            0 |            0 |            0 |            0 |            0 |            0 |            0 |            0 |            0 |            0 |            0 |            0 |           82 |           82 |           82 |           82 |         4562 |         4562 |         4562 |         4562 |         9345 |         9345 |         9345 |         9345 |        20874 |        20874 |        20874 |        20874 |        41881 |        41881 |        41881 |        41881 |        92087 |        92087 |        92087 |        92087 |       184305 |       184305 |       184305 |       184305 |
dtlb.writebacks                                  0 |            0 |            0 |            0 |            0 |            0 |            0 |            0 |            0 |            0 |            0 |            0 |            0 |            0 |            0 |            0 |           47 |           47 |           47 |           47 |         2389 |         2389 |         2389 |         2389 |         4821 |         4821 |         4821 |         4821 |        10718 |        10718 |        10718 |        10718 |        21483 |        21483 |        21483 |        21483 |        47112 |        47112 |        47112 |        47112 |        94269 |        94269 |        94269 |        94269 |
dtlb.invalidations                               0 |            0 |            0 |            0 |            0 |            0 |            0 |            0 |            0 |            0 |            0 |            0 |            0 |            0 |            0 |            0 |            0 |            0 |            0 |            0 |            0 |            0 |            0 |            0 |            0 |            0 |            0 |            0 |            0 |            0 |            0 |            0 |            0 |            0 |            0 |            0 |            0 |            0 |            0 |            0 |            0 |            0 |            0 |            0 |
dtlb.miss_rate                              0.0001 |       0.0001 |       0.0001 |       0.0001 |       0.0001 |       0.0001 |       0.0001 |       0.0001 |       0.0001 |       0.0001 |       0.0001 |       0.0001 |       0.0000 |       0.0000 |       0.0000 |       0.0000 |       0.0001 |       0.0001 |       0.0001 |       0.0001 |       0.0006 |       0.0006 |       0.0006 |       0.0006 |       0.0006 |       0.0006 |       0.0006 |       0.0006 |       0.0006 |       0.0006 |       0.0006 |       0.0006 |       0.0006 |       0.0006 |       0.0006 |       0.0006 |       0.0006 |       0.0006 |       0.0006 |       0.0006 |       0.0006 |       0.0006 |       0.0006 |       0.0006 |
dtlb.repl_rate                              0.0000 |       0.0000 |       0.0000 |       0.0000 |       0.0000 |       0.0000 |       0.0000 |       0.0000 |       0.0000 |       0.0000 |       0.0000 |       0.0000 |       0.0000 |       0.0000 |       0.0000 |       0.0000 |       0.0000 |       0.0000 |       0.0000 |       0.0000 |       0.0006 |       0.0006 |       0.0006 |       0.0006 |       0.0006 |       0.0006 |       0.0006 |       0.0006 |       0.0006 |       0.0006 |       0.0006 |       0.0006 |       0.0006 |       0.0006 |       0.0006 |       0.0006 |       0.0006 |       0.0006 |       0.0006 |       0.0006 |       0.0006 |       0.0006 |       0.0006 |       0.0006 |
dtlb.wb_rate                                0.0000 |       0.0000 |       0.0000 |       0.0000 |       0.0000 |       0.0000 |       0.0000 |       0.0000 |       0.0000 |       0.0000 |       0.0000 |       0.0000 |       0.0000 |       0.0000 |       0.0000 |       0.0000 |       0.0000 |       0.0000 |       0.0000 |       0.0000 |       0.0003 |       0.0003 |       0.0003 |       0.0003 |       0.0003 |       0.0003 |       0.0003 |       0.0003 |       0.0003 |       0.0003 |       0.0003 |       0.0003 |       0.0003 |       0.0003 |       0.0003 |       0.0003 |       0.0003 |       0.0003 |       0.0003 |       0.0003 |       0.0003 |       0.0003 |       0.0003 |       0.0003 |
dtlb.inv_rate                               0.0000 |       0.0000 |       0.0000 |       0.0000 |       0.0000 |       0.0000 |       0.0000 |       0.0000 |       0.0000 |       0.0000 |       0.0000 |       0.0000 |       0.0000 |       0.0000 |       0.0000 |       0.0000 |       0.0000 |       0.0000 |       0.0000 |       0.0000 |       0.0000 |       0.0000 |       0.0000 |       0.0000 |       0.0000 |       0.0000 |       0.0000 |       0.0000 |       0.0000 |       0.0000 |       0.0000 |       0.0000 |       0.0000 |       0.0000 |       0.0000 |       0.0000 |       0.0000 |       0.0000 |       0.0000 |       0.0000 |       0.0000 |       0.0000 |       0.0000 |       0.0000 |
ld_text_base                            0x00400000 |   0x00400000 |   0x00400000 |   0x00400000 |   0x00400000 |   0x00400000 |   0x00400000 |   0x00400000 |   0x00400000 |   0x00400000 |   0x00400000 |   0x00400000 |   0x00400000 |   0x00400000 |   0x00400000 |   0x00400000 |   0x00400000 |   0x00400000 |   0x00400000 |   0x00400000 |   0x00400000 |   0x00400000 |   0x00400000 |   0x00400000 |   0x00400000 |   0x00400000 |   0x00400000 |   0x00400000 |   0x00400000 |   0x00400000 |   0x00400000 |   0x00400000 |   0x00400000 |   0x00400000 |   0x00400000 |   0x00400000 |   0x00400000 |   0x00400000 |   0x00400000 |   0x00400000 |   0x00400000 |   0x00400000 |   0x00400000 |   0x00400000 |
ld_text_size                                 71440 |        71440 |        71440 |        71440 |        71472 |        71472 |        71472 |        71472 |        71488 |        71488 |        71488 |        71488 |        71504 |        71504 |        71504 |        71504 |        71504 |        71504 |        71504 |        71504 |        71504 |        71504 |        71504 |        71504 |        71504 |        71504 |        71504 |        71504 |        71504 |        71504 |        71504 |        71504 |        71504 |        71504 |        71504 |        71504 |        71504 |        71504 |        71504 |        71504 |        71504 |        71504 |        71504 |        71504 |
ld_data_base                            0x10000000 |   0x10000000 |   0x10000000 |   0x10000000 |   0x10000000 |   0x10000000 |   0x10000000 |   0x10000000 |   0x10000000 |   0x10000000 |   0x10000000 |   0x10000000 |   0x10000000 |   0x10000000 |   0x10000000 |   0x10000000 |   0x10000000 |   0x10000000 |   0x10000000 |   0x10000000 |   0x10000000 |   0x10000000 |   0x10000000 |   0x10000000 |   0x10000000 |   0x10000000 |   0x10000000 |   0x10000000 |   0x10000000 |   0x10000000 |   0x10000000 |   0x10000000 |   0x10000000 |   0x10000000 |   0x10000000 |   0x10000000 |   0x10000000 |   0x10000000 |   0x10000000 |   0x10000000 |   0x10000000 |   0x10000000 |   0x10000000 |   0x10000000 |
ld_data_size                                  8192 |         8192 |         8192 |         8192 |         8192 |         8192 |         8192 |         8192 |         8192 |         8192 |         8192 |         8192 |         8192 |         8192 |         8192 |         8192 |         8192 |         8192 |         8192 |         8192 |         8192 |         8192 |         8192 |         8192 |         8192 |         8192 |         8192 |         8192 |         8192 |         8192 |         8192 |         8192 |         8192 |         8192 |         8192 |         8192 |         8192 |         8192 |         8192 |         8192 |         8192 |         8192 |         8192 |         8192 |
ld_stack_base                           0x7fffc000 |   0x7fffc000 |   0x7fffc000 |   0x7fffc000 |   0x7fffc000 |   0x7fffc000 |   0x7fffc000 |   0x7fffc000 |   0x7fffc000 |   0x7fffc000 |   0x7fffc000 |   0x7fffc000 |   0x7fffc000 |   0x7fffc000 |   0x7fffc000 |   0x7fffc000 |   0x7fffc000 |   0x7fffc000 |   0x7fffc000 |   0x7fffc000 |   0x7fffc000 |   0x7fffc000 |   0x7fffc000 |   0x7fffc000 |   0x7fffc000 |   0x7fffc000 |   0x7fffc000 |   0x7fffc000 |   0x7fffc000 |   0x7fffc000 |   0x7fffc000 |   0x7fffc000 |   0x7fffc000 |   0x7fffc000 |   0x7fffc000 |   0x7fffc000 |   0x7fffc000 |   0x7fffc000 |   0x7fffc000 |   0x7fffc000 |   0x7fffc000 |   0x7fffc000 |   0x7fffc000 |   0x7fffc000 |
ld_stack_size                                16384 |        16384 |        16384 |        16384 |        16384 |        16384 |        16384 |        16384 |        16384 |        16384 |        16384 |        16384 |        16384 |        16384 |        16384 |        16384 |        16384 |        16384 |        16384 |        16384 |        16384 |        16384 |        16384 |        16384 |        16384 |        16384 |        16384 |        16384 |        16384 |        16384 |        16384 |        16384 |        16384 |        16384 |        16384 |        16384 |        16384 |        16384 |        16384 |        16384 |        16384 |        16384 |        16384 |        16384 |
ld_prog_entry                           0x00400140 |   0x00400140 |   0x00400140 |   0x00400140 |   0x00400140 |   0x00400140 |   0x00400140 |   0x00400140 |   0x00400140 |   0x00400140 |   0x00400140 |   0x00400140 |   0x00400140 |   0x00400140 |   0x00400140 |   0x00400140 |   0x00400140 |   0x00400140 |   0x00400140 |   0x00400140 |   0x00400140 |   0x00400140 |   0x00400140 |   0x00400140 |   0x00400140 |   0x00400140 |   0x00400140 |   0x00400140 |   0x00400140 |   0x00400140 |   0x00400140 |   0x00400140 |   0x00400140 |   0x00400140 |   0x00400140 |   0x00400140 |   0x00400140 |   0x00400140 |   0x00400140 |   0x00400140 |   0x00400140 |   0x00400140 |   0x00400140 |   0x00400140 |
ld_environ_base                         0x7fff8000 |   0x7fff8000 |   0x7fff8000 |   0x7fff8000 |   0x7fff8000 |   0x7fff8000 |   0x7fff8000 |   0x7fff8000 |   0x7fff8000 |   0x7fff8000 |   0x7fff8000 |   0x7fff8000 |   0x7fff8000 |   0x7fff8000 |   0x7fff8000 |   0x7fff8000 |   0x7fff8000 |   0x7fff8000 |   0x7fff8000 |   0x7fff8000 |   0x7fff8000 |   0x7fff8000 |   0x7fff8000 |   0x7fff8000 |   0x7fff8000 |   0x7fff8000 |   0x7fff8000 |   0x7fff8000 |   0x7fff8000 |   0x7fff8000 |   0x7fff8000 |   0x7fff8000 |   0x7fff8000 |   0x7fff8000 |   0x7fff8000 |   0x7fff8000 |   0x7fff8000 |   0x7fff8000 |   0x7fff8000 |   0x7fff8000 |   0x7fff8000 |   0x7fff8000 |   0x7fff8000 |   0x7fff8000 |
ld_target_big_endian                             0 |            0 |            0 |            0 |            0 |            0 |            0 |            0 |            0 |            0 |            0 |            0 |            0 |            0 |            0 |            0 |            0 |            0 |            0 |            0 |            0 |            0 |            0 |            0 |            0 |            0 |            0 |            0 |            0 |            0 |            0 |            0 |            0 |            0 |            0 |            0 |            0 |            0 |            0 |            0 |            0 |            0 |            0 |            0 |
mem.page_count                                  33 |           33 |           33 |           33 |           41 |           41 |           41 |           41 |           57 |           57 |           57 |           57 |           89 |           89 |           89 |           89 |          153 |          153 |          153 |          153 |          281 |          281 |          281 |          281 |          537 |          537 |          537 |          537 |         1049 |         1049 |         1049 |         1049 |         2079 |         2079 |         2079 |         2079 |         4133 |         4133 |         4133 |         4133 |         8241 |         8241 |         8241 |         8241 |
mem.page_mem                                  132k |         132k |         132k |         132k |         164k |         164k |         164k |         164k |         228k |         228k |         228k |         228k |         356k |         356k |         356k |         356k |         612k |         612k |         612k |         612k |        1124k |        1124k |        1124k |        1124k |        2148k |        2148k |        2148k |        2148k |        4196k |        4196k |        4196k |        4196k |        8316k |        8316k |        8316k |        8316k |       16532k |       16532k |       16532k |       16532k |       32964k |       32964k |       32964k |       32964k |
mem.ptab_misses                                 33 |           33 |           33 |           33 |           41 |           41 |           41 |           41 |           57 |           57 |           57 |           57 |           89 |           89 |           89 |           89 |          153 |          153 |          153 |          153 |          281 |          281 |          281 |          281 |          537 |          537 |          537 |          537 |         1049 |         1049 |         1049 |         1049 |        62679 |        62679 |        62679 |        62679 |        68695 |        68695 |        68695 |        68695 |        74861 |        74861 |        74861 |        74861 |
mem.ptab_accesses                          3832880 |      3832880 |      3832880 |      3832880 |      7844516 |      7844516 |      7844516 |      7844516 |     16063360 |     16063360 |     16063360 |     16063360 |     34272736 |     34272736 |     34272736 |     34272736 |     71467808 |     71467808 |     71467808 |     71467808 |    152942300 |    152942300 |    152942300 |    152942300 |    319041882 |    319041882 |    319041882 |    319041882 |    679549944 |    679549944 |    679549944 |    679549944 |   1413236608 |   1413236608 |   1413236608 |   1413236608 |   2993745200 |   2993745200 |   2993745200 |   2993745200 |   6205090420 |   6205090420 |   6205090420 |   6205090420 |
mem.ptab_miss_rate                          0.0000 |       0.0000 |       0.0000 |       0.0000 |       0.0000 |       0.0000 |       0.0000 |       0.0000 |       0.0000 |       0.0000 |       0.0000 |       0.0000 |       0.0000 |       0.0000 |       0.0000 |       0.0000 |       0.0000 |       0.0000 |       0.0000 |       0.0000 |       0.0000 |       0.0000 |       0.0000 |       0.0000 |       0.0000 |       0.0000 |       0.0000 |       0.0000 |       0.0000 |       0.0000 |       0.0000 |       0.0000 |       0.0000 |       0.0000 |       0.0000 |       0.0000 |       0.0000 |       0.0000 |       0.0000 |       0.0000 |       0.0000 |       0.0000 |       0.0000 |       0.0000 |
-------------------------------------------------------------------------------------------------
sim-bpred                                     4096 |         4096 |         4096 |         4096 |         4096 |         4096 |         4096 |         8192 |         8192 |         8192 |         8192 |         8192 |         8192 |         8192 |        16384 |        16384 |        16384 |        16384 |        16384 |        16384 |        16384 |        32768 |        32768 |        32768 |        32768 |        32768 |        32768 |        32768 |        65536 |        65536 |        65536 |        65536 |        65536 |        65536 |        65536 |       131072 |       131072 |       131072 |       131072 |       131072 |       131072 |       131072 |       262144 |       262144 |       262144 |       262144 |       262144 |       262144 |       262144 |       524288 |       524288 |       524288 |       524288 |       524288 |       524288 |       524288 |      1048576 |      1048576 |      1048576 |      1048576 |      1048576 |      1048576 |      1048576 |      2097152 |      2097152 |      2097152 |      2097152 |      2097152 |      2097152 |      2097152 |      4194304 |      4194304 |      4194304 |      4194304 |      4194304 |      4194304 |      4194304 |
-bpred bimod -bpred:bimod 512
-bpred bimod -bpred:bimod 1024
-bpred bimod -bpred:bimod 2048
-bpred 2lev -bpred:2lev 1 512 10 1
-bpred 2lev -bpred:2lev 1 1024 10 1
-bpred 2lev -bpred:2lev 1 2048 10 1
-bpred 2lev -bpred:2lev 1 4096 10 1
-------------------------------------------------------------------------------------------------
sim_num_insn                                766173 |       766173 |       766173 |       766173 |       766173 |       766173 |       766173 |      1669208 |      1669208 |      1669208 |      1669208 |      1669208 |      1669208 |      1669208 |      3536543 |      3536543 |      3536543 |      3536543 |      3536543 |      3536543 |      3536543 |      7640417 |      7640417 |      7640417 |      7640417 |      7640417 |      7640417 |      7640417 |     16091682 |     16091682 |     16091682 |     16091682 |     16091682 |     16091682 |     16091682 |     34470172 |     34470172 |     34470172 |     34470172 |     34470172 |     34470172 |     34470172 |     72211284 |     72211284 |     72211284 |     72211284 |     72211284 |     72211284 |     72211284 |    153591257 |    153591257 |    153591257 |    153591257 |    153591257 |    153591257 |    153591257 |    320299981 |    320299981 |    320299981 |    320299981 |    320299981 |    320299981 |    320299981 |    677289674 |    677289674 |    677289674 |    677289674 |    677289674 |    677289674 |    677289674 |   1406996781 |   1406996781 |   1406996781 |   1406996781 |   1406996781 |   1406996781 |   1406996781 |
sim_num_refs                                145999 |       145999 |       145999 |       145999 |       145999 |       145999 |       145999 |       329267 |       329267 |       329267 |       329267 |       329267 |       329267 |       329267 |       671203 |       671203 |       671203 |       671203 |       671203 |       671203 |       671203 |      1502559 |      1502559 |      1502559 |      1502559 |      1502559 |      1502559 |      1502559 |      3066493 |      3066493 |      3066493 |      3066493 |      3066493 |      3066493 |      3066493 |      6784615 |      6784615 |      6784615 |      6784615 |      6784615 |      6784615 |      6784615 |     13827894 |     13827894 |     13827894 |     13827894 |     13827894 |     13827894 |     13827894 |     30273403 |     30273403 |     30273403 |     30273403 |     30273403 |     30273403 |     30273403 |     61602135 |     61602135 |     61602135 |     61602135 |     61602135 |     61602135 |     61602135 |    133682741 |    133682741 |    133682741 |    133682741 |    133682741 |    133682741 |    133682741 |    271552529 |    271552529 |    271552529 |    271552529 |    271552529 |    271552529 |    271552529 |
sim_elapsed_time                                 1 |            1 |            1 |            1 |            1 |            1 |            1 |            1 |            1 |            1 |            1 |            1 |            1 |            1 |            1 |            1 |            1 |            1 |            1 |            1 |            1 |            1 |            1 |            1 |            1 |            1 |            1 |            1 |            2 |            2 |            2 |            1 |            1 |            2 |            2 |            3 |            4 |            4 |            4 |            4 |            4 |            4 |            8 |            8 |            8 |            8 |            8 |            9 |            8 |           18 |           17 |           17 |           17 |           17 |           17 |           17 |           36 |           36 |           35 |           37 |           36 |           36 |           36 |           75 |           76 |           76 |           76 |           76 |           76 |           77 |          156 |          158 |          156 |          159 |          157 |          158 |          161 |
sim_inst_rate                          766173.0000 |  766173.0000 |  766173.0000 |  766173.0000 |  766173.0000 |  766173.0000 |  766173.0000 | 1669208.0000 | 1669208.0000 | 1669208.0000 | 1669208.0000 | 1669208.0000 | 1669208.0000 | 1669208.0000 | 3536543.0000 | 3536543.0000 | 3536543.0000 | 3536543.0000 | 3536543.0000 | 3536543.0000 | 3536543.0000 | 7640417.0000 | 7640417.0000 | 7640417.0000 | 7640417.0000 | 7640417.0000 | 7640417.0000 | 7640417.0000 | 8045841.0000 | 8045841.0000 | 8045841.0000 |16091682.0000 |16091682.0000 | 8045841.0000 | 8045841.0000 |11490057.3333 | 8617543.0000 | 8617543.0000 | 8617543.0000 | 8617543.0000 | 8617543.0000 | 8617543.0000 | 9026410.5000 | 9026410.5000 | 9026410.5000 | 9026410.5000 | 9026410.5000 | 8023476.0000 | 9026410.5000 | 8532847.6111 | 9034779.8235 | 9034779.8235 | 9034779.8235 | 9034779.8235 | 9034779.8235 | 9034779.8235 | 8897221.6944 | 8897221.6944 | 9151428.0286 | 8656756.2432 | 8897221.6944 | 8897221.6944 | 8897221.6944 | 9030528.9867 | 8911706.2368 | 8911706.2368 | 8911706.2368 | 8911706.2368 | 8911706.2368 | 8795969.7922 | 9019210.1346 | 8905042.9177 | 9019210.1346 | 8849036.3585 | 8961762.9363 | 8905042.9177 | 8739110.4410 |
sim_num_branches                            109410 |       109410 |       109410 |       109410 |       109410 |       109410 |       109410 |       235404 |       235404 |       235404 |       235404 |       235404 |       235404 |       235404 |       500480 |       500480 |       500480 |       500480 |       500480 |       500480 |       500480 |      1070022 |      1070022 |      1070022 |      1070022 |      1070022 |      1070022 |      1070022 |      2262014 |      2262014 |      2262014 |      2262014 |      2262014 |      2262014 |      2262014 |      4801348 |      4801348 |      4801348 |      4801348 |      4801348 |      4801348 |      4801348 |     10093103 |     10093103 |     10093103 |     10093103 |     10093103 |     10093103 |     10093103 |     21300117 |     21300117 |     21300117 |     21300117 |     21300117 |     21300117 |     21300117 |     44565789 |     44565789 |     44565789 |     44565789 |     44565789 |     44565789 |     44565789 |     93588370 |     93588370 |     93588370 |     93588370 |     93588370 |     93588370 |     93588370 |    195040367 |    195040367 |    195040367 |    195040367 |    195040367 |    195040367 |    195040367 |
sim_IPB                                     7.0028 |       7.0028 |       7.0028 |       7.0028 |       7.0028 |       7.0028 |       7.0028 |       7.0908 |       7.0908 |       7.0908 |       7.0908 |       7.0908 |       7.0908 |       7.0908 |       7.0663 |       7.0663 |       7.0663 |       7.0663 |       7.0663 |       7.0663 |       7.0663 |       7.1404 |       7.1404 |       7.1404 |       7.1404 |       7.1404 |       7.1404 |       7.1404 |       7.1139 |       7.1139 |       7.1139 |       7.1139 |       7.1139 |       7.1139 |       7.1139 |       7.1793 |       7.1793 |       7.1793 |       7.1793 |       7.1793 |       7.1793 |       7.1793 |       7.1545 |       7.1545 |       7.1545 |       7.1545 |       7.1545 |       7.1545 |       7.1545 |       7.2108 |       7.2108 |       7.2108 |       7.2108 |       7.2108 |       7.2108 |       7.2108 |       7.1871 |       7.1871 |       7.1871 |       7.1871 |       7.1871 |       7.1871 |       7.1871 |       7.2369 |       7.2369 |       7.2369 |       7.2369 |       7.2369 |       7.2369 |       7.2369 |       7.2139 |       7.2139 |       7.2139 |       7.2139 |       7.2139 |       7.2139 |       7.2139 |
bpred_bimod.lookups                         109410 |       109410 |       109410 |xxxxxxxxxxxxx |xxxxxxxxxxxxx |xxxxxxxxxxxxx |xxxxxxxxxxxxx |       235404 |       235404 |       235404 |xxxxxxxxxxxxx |xxxxxxxxxxxxx |xxxxxxxxxxxxx |xxxxxxxxxxxxx |       500480 |       500480 |       500480 |xxxxxxxxxxxxx |xxxxxxxxxxxxx |xxxxxxxxxxxxx |xxxxxxxxxxxxx |      1070022 |      1070022 |      1070022 |xxxxxxxxxxxxx |xxxxxxxxxxxxx |xxxxxxxxxxxxx |xxxxxxxxxxxxx |      2262014 |      2262014 |      2262014 |xxxxxxxxxxxxx |xxxxxxxxxxxxx |xxxxxxxxxxxxx |xxxxxxxxxxxxx |      4801348 |      4801348 |      4801348 |xxxxxxxxxxxxx |xxxxxxxxxxxxx |xxxxxxxxxxxxx |xxxxxxxxxxxxx |     10093103 |     10093103 |     10093103 |xxxxxxxxxxxxx |xxxxxxxxxxxxx |xxxxxxxxxxxxx |xxxxxxxxxxxxx |     21300117 |     21300117 |     21300117 |xxxxxxxxxxxxx |xxxxxxxxxxxxx |xxxxxxxxxxxxx |xxxxxxxxxxxxx |     44565789 |     44565789 |     44565789 |xxxxxxxxxxxxx |xxxxxxxxxxxxx |xxxxxxxxxxxxx |xxxxxxxxxxxxx |     93588370 |     93588370 |     93588370 |xxxxxxxxxxxxx |xxxxxxxxxxxxx |xxxxxxxxxxxxx |xxxxxxxxxxxxx |    195040367 |    195040367 |    195040367 |
bpred_bimod.updates                         109410 |       109410 |       109410 |xxxxxxxxxxxxx |xxxxxxxxxxxxx |xxxxxxxxxxxxx |xxxxxxxxxxxxx |       235404 |       235404 |       235404 |xxxxxxxxxxxxx |xxxxxxxxxxxxx |xxxxxxxxxxxxx |xxxxxxxxxxxxx |       500480 |       500480 |       500480 |xxxxxxxxxxxxx |xxxxxxxxxxxxx |xxxxxxxxxxxxx |xxxxxxxxxxxxx |      1070022 |      1070022 |      1070022 |xxxxxxxxxxxxx |xxxxxxxxxxxxx |xxxxxxxxxxxxx |xxxxxxxxxxxxx |      2262014 |      2262014 |      2262014 |xxxxxxxxxxxxx |xxxxxxxxxxxxx |xxxxxxxxxxxxx |xxxxxxxxxxxxx |      4801348 |      4801348 |      4801348 |xxxxxxxxxxxxx |xxxxxxxxxxxxx |xxxxxxxxxxxxx |xxxxxxxxxxxxx |     10093103 |     10093103 |     10093103 |xxxxxxxxxxxxx |xxxxxxxxxxxxx |xxxxxxxxxxxxx |xxxxxxxxxxxxx |     21300117 |     21300117 |     21300117 |xxxxxxxxxxxxx |xxxxxxxxxxxxx |xxxxxxxxxxxxx |xxxxxxxxxxxxx |     44565789 |     44565789 |     44565789 |xxxxxxxxxxxxx |xxxxxxxxxxxxx |xxxxxxxxxxxxx |xxxxxxxxxxxxx |     93588370 |     93588370 |     93588370 |xxxxxxxxxxxxx |xxxxxxxxxxxxx |xxxxxxxxxxxxx |xxxxxxxxxxxxx |    195040367 |    195040367 |    195040367 |
bpred_bimod.addr_hits                        83323 |        83325 |        83330 |xxxxxxxxxxxxx |xxxxxxxxxxxxx |xxxxxxxxxxxxx |xxxxxxxxxxxxx |       179412 |       179415 |       179419 |xxxxxxxxxxxxx |xxxxxxxxxxxxx |xxxxxxxxxxxxx |xxxxxxxxxxxxx |       379897 |       379899 |       379903 |xxxxxxxxxxxxx |xxxxxxxxxxxxx |xxxxxxxxxxxxx |xxxxxxxxxxxxx |       813156 |       813159 |       813165 |xxxxxxxxxxxxx |xxxxxxxxxxxxx |xxxxxxxxxxxxx |xxxxxxxxxxxxx |      1716316 |      1716318 |      1716323 |xxxxxxxxxxxxx |xxxxxxxxxxxxx |xxxxxxxxxxxxx |xxxxxxxxxxxxx |      3644068 |      3644071 |      3644077 |xxxxxxxxxxxxx |xxxxxxxxxxxxx |xxxxxxxxxxxxx |xxxxxxxxxxxxx |      7647860 |      7647862 |      7647867 |xxxxxxxxxxxxx |xxxxxxxxxxxxx |xxxxxxxxxxxxx |xxxxxxxxxxxxx |     16146215 |     16146218 |     16146224 |xxxxxxxxxxxxx |xxxxxxxxxxxxx |xxxxxxxxxxxxx |xxxxxxxxxxxxx |     33733330 |     33733333 |     33733336 |xxxxxxxxxxxxx |xxxxxxxxxxxxx |xxxxxxxxxxxxx |xxxxxxxxxxxxx |     70868555 |     70868558 |     70868562 |xxxxxxxxxxxxx |xxxxxxxxxxxxx |xxxxxxxxxxxxx |xxxxxxxxxxxxx |    147513649 |    147513652 |    147513655 |
bpred_bimod.dir_hits                         83423 |        83424 |        83428 |xxxxxxxxxxxxx |xxxxxxxxxxxxx |xxxxxxxxxxxxx |xxxxxxxxxxxxx |       179521 |       179523 |       179527 |xxxxxxxxxxxxx |xxxxxxxxxxxxx |xxxxxxxxxxxxx |xxxxxxxxxxxxx |       380000 |       380001 |       380005 |xxxxxxxxxxxxx |xxxxxxxxxxxxx |xxxxxxxxxxxxx |xxxxxxxxxxxxx |       813265 |       813267 |       813272 |xxxxxxxxxxxxx |xxxxxxxxxxxxx |xxxxxxxxxxxxx |xxxxxxxxxxxxx |      1716420 |      1716421 |      1716424 |xxxxxxxxxxxxx |xxxxxxxxxxxxx |xxxxxxxxxxxxx |xxxxxxxxxxxxx |      3644178 |      3644180 |      3644185 |xxxxxxxxxxxxx |xxxxxxxxxxxxx |xxxxxxxxxxxxx |xxxxxxxxxxxxx |      7647965 |      7647966 |      7647969 |xxxxxxxxxxxxx |xxxxxxxxxxxxx |xxxxxxxxxxxxx |xxxxxxxxxxxxx |     16146325 |     16146327 |     16146332 |xxxxxxxxxxxxx |xxxxxxxxxxxxx |xxxxxxxxxxxxx |xxxxxxxxxxxxx |     33733445 |     33733447 |     33733449 |xxxxxxxxxxxxx |xxxxxxxxxxxxx |xxxxxxxxxxxxx |xxxxxxxxxxxxx |     70868670 |     70868672 |     70868676 |xxxxxxxxxxxxx |xxxxxxxxxxxxx |xxxxxxxxxxxxx |xxxxxxxxxxxxx |    147513764 |    147513766 |    147513768 |
bpred_bimod.misses                           25987 |        25986 |        25982 |xxxxxxxxxxxxx |xxxxxxxxxxxxx |xxxxxxxxxxxxx |xxxxxxxxxxxxx |        55883 |        55881 |        55877 |xxxxxxxxxxxxx |xxxxxxxxxxxxx |xxxxxxxxxxxxx |xxxxxxxxxxxxx |       120480 |       120479 |       120475 |xxxxxxxxxxxxx |xxxxxxxxxxxxx |xxxxxxxxxxxxx |xxxxxxxxxxxxx |       256757 |       256755 |       256750 |xxxxxxxxxxxxx |xxxxxxxxxxxxx |xxxxxxxxxxxxx |xxxxxxxxxxxxx |       545594 |       545593 |       545590 |xxxxxxxxxxxxx |xxxxxxxxxxxxx |xxxxxxxxxxxxx |xxxxxxxxxxxxx |      1157170 |      1157168 |      1157163 |xxxxxxxxxxxxx |xxxxxxxxxxxxx |xxxxxxxxxxxxx |xxxxxxxxxxxxx |      2445138 |      2445137 |      2445134 |xxxxxxxxxxxxx |xxxxxxxxxxxxx |xxxxxxxxxxxxx |xxxxxxxxxxxxx |      5153792 |      5153790 |      5153785 |xxxxxxxxxxxxx |xxxxxxxxxxxxx |xxxxxxxxxxxxx |xxxxxxxxxxxxx |     10832344 |     10832342 |     10832340 |xxxxxxxxxxxxx |xxxxxxxxxxxxx |xxxxxxxxxxxxx |xxxxxxxxxxxxx |     22719700 |     22719698 |     22719694 |xxxxxxxxxxxxx |xxxxxxxxxxxxx |xxxxxxxxxxxxx |xxxxxxxxxxxxx |     47526603 |     47526601 |     47526599 |
bpred_bimod.jr_hits                             61 |           61 |           61 |xxxxxxxxxxxxx |xxxxxxxxxxxxx |xxxxxxxxxxxxx |xxxxxxxxxxxxx |           71 |           71 |           71 |xxxxxxxxxxxxx |xxxxxxxxxxxxx |xxxxxxxxxxxxx |xxxxxxxxxxxxx |           69 |           69 |           69 |xxxxxxxxxxxxx |xxxxxxxxxxxxx |xxxxxxxxxxxxx |xxxxxxxxxxxxx |           71 |           71 |           71 |xxxxxxxxxxxxx |xxxxxxxxxxxxx |xxxxxxxxxxxxx |xxxxxxxxxxxxx |           69 |           69 |           69 |xxxxxxxxxxxxx |xxxxxxxxxxxxx |xxxxxxxxxxxxx |xxxxxxxxxxxxx |           71 |           71 |           71 |xxxxxxxxxxxxx |xxxxxxxxxxxxx |xxxxxxxxxxxxx |xxxxxxxxxxxxx |           69 |           69 |           69 |xxxxxxxxxxxxx |xxxxxxxxxxxxx |xxxxxxxxxxxxx |xxxxxxxxxxxxx |           71 |           71 |           71 |xxxxxxxxxxxxx |xxxxxxxxxxxxx |xxxxxxxxxxxxx |xxxxxxxxxxxxx |           72 |           72 |           72 |xxxxxxxxxxxxx |xxxxxxxxxxxxx |xxxxxxxxxxxxx |xxxxxxxxxxxxx |           75 |           75 |           75 |xxxxxxxxxxxxx |xxxxxxxxxxxxx |xxxxxxxxxxxxx |xxxxxxxxxxxxx |           72 |           72 |           72 |
bpred_bimod.jr_seen                             61 |           61 |           61 |xxxxxxxxxxxxx |xxxxxxxxxxxxx |xxxxxxxxxxxxx |xxxxxxxxxxxxx |           73 |           73 |           73 |xxxxxxxxxxxxx |xxxxxxxxxxxxx |xxxxxxxxxxxxx |xxxxxxxxxxxxx |           70 |           70 |           70 |xxxxxxxxxxxxx |xxxxxxxxxxxxx |xxxxxxxxxxxxx |xxxxxxxxxxxxx |           73 |           73 |           73 |xxxxxxxxxxxxx |xxxxxxxxxxxxx |xxxxxxxxxxxxx |xxxxxxxxxxxxx |           70 |           70 |           70 |xxxxxxxxxxxxx |xxxxxxxxxxxxx |xxxxxxxxxxxxx |xxxxxxxxxxxxx |           73 |           73 |           73 |xxxxxxxxxxxxx |xxxxxxxxxxxxx |xxxxxxxxxxxxx |xxxxxxxxxxxxx |           70 |           70 |           70 |xxxxxxxxxxxxx |xxxxxxxxxxxxx |xxxxxxxxxxxxx |xxxxxxxxxxxxx |           73 |           73 |           73 |xxxxxxxxxxxxx |xxxxxxxxxxxxx |xxxxxxxxxxxxx |xxxxxxxxxxxxx |           73 |           73 |           73 |xxxxxxxxxxxxx |xxxxxxxxxxxxx |xxxxxxxxxxxxx |xxxxxxxxxxxxx |           76 |           76 |           76 |xxxxxxxxxxxxx |xxxxxxxxxxxxx |xxxxxxxxxxxxx |xxxxxxxxxxxxx |           73 |           73 |           73 |
bpred_bimod.jr_non_ras_hits.PP                   0 |            0 |            0 |xxxxxxxxxxxxx |xxxxxxxxxxxxx |xxxxxxxxxxxxx |xxxxxxxxxxxxx |            0 |            0 |            0 |xxxxxxxxxxxxx |xxxxxxxxxxxxx |xxxxxxxxxxxxx |xxxxxxxxxxxxx |            0 |            0 |            0 |xxxxxxxxxxxxx |xxxxxxxxxxxxx |xxxxxxxxxxxxx |xxxxxxxxxxxxx |            0 |            0 |            0 |xxxxxxxxxxxxx |xxxxxxxxxxxxx |xxxxxxxxxxxxx |xxxxxxxxxxxxx |            0 |            0 |            0 |xxxxxxxxxxxxx |xxxxxxxxxxxxx |xxxxxxxxxxxxx |xxxxxxxxxxxxx |            0 |            0 |            0 |xxxxxxxxxxxxx |xxxxxxxxxxxxx |xxxxxxxxxxxxx |xxxxxxxxxxxxx |            0 |            0 |            0 |xxxxxxxxxxxxx |xxxxxxxxxxxxx |xxxxxxxxxxxxx |xxxxxxxxxxxxx |            0 |            0 |            0 |xxxxxxxxxxxxx |xxxxxxxxxxxxx |xxxxxxxxxxxxx |xxxxxxxxxxxxx |            0 |            0 |            0 |xxxxxxxxxxxxx |xxxxxxxxxxxxx |xxxxxxxxxxxxx |xxxxxxxxxxxxx |            1 |            1 |            1 |xxxxxxxxxxxxx |xxxxxxxxxxxxx |xxxxxxxxxxxxx |xxxxxxxxxxxxx |            0 |            0 |            0 |
bpred_bimod.jr_non_ras_seen.PP                   0 |            0 |            0 |xxxxxxxxxxxxx |xxxxxxxxxxxxx |xxxxxxxxxxxxx |xxxxxxxxxxxxx |            1 |            1 |            1 |xxxxxxxxxxxxx |xxxxxxxxxxxxx |xxxxxxxxxxxxx |xxxxxxxxxxxxx |            0 |            0 |            0 |xxxxxxxxxxxxx |xxxxxxxxxxxxx |xxxxxxxxxxxxx |xxxxxxxxxxxxx |            1 |            1 |            1 |xxxxxxxxxxxxx |xxxxxxxxxxxxx |xxxxxxxxxxxxx |xxxxxxxxxxxxx |            0 |            0 |            0 |xxxxxxxxxxxxx |xxxxxxxxxxxxx |xxxxxxxxxxxxx |xxxxxxxxxxxxx |            1 |            1 |            1 |xxxxxxxxxxxxx |xxxxxxxxxxxxx |xxxxxxxxxxxxx |xxxxxxxxxxxxx |            0 |            0 |            0 |xxxxxxxxxxxxx |xxxxxxxxxxxxx |xxxxxxxxxxxxx |xxxxxxxxxxxxx |            1 |            1 |            1 |xxxxxxxxxxxxx |xxxxxxxxxxxxx |xxxxxxxxxxxxx |xxxxxxxxxxxxx |            1 |            1 |            1 |xxxxxxxxxxxxx |xxxxxxxxxxxxx |xxxxxxxxxxxxx |xxxxxxxxxxxxx |            2 |            2 |            2 |xxxxxxxxxxxxx |xxxxxxxxxxxxx |xxxxxxxxxxxxx |xxxxxxxxxxxxx |            1 |            1 |            1 |
bpred_bimod.bpred_addr_rate                 0.7616 |       0.7616 |       0.7616 |xxxxxxxxxxxxx |xxxxxxxxxxxxx |xxxxxxxxxxxxx |xxxxxxxxxxxxx |       0.7621 |       0.7622 |       0.7622 |xxxxxxxxxxxxx |xxxxxxxxxxxxx |xxxxxxxxxxxxx |xxxxxxxxxxxxx |       0.7591 |       0.7591 |       0.7591 |xxxxxxxxxxxxx |xxxxxxxxxxxxx |xxxxxxxxxxxxx |xxxxxxxxxxxxx |       0.7599 |       0.7599 |       0.7600 |xxxxxxxxxxxxx |xxxxxxxxxxxxx |xxxxxxxxxxxxx |xxxxxxxxxxxxx |       0.7588 |       0.7588 |       0.7588 |xxxxxxxxxxxxx |xxxxxxxxxxxxx |xxxxxxxxxxxxx |xxxxxxxxxxxxx |       0.7590 |       0.7590 |       0.7590 |xxxxxxxxxxxxx |xxxxxxxxxxxxx |xxxxxxxxxxxxx |xxxxxxxxxxxxx |       0.7577 |       0.7577 |       0.7577 |xxxxxxxxxxxxx |xxxxxxxxxxxxx |xxxxxxxxxxxxx |xxxxxxxxxxxxx |       0.7580 |       0.7580 |       0.7580 |xxxxxxxxxxxxx |xxxxxxxxxxxxx |xxxxxxxxxxxxx |xxxxxxxxxxxxx |       0.7569 |       0.7569 |       0.7569 |xxxxxxxxxxxxx |xxxxxxxxxxxxx |xxxxxxxxxxxxx |xxxxxxxxxxxxx |       0.7572 |       0.7572 |       0.7572 |xxxxxxxxxxxxx |xxxxxxxxxxxxx |xxxxxxxxxxxxx |xxxxxxxxxxxxx |       0.7563 |       0.7563 |       0.7563 |
bpred_bimod.bpred_dir_rate                  0.7625 |       0.7625 |       0.7625 |xxxxxxxxxxxxx |xxxxxxxxxxxxx |xxxxxxxxxxxxx |xxxxxxxxxxxxx |       0.7626 |       0.7626 |       0.7626 |xxxxxxxxxxxxx |xxxxxxxxxxxxx |xxxxxxxxxxxxx |xxxxxxxxxxxxx |       0.7593 |       0.7593 |       0.7593 |xxxxxxxxxxxxx |xxxxxxxxxxxxx |xxxxxxxxxxxxx |xxxxxxxxxxxxx |       0.7600 |       0.7600 |       0.7601 |xxxxxxxxxxxxx |xxxxxxxxxxxxx |xxxxxxxxxxxxx |xxxxxxxxxxxxx |       0.7588 |       0.7588 |       0.7588 |xxxxxxxxxxxxx |xxxxxxxxxxxxx |xxxxxxxxxxxxx |xxxxxxxxxxxxx |       0.7590 |       0.7590 |       0.7590 |xxxxxxxxxxxxx |xxxxxxxxxxxxx |xxxxxxxxxxxxx |xxxxxxxxxxxxx |       0.7577 |       0.7577 |       0.7577 |xxxxxxxxxxxxx |xxxxxxxxxxxxx |xxxxxxxxxxxxx |xxxxxxxxxxxxx |       0.7580 |       0.7580 |       0.7580 |xxxxxxxxxxxxx |xxxxxxxxxxxxx |xxxxxxxxxxxxx |xxxxxxxxxxxxx |       0.7569 |       0.7569 |       0.7569 |xxxxxxxxxxxxx |xxxxxxxxxxxxx |xxxxxxxxxxxxx |xxxxxxxxxxxxx |       0.7572 |       0.7572 |       0.7572 |xxxxxxxxxxxxx |xxxxxxxxxxxxx |xxxxxxxxxxxxx |xxxxxxxxxxxxx |       0.7563 |       0.7563 |       0.7563 |
bpred_bimod.bpred_jr_rate                   1.0000 |       1.0000 |       1.0000 |xxxxxxxxxxxxx |xxxxxxxxxxxxx |xxxxxxxxxxxxx |xxxxxxxxxxxxx |       0.9726 |       0.9726 |       0.9726 |xxxxxxxxxxxxx |xxxxxxxxxxxxx |xxxxxxxxxxxxx |xxxxxxxxxxxxx |       0.9857 |       0.9857 |       0.9857 |xxxxxxxxxxxxx |xxxxxxxxxxxxx |xxxxxxxxxxxxx |xxxxxxxxxxxxx |       0.9726 |       0.9726 |       0.9726 |xxxxxxxxxxxxx |xxxxxxxxxxxxx |xxxxxxxxxxxxx |xxxxxxxxxxxxx |       0.9857 |       0.9857 |       0.9857 |xxxxxxxxxxxxx |xxxxxxxxxxxxx |xxxxxxxxxxxxx |xxxxxxxxxxxxx |       0.9726 |       0.9726 |       0.9726 |xxxxxxxxxxxxx |xxxxxxxxxxxxx |xxxxxxxxxxxxx |xxxxxxxxxxxxx |       0.9857 |       0.9857 |       0.9857 |xxxxxxxxxxxxx |xxxxxxxxxxxxx |xxxxxxxxxxxxx |xxxxxxxxxxxxx |       0.9726 |       0.9726 |       0.9726 |xxxxxxxxxxxxx |xxxxxxxxxxxxx |xxxxxxxxxxxxx |xxxxxxxxxxxxx |       0.9863 |       0.9863 |       0.9863 |xxxxxxxxxxxxx |xxxxxxxxxxxxx |xxxxxxxxxxxxx |xxxxxxxxxxxxx |       0.9868 |       0.9868 |       0.9868 |xxxxxxxxxxxxx |xxxxxxxxxxxxx |xxxxxxxxxxxxx |xxxxxxxxxxxxx |       0.9863 |       0.9863 |       0.9863 |
bpred_bimod.bpred_jr_non_ras_rate.PP       <error: |      <error: |      <error: |xxxxxxxxxxxxx |xxxxxxxxxxxxx |xxxxxxxxxxxxx |xxxxxxxxxxxxx |       0.0000 |       0.0000 |       0.0000 |xxxxxxxxxxxxx |xxxxxxxxxxxxx |xxxxxxxxxxxxx |xxxxxxxxxxxxx |      <error: |      <error: |      <error: |xxxxxxxxxxxxx |xxxxxxxxxxxxx |xxxxxxxxxxxxx |xxxxxxxxxxxxx |       0.0000 |       0.0000 |       0.0000 |xxxxxxxxxxxxx |xxxxxxxxxxxxx |xxxxxxxxxxxxx |xxxxxxxxxxxxx |      <error: |      <error: |      <error: |xxxxxxxxxxxxx |xxxxxxxxxxxxx |xxxxxxxxxxxxx |xxxxxxxxxxxxx |       0.0000 |       0.0000 |       0.0000 |xxxxxxxxxxxxx |xxxxxxxxxxxxx |xxxxxxxxxxxxx |xxxxxxxxxxxxx |      <error: |      <error: |      <error: |xxxxxxxxxxxxx |xxxxxxxxxxxxx |xxxxxxxxxxxxx |xxxxxxxxxxxxx |       0.0000 |       0.0000 |       0.0000 |xxxxxxxxxxxxx |xxxxxxxxxxxxx |xxxxxxxxxxxxx |xxxxxxxxxxxxx |       0.0000 |       0.0000 |       0.0000 |xxxxxxxxxxxxx |xxxxxxxxxxxxx |xxxxxxxxxxxxx |xxxxxxxxxxxxx |       0.5000 |       0.5000 |       0.5000 |xxxxxxxxxxxxx |xxxxxxxxxxxxx |xxxxxxxxxxxxx |xxxxxxxxxxxxx |       0.0000 |       0.0000 |       0.0000 |
bpred_bimod.retstack_pushes                     63 |           63 |           63 |xxxxxxxxxxxxx |xxxxxxxxxxxxx |xxxxxxxxxxxxx |xxxxxxxxxxxxx |           74 |           74 |           74 |xxxxxxxxxxxxx |xxxxxxxxxxxxx |xxxxxxxxxxxxx |xxxxxxxxxxxxx |           72 |           72 |           72 |xxxxxxxxxxxxx |xxxxxxxxxxxxx |xxxxxxxxxxxxx |xxxxxxxxxxxxx |           74 |           74 |           74 |xxxxxxxxxxxxx |xxxxxxxxxxxxx |xxxxxxxxxxxxx |xxxxxxxxxxxxx |           72 |           72 |           72 |xxxxxxxxxxxxx |xxxxxxxxxxxxx |xxxxxxxxxxxxx |xxxxxxxxxxxxx |           74 |           74 |           74 |xxxxxxxxxxxxx |xxxxxxxxxxxxx |xxxxxxxxxxxxx |xxxxxxxxxxxxx |           72 |           72 |           72 |xxxxxxxxxxxxx |xxxxxxxxxxxxx |xxxxxxxxxxxxx |xxxxxxxxxxxxx |           74 |           74 |           74 |xxxxxxxxxxxxx |xxxxxxxxxxxxx |xxxxxxxxxxxxx |xxxxxxxxxxxxx |           74 |           74 |           74 |xxxxxxxxxxxxx |xxxxxxxxxxxxx |xxxxxxxxxxxxx |xxxxxxxxxxxxx |           76 |           76 |           76 |xxxxxxxxxxxxx |xxxxxxxxxxxxx |xxxxxxxxxxxxx |xxxxxxxxxxxxx |           74 |           74 |           74 |
bpred_bimod.retstack_pops                       61 |           61 |           61 |xxxxxxxxxxxxx |xxxxxxxxxxxxx |xxxxxxxxxxxxx |xxxxxxxxxxxxx |           72 |           72 |           72 |xxxxxxxxxxxxx |xxxxxxxxxxxxx |xxxxxxxxxxxxx |xxxxxxxxxxxxx |           70 |           70 |           70 |xxxxxxxxxxxxx |xxxxxxxxxxxxx |xxxxxxxxxxxxx |xxxxxxxxxxxxx |           72 |           72 |           72 |xxxxxxxxxxxxx |xxxxxxxxxxxxx |xxxxxxxxxxxxx |xxxxxxxxxxxxx |           70 |           70 |           70 |xxxxxxxxxxxxx |xxxxxxxxxxxxx |xxxxxxxxxxxxx |xxxxxxxxxxxxx |           72 |           72 |           72 |xxxxxxxxxxxxx |xxxxxxxxxxxxx |xxxxxxxxxxxxx |xxxxxxxxxxxxx |           70 |           70 |           70 |xxxxxxxxxxxxx |xxxxxxxxxxxxx |xxxxxxxxxxxxx |xxxxxxxxxxxxx |           72 |           72 |           72 |xxxxxxxxxxxxx |xxxxxxxxxxxxx |xxxxxxxxxxxxx |xxxxxxxxxxxxx |           72 |           72 |           72 |xxxxxxxxxxxxx |xxxxxxxxxxxxx |xxxxxxxxxxxxx |xxxxxxxxxxxxx |           74 |           74 |           74 |xxxxxxxxxxxxx |xxxxxxxxxxxxx |xxxxxxxxxxxxx |xxxxxxxxxxxxx |           72 |           72 |           72 |
bpred_bimod.used_ras.PP                         61 |           61 |           61 |xxxxxxxxxxxxx |xxxxxxxxxxxxx |xxxxxxxxxxxxx |xxxxxxxxxxxxx |           72 |           72 |           72 |xxxxxxxxxxxxx |xxxxxxxxxxxxx |xxxxxxxxxxxxx |xxxxxxxxxxxxx |           70 |           70 |           70 |xxxxxxxxxxxxx |xxxxxxxxxxxxx |xxxxxxxxxxxxx |xxxxxxxxxxxxx |           72 |           72 |           72 |xxxxxxxxxxxxx |xxxxxxxxxxxxx |xxxxxxxxxxxxx |xxxxxxxxxxxxx |           70 |           70 |           70 |xxxxxxxxxxxxx |xxxxxxxxxxxxx |xxxxxxxxxxxxx |xxxxxxxxxxxxx |           72 |           72 |           72 |xxxxxxxxxxxxx |xxxxxxxxxxxxx |xxxxxxxxxxxxx |xxxxxxxxxxxxx |           70 |           70 |           70 |xxxxxxxxxxxxx |xxxxxxxxxxxxx |xxxxxxxxxxxxx |xxxxxxxxxxxxx |           72 |           72 |           72 |xxxxxxxxxxxxx |xxxxxxxxxxxxx |xxxxxxxxxxxxx |xxxxxxxxxxxxx |           72 |           72 |           72 |xxxxxxxxxxxxx |xxxxxxxxxxxxx |xxxxxxxxxxxxx |xxxxxxxxxxxxx |           74 |           74 |           74 |xxxxxxxxxxxxx |xxxxxxxxxxxxx |xxxxxxxxxxxxx |xxxxxxxxxxxxx |           72 |           72 |           72 |
bpred_bimod.ras_hits.PP                         61 |           61 |           61 |xxxxxxxxxxxxx |xxxxxxxxxxxxx |xxxxxxxxxxxxx |xxxxxxxxxxxxx |           71 |           71 |           71 |xxxxxxxxxxxxx |xxxxxxxxxxxxx |xxxxxxxxxxxxx |xxxxxxxxxxxxx |           69 |           69 |           69 |xxxxxxxxxxxxx |xxxxxxxxxxxxx |xxxxxxxxxxxxx |xxxxxxxxxxxxx |           71 |           71 |           71 |xxxxxxxxxxxxx |xxxxxxxxxxxxx |xxxxxxxxxxxxx |xxxxxxxxxxxxx |           69 |           69 |           69 |xxxxxxxxxxxxx |xxxxxxxxxxxxx |xxxxxxxxxxxxx |xxxxxxxxxxxxx |           71 |           71 |           71 |xxxxxxxxxxxxx |xxxxxxxxxxxxx |xxxxxxxxxxxxx |xxxxxxxxxxxxx |           69 |           69 |           69 |xxxxxxxxxxxxx |xxxxxxxxxxxxx |xxxxxxxxxxxxx |xxxxxxxxxxxxx |           71 |           71 |           71 |xxxxxxxxxxxxx |xxxxxxxxxxxxx |xxxxxxxxxxxxx |xxxxxxxxxxxxx |           72 |           72 |           72 |xxxxxxxxxxxxx |xxxxxxxxxxxxx |xxxxxxxxxxxxx |xxxxxxxxxxxxx |           74 |           74 |           74 |xxxxxxxxxxxxx |xxxxxxxxxxxxx |xxxxxxxxxxxxx |xxxxxxxxxxxxx |           72 |           72 |           72 |
bpred_bimod.ras_rate.PP                     1.0000 |       1.0000 |       1.0000 |xxxxxxxxxxxxx |xxxxxxxxxxxxx |xxxxxxxxxxxxx |xxxxxxxxxxxxx |       0.9861 |       0.9861 |       0.9861 |xxxxxxxxxxxxx |xxxxxxxxxxxxx |xxxxxxxxxxxxx |xxxxxxxxxxxxx |       0.9857 |       0.9857 |       0.9857 |xxxxxxxxxxxxx |xxxxxxxxxxxxx |xxxxxxxxxxxxx |xxxxxxxxxxxxx |       0.9861 |       0.9861 |       0.9861 |xxxxxxxxxxxxx |xxxxxxxxxxxxx |xxxxxxxxxxxxx |xxxxxxxxxxxxx |       0.9857 |       0.9857 |       0.9857 |xxxxxxxxxxxxx |xxxxxxxxxxxxx |xxxxxxxxxxxxx |xxxxxxxxxxxxx |       0.9861 |       0.9861 |       0.9861 |xxxxxxxxxxxxx |xxxxxxxxxxxxx |xxxxxxxxxxxxx |xxxxxxxxxxxxx |       0.9857 |       0.9857 |       0.9857 |xxxxxxxxxxxxx |xxxxxxxxxxxxx |xxxxxxxxxxxxx |xxxxxxxxxxxxx |       0.9861 |       0.9861 |       0.9861 |xxxxxxxxxxxxx |xxxxxxxxxxxxx |xxxxxxxxxxxxx |xxxxxxxxxxxxx |       1.0000 |       1.0000 |       1.0000 |xxxxxxxxxxxxx |xxxxxxxxxxxxx |xxxxxxxxxxxxx |xxxxxxxxxxxxx |       1.0000 |       1.0000 |       1.0000 |xxxxxxxxxxxxx |xxxxxxxxxxxxx |xxxxxxxxxxxxx |xxxxxxxxxxxxx |       1.0000 |       1.0000 |       1.0000 |
bpred_2lev.lookups                   xxxxxxxxxxxxx |xxxxxxxxxxxxx |xxxxxxxxxxxxx |       109410 |       109410 |       109410 |       109410 |xxxxxxxxxxxxx |xxxxxxxxxxxxx |xxxxxxxxxxxxx |       235404 |       235404 |       235404 |       235404 |xxxxxxxxxxxxx |xxxxxxxxxxxxx |xxxxxxxxxxxxx |       500480 |       500480 |       500480 |       500480 |xxxxxxxxxxxxx |xxxxxxxxxxxxx |xxxxxxxxxxxxx |      1070022 |      1070022 |      1070022 |      1070022 |xxxxxxxxxxxxx |xxxxxxxxxxxxx |xxxxxxxxxxxxx |      2262014 |      2262014 |      2262014 |      2262014 |xxxxxxxxxxxxx |xxxxxxxxxxxxx |xxxxxxxxxxxxx |      4801348 |      4801348 |      4801348 |      4801348 |xxxxxxxxxxxxx |xxxxxxxxxxxxx |xxxxxxxxxxxxx |     10093103 |     10093103 |     10093103 |     10093103 |xxxxxxxxxxxxx |xxxxxxxxxxxxx |xxxxxxxxxxxxx |     21300117 |     21300117 |     21300117 |     21300117 |xxxxxxxxxxxxx |xxxxxxxxxxxxx |xxxxxxxxxxxxx |     44565789 |     44565789 |     44565789 |     44565789 |xxxxxxxxxxxxx |xxxxxxxxxxxxx |xxxxxxxxxxxxx |     93588370 |     93588370 |     93588370 |     93588370 |xxxxxxxxxxxxx |xxxxxxxxxxxxx |xxxxxxxxxxxxx |    195040367 |    195040367 |    195040367 |    195040367 |
[...]
bpred_2lev.bpred_jr_non_ras_rate.PP  xxxxxxxxxxxxx |xxxxxxxxxxxxx |xxxxxxxxxxxxx |      <error: |      <error: |      <error: |      <error: |xxxxxxxxxxxxx |xxxxxxxxxxxxx |xxxxxxxxxxxxx |       0.0000 |       0.0000 |       0.0000 |       0.0000 |xxxxxxxxxxxxx |xxxxxxxxxxxxx |xxxxxxxxxxxxx |      <error: |      <error: |      <error: |      <error: |xxxxxxxxxxxxx |xxxxxxxxxxxxx |xxxxxxxxxxxxx |       0.0000 |       0.0000 |       0.0000 |       0.0000 |xxxxxxxxxxxxx |xxxxxxxxxxxxx |xxxxxxxxxxxxx |      <error: |      <error: |      <error: |      <error: |xxxxxxxxxxxxx |xxxxxxxxxxxxx |xxxxxxxxxxxxx |       0.0000 |       0.0000 |       0.0000 |       0.0000 |xxxxxxxxxxxxx |xxxxxxxxxxxxx |xxxxxxxxxxxxx |      <error: |      <error: |      <error: |      <error: |xxxxxxxxxxxxx |xxxxxxxxxxxxx |xxxxxxxxxxxxx |       0.0000 |       0.0000 |       0.0000 |       0.0000 |xxxxxxxxxxxxx |xxxxxxxxxxxxx |xxxxxxxxxxxxx |       0.0000 |       0.0000 |       0.0000 |       0.0000 |xxxxxxxxxxxxx |xxxxxxxxxxxxx |xxxxxxxxxxxxx |       0.5000 |       0.5000 |       0.5000 |       0.5000 |xxxxxxxxxxxxx |xxxxxxxxxxxxx |xxxxxxxxxxxxx |       0.0000 |       0.0000 |       0.0000 |       0.0000 |
bpred_2lev.retstack_pushes           xxxxxxxxxxxxx |xxxxxxxxxxxxx |xxxxxxxxxxxxx |           63 |           63 |           63 |           63 |xxxxxxxxxxxxx |xxxxxxxxxxxxx |xxxxxxxxxxxxx |           74 |           74 |           74 |           74 |xxxxxxxxxxxxx |xxxxxxxxxxxxx |xxxxxxxxxxxxx |           72 |           72 |           72 |           72 |xxxxxxxxxxxxx |xxxxxxxxxxxxx |xxxxxxxxxxxxx |           74 |           74 |           74 |           74 |xxxxxxxxxxxxx |xxxxxxxxxxxxx |xxxxxxxxxxxxx |           72 |           72 |           72 |           72 |xxxxxxxxxxxxx |xxxxxxxxxxxxx |xxxxxxxxxxxxx |           74 |           74 |           74 |           74 |xxxxxxxxxxxxx |xxxxxxxxxxxxx |xxxxxxxxxxxxx |           72 |           72 |           72 |           72 |xxxxxxxxxxxxx |xxxxxxxxxxxxx |xxxxxxxxxxxxx |           74 |           74 |           74 |           74 |xxxxxxxxxxxxx |xxxxxxxxxxxxx |xxxxxxxxxxxxx |           74 |           74 |           74 |           74 |xxxxxxxxxxxxx |xxxxxxxxxxxxx |xxxxxxxxxxxxx |           76 |           76 |           76 |           76 |xxxxxxxxxxxxx |xxxxxxxxxxxxx |xxxxxxxxxxxxx |           74 |           74 |           74 |           74 |
bpred_2lev.retstack_pops             xxxxxxxxxxxxx |xxxxxxxxxxxxx |xxxxxxxxxxxxx |           61 |           61 |           61 |           61 |xxxxxxxxxxxxx |xxxxxxxxxxxxx |xxxxxxxxxxxxx |           72 |           72 |           72 |           72 |xxxxxxxxxxxxx |xxxxxxxxxxxxx |xxxxxxxxxxxxx |           70 |           70 |           70 |           70 |xxxxxxxxxxxxx |xxxxxxxxxxxxx |xxxxxxxxxxxxx |           72 |           72 |           72 |           72 |xxxxxxxxxxxxx |xxxxxxxxxxxxx |xxxxxxxxxxxxx |           70 |           70 |           70 |           70 |xxxxxxxxxxxxx |xxxxxxxxxxxxx |xxxxxxxxxxxxx |           72 |           72 |           72 |           72 |xxxxxxxxxxxxx |xxxxxxxxxxxxx |xxxxxxxxxxxxx |           70 |           70 |           70 |           70 |xxxxxxxxxxxxx |xxxxxxxxxxxxx |xxxxxxxxxxxxx |           72 |           72 |           72 |           72 |xxxxxxxxxxxxx |xxxxxxxxxxxxx |xxxxxxxxxxxxx |           72 |           72 |           72 |           72 |xxxxxxxxxxxxx |xxxxxxxxxxxxx |xxxxxxxxxxxxx |           74 |           74 |           74 |           74 |xxxxxxxxxxxxx |xxxxxxxxxxxxx |xxxxxxxxxxxxx |           72 |           72 |           72 |           72 |
bpred_2lev.used_ras.PP               xxxxxxxxxxxxx |xxxxxxxxxxxxx |xxxxxxxxxxxxx |           61 |           61 |           61 |           61 |xxxxxxxxxxxxx |xxxxxxxxxxxxx |xxxxxxxxxxxxx |           72 |           72 |           72 |           72 |xxxxxxxxxxxxx |xxxxxxxxxxxxx |xxxxxxxxxxxxx |           70 |           70 |           70 |           70 |xxxxxxxxxxxxx |xxxxxxxxxxxxx |xxxxxxxxxxxxx |           72 |           72 |           72 |           72 |xxxxxxxxxxxxx |xxxxxxxxxxxxx |xxxxxxxxxxxxx |           70 |           70 |           70 |           70 |xxxxxxxxxxxxx |xxxxxxxxxxxxx |xxxxxxxxxxxxx |           72 |           72 |           72 |           72 |xxxxxxxxxxxxx |xxxxxxxxxxxxx |xxxxxxxxxxxxx |           70 |           70 |           70 |           70 |xxxxxxxxxxxxx |xxxxxxxxxxxxx |xxxxxxxxxxxxx |           72 |           72 |           72 |           72 |xxxxxxxxxxxxx |xxxxxxxxxxxxx |xxxxxxxxxxxxx |           72 |           72 |           72 |           72 |xxxxxxxxxxxxx |xxxxxxxxxxxxx |xxxxxxxxxxxxx |           74 |           74 |           74 |           74 |xxxxxxxxxxxxx |xxxxxxxxxxxxx |xxxxxxxxxxxxx |           72 |           72 |           72 |           72 |
bpred_2lev.ras_hits.PP               xxxxxxxxxxxxx |xxxxxxxxxxxxx |xxxxxxxxxxxxx |           61 |           61 |           61 |           61 |xxxxxxxxxxxxx |xxxxxxxxxxxxx |xxxxxxxxxxxxx |           71 |           71 |           71 |           71 |xxxxxxxxxxxxx |xxxxxxxxxxxxx |xxxxxxxxxxxxx |           69 |           69 |           69 |           69 |xxxxxxxxxxxxx |xxxxxxxxxxxxx |xxxxxxxxxxxxx |           71 |           71 |           71 |           71 |xxxxxxxxxxxxx |xxxxxxxxxxxxx |xxxxxxxxxxxxx |           69 |           69 |           69 |           69 |xxxxxxxxxxxxx |xxxxxxxxxxxxx |xxxxxxxxxxxxx |           71 |           71 |           71 |           71 |xxxxxxxxxxxxx |xxxxxxxxxxxxx |xxxxxxxxxxxxx |           69 |           69 |           69 |           69 |xxxxxxxxxxxxx |xxxxxxxxxxxxx |xxxxxxxxxxxxx |           71 |           71 |           71 |           71 |xxxxxxxxxxxxx |xxxxxxxxxxxxx |xxxxxxxxxxxxx |           72 |           72 |           72 |           72 |xxxxxxxxxxxxx |xxxxxxxxxxxxx |xxxxxxxxxxxxx |           74 |           74 |           74 |           74 |xxxxxxxxxxxxx |xxxxxxxxxxxxx |xxxxxxxxxxxxx |           72 |           72 |           72 |           72 |
bpred_2lev.ras_rate.PP               xxxxxxxxxxxxx |xxxxxxxxxxxxx |xxxxxxxxxxxxx |       1.0000 |       1.0000 |       1.0000 |       1.0000 |xxxxxxxxxxxxx |xxxxxxxxxxxxx |xxxxxxxxxxxxx |       0.9861 |       0.9861 |       0.9861 |       0.9861 |xxxxxxxxxxxxx |xxxxxxxxxxxxx |xxxxxxxxxxxxx |       0.9857 |       0.9857 |       0.9857 |       0.9857 |xxxxxxxxxxxxx |xxxxxxxxxxxxx |xxxxxxxxxxxxx |       0.9861 |       0.9861 |       0.9861 |       0.9861 |xxxxxxxxxxxxx |xxxxxxxxxxxxx |xxxxxxxxxxxxx |       0.9857 |       0.9857 |       0.9857 |       0.9857 |xxxxxxxxxxxxx |xxxxxxxxxxxxx |xxxxxxxxxxxxx |       0.9861 |       0.9861 |       0.9861 |       0.9861 |xxxxxxxxxxxxx |xxxxxxxxxxxxx |xxxxxxxxxxxxx |       0.9857 |       0.9857 |       0.9857 |       0.9857 |xxxxxxxxxxxxx |xxxxxxxxxxxxx |xxxxxxxxxxxxx |       0.9861 |       0.9861 |       0.9861 |       0.9861 |xxxxxxxxxxxxx |xxxxxxxxxxxxx |xxxxxxxxxxxxx |       1.0000 |       1.0000 |       1.0000 |       1.0000 |xxxxxxxxxxxxx |xxxxxxxxxxxxx |xxxxxxxxxxxxx |       1.0000 |       1.0000 |       1.0000 |       1.0000 |xxxxxxxxxxxxx |xxxxxxxxxxxxx |xxxxxxxxxxxxx |       1.0000 |       1.0000 |       1.0000 |       1.0000 |

Command list: 
	sslittle-na-sstrix-gcc -Wall -O3 -funroll-loops -finline-functions  -DRANDOM_SIZE=4096 -DOFFSET=0 -DSORT=algorithm_s algorithm_s1650138280.c simpleMain.c -o algorithm_s883425449
	sim-cache -cache:dl1 dl1:256:32:1:l -cache:dl2 dl2:131072:32:1:l -cache:il1 il1:256:32:1:l -cache:il2 dl2 algorithm_s883425449
	sim-cache -cache:dl1 dl1:256:32:1:l -cache:dl2 dl2:65536:32:1:l -cache:il1 il1:256:32:1:l -cache:il2 dl2 algorithm_s883425449
	sim-cache -cache:dl1 dl1:1:32:256:l -cache:dl2 dl2:1:32:131072:l -cache:il1 il1:1:32:256:l -cache:il2 dl2 algorithm_s883425449
	sim-cache -cache:dl1 dl1:1:32:256:l -cache:dl2 dl2:1:32:65536:l -cache:il1 il1:1:32:256:l -cache:il2 dl2 algorithm_s883425449
	sim-bpred -bpred bimod -bpred:bimod 512 algorithm_s883425449
	sim-bpred -bpred bimod -bpred:bimod 1024 algorithm_s883425449
	sim-bpred -bpred bimod -bpred:bimod 2048 algorithm_s883425449
	sim-bpred -bpred 2lev -bpred:2lev 1 512 10 1 algorithm_s883425449
	sim-bpred -bpred 2lev -bpred:2lev 1 1024 10 1 algorithm_s883425449
	sim-bpred -bpred 2lev -bpred:2lev 1 2048 10 1 algorithm_s883425449
	sim-bpred -bpred 2lev -bpred:2lev 1 4096 10 1 algorithm_s883425449
	sslittle-na-sstrix-gcc -Wall -O3 -funroll-loops -finline-functions  -DRANDOM_SIZE=8192 -DOFFSET=0 -DSORT=algorithm_s algorithm_s1650138280.c simpleMain.c -o algorithm_s883425449
	sim-cache -cache:dl1 dl1:256:32:1:l -cache:dl2 dl2:131072:32:1:l -cache:il1 il1:256:32:1:l -cache:il2 dl2 algorithm_s883425449
	sim-cache -cache:dl1 dl1:256:32:1:l -cache:dl2 dl2:65536:32:1:l -cache:il1 il1:256:32:1:l -cache:il2 dl2 algorithm_s883425449
	sim-cache -cache:dl1 dl1:1:32:256:l -cache:dl2 dl2:1:32:131072:l -cache:il1 il1:1:32:256:l -cache:il2 dl2 algorithm_s883425449
	sim-cache -cache:dl1 dl1:1:32:256:l -cache:dl2 dl2:1:32:65536:l -cache:il1 il1:1:32:256:l -cache:il2 dl2 algorithm_s883425449
	sim-bpred -bpred bimod -bpred:bimod 512 algorithm_s883425449
	sim-bpred -bpred bimod -bpred:bimod 1024 algorithm_s883425449
	sim-bpred -bpred bimod -bpred:bimod 2048 algorithm_s883425449
	sim-bpred -bpred 2lev -bpred:2lev 1 512 10 1 algorithm_s883425449
	sim-bpred -bpred 2lev -bpred:2lev 1 1024 10 1 algorithm_s883425449
	sim-bpred -bpred 2lev -bpred:2lev 1 2048 10 1 algorithm_s883425449
	sim-bpred -bpred 2lev -bpred:2lev 1 4096 10 1 algorithm_s883425449
	sslittle-na-sstrix-gcc -Wall -O3 -funroll-loops -finline-functions  -DRANDOM_SIZE=16384 -DOFFSET=0 -DSORT=algorithm_s algorithm_s1650138280.c simpleMain.c -o algorithm_s883425449
	sim-cache -cache:dl1 dl1:256:32:1:l -cache:dl2 dl2:131072:32:1:l -cache:il1 il1:256:32:1:l -cache:il2 dl2 algorithm_s883425449
	sim-cache -cache:dl1 dl1:256:32:1:l -cache:dl2 dl2:65536:32:1:l -cache:il1 il1:256:32:1:l -cache:il2 dl2 algorithm_s883425449
	sim-cache -cache:dl1 dl1:1:32:256:l -cache:dl2 dl2:1:32:131072:l -cache:il1 il1:1:32:256:l -cache:il2 dl2 algorithm_s883425449
	sim-cache -cache:dl1 dl1:1:32:256:l -cache:dl2 dl2:1:32:65536:l -cache:il1 il1:1:32:256:l -cache:il2 dl2 algorithm_s883425449
	sim-bpred -bpred bimod -bpred:bimod 512 algorithm_s883425449
	sim-bpred -bpred bimod -bpred:bimod 1024 algorithm_s883425449
	sim-bpred -bpred bimod -bpred:bimod 2048 algorithm_s883425449
	sim-bpred -bpred 2lev -bpred:2lev 1 512 10 1 algorithm_s883425449
	sim-bpred -bpred 2lev -bpred:2lev 1 1024 10 1 algorithm_s883425449
	sim-bpred -bpred 2lev -bpred:2lev 1 2048 10 1 algorithm_s883425449
	sim-bpred -bpred 2lev -bpred:2lev 1 4096 10 1 algorithm_s883425449
	sslittle-na-sstrix-gcc -Wall -O3 -funroll-loops -finline-functions  -DRANDOM_SIZE=32768 -DOFFSET=0 -DSORT=algorithm_s algorithm_s1650138280.c simpleMain.c -o algorithm_s883425449
	sim-cache -cache:dl1 dl1:256:32:1:l -cache:dl2 dl2:131072:32:1:l -cache:il1 il1:256:32:1:l -cache:il2 dl2 algorithm_s883425449
	sim-cache -cache:dl1 dl1:256:32:1:l -cache:dl2 dl2:65536:32:1:l -cache:il1 il1:256:32:1:l -cache:il2 dl2 algorithm_s883425449
	sim-cache -cache:dl1 dl1:1:32:256:l -cache:dl2 dl2:1:32:131072:l -cache:il1 il1:1:32:256:l -cache:il2 dl2 algorithm_s883425449
	sim-cache -cache:dl1 dl1:1:32:256:l -cache:dl2 dl2:1:32:65536:l -cache:il1 il1:1:32:256:l -cache:il2 dl2 algorithm_s883425449
	sim-bpred -bpred bimod -bpred:bimod 512 algorithm_s883425449
	sim-bpred -bpred bimod -bpred:bimod 1024 algorithm_s883425449
	sim-bpred -bpred bimod -bpred:bimod 2048 algorithm_s883425449
	sim-bpred -bpred 2lev -bpred:2lev 1 512 10 1 algorithm_s883425449
	sim-bpred -bpred 2lev -bpred:2lev 1 1024 10 1 algorithm_s883425449
	sim-bpred -bpred 2lev -bpred:2lev 1 2048 10 1 algorithm_s883425449
	sim-bpred -bpred 2lev -bpred:2lev 1 4096 10 1 algorithm_s883425449
	sslittle-na-sstrix-gcc -Wall -O3 -funroll-loops -finline-functions  -DRANDOM_SIZE=65536 -DOFFSET=0 -DSORT=algorithm_s algorithm_s1650138280.c simpleMain.c -o algorithm_s883425449
	sim-cache -cache:dl1 dl1:256:32:1:l -cache:dl2 dl2:131072:32:1:l -cache:il1 il1:256:32:1:l -cache:il2 dl2 algorithm_s883425449
	sim-cache -cache:dl1 dl1:256:32:1:l -cache:dl2 dl2:65536:32:1:l -cache:il1 il1:256:32:1:l -cache:il2 dl2 algorithm_s883425449
	sim-cache -cache:dl1 dl1:1:32:256:l -cache:dl2 dl2:1:32:131072:l -cache:il1 il1:1:32:256:l -cache:il2 dl2 algorithm_s883425449
	sim-cache -cache:dl1 dl1:1:32:256:l -cache:dl2 dl2:1:32:65536:l -cache:il1 il1:1:32:256:l -cache:il2 dl2 algorithm_s883425449
	sim-bpred -bpred bimod -bpred:bimod 512 algorithm_s883425449
	sim-bpred -bpred bimod -bpred:bimod 1024 algorithm_s883425449
	sim-bpred -bpred bimod -bpred:bimod 2048 algorithm_s883425449
	sim-bpred -bpred 2lev -bpred:2lev 1 512 10 1 algorithm_s883425449
	sim-bpred -bpred 2lev -bpred:2lev 1 1024 10 1 algorithm_s883425449
	sim-bpred -bpred 2lev -bpred:2lev 1 2048 10 1 algorithm_s883425449
	sim-bpred -bpred 2lev -bpred:2lev 1 4096 10 1 algorithm_s883425449
	sslittle-na-sstrix-gcc -Wall -O3 -funroll-loops -finline-functions  -DRANDOM_SIZE=131072 -DOFFSET=0 -DSORT=algorithm_s algorithm_s1650138280.c simpleMain.c -o algorithm_s883425449
	sim-cache -cache:dl1 dl1:256:32:1:l -cache:dl2 dl2:131072:32:1:l -cache:il1 il1:256:32:1:l -cache:il2 dl2 algorithm_s883425449
	sim-cache -cache:dl1 dl1:256:32:1:l -cache:dl2 dl2:65536:32:1:l -cache:il1 il1:256:32:1:l -cache:il2 dl2 algorithm_s883425449
	sim-cache -cache:dl1 dl1:1:32:256:l -cache:dl2 dl2:1:32:131072:l -cache:il1 il1:1:32:256:l -cache:il2 dl2 algorithm_s883425449
	sim-cache -cache:dl1 dl1:1:32:256:l -cache:dl2 dl2:1:32:65536:l -cache:il1 il1:1:32:256:l -cache:il2 dl2 algorithm_s883425449
	sim-bpred -bpred bimod -bpred:bimod 512 algorithm_s883425449
	sim-bpred -bpred bimod -bpred:bimod 1024 algorithm_s883425449
	sim-bpred -bpred bimod -bpred:bimod 2048 algorithm_s883425449
	sim-bpred -bpred 2lev -bpred:2lev 1 512 10 1 algorithm_s883425449
	sim-bpred -bpred 2lev -bpred:2lev 1 1024 10 1 algorithm_s883425449
	sim-bpred -bpred 2lev -bpred:2lev 1 2048 10 1 algorithm_s883425449
	sim-bpred -bpred 2lev -bpred:2lev 1 4096 10 1 algorithm_s883425449
	sslittle-na-sstrix-gcc -Wall -O3 -funroll-loops -finline-functions  -DRANDOM_SIZE=262144 -DOFFSET=0 -DSORT=algorithm_s algorithm_s1650138280.c simpleMain.c -o algorithm_s883425449
	sim-cache -cache:dl1 dl1:256:32:1:l -cache:dl2 dl2:131072:32:1:l -cache:il1 il1:256:32:1:l -cache:il2 dl2 algorithm_s883425449
	sim-cache -cache:dl1 dl1:256:32:1:l -cache:dl2 dl2:65536:32:1:l -cache:il1 il1:256:32:1:l -cache:il2 dl2 algorithm_s883425449
	sim-cache -cache:dl1 dl1:1:32:256:l -cache:dl2 dl2:1:32:131072:l -cache:il1 il1:1:32:256:l -cache:il2 dl2 algorithm_s883425449
	sim-cache -cache:dl1 dl1:1:32:256:l -cache:dl2 dl2:1:32:65536:l -cache:il1 il1:1:32:256:l -cache:il2 dl2 algorithm_s883425449
	sim-bpred -bpred bimod -bpred:bimod 512 algorithm_s883425449
	sim-bpred -bpred bimod -bpred:bimod 1024 algorithm_s883425449
	sim-bpred -bpred bimod -bpred:bimod 2048 algorithm_s883425449
	sim-bpred -bpred 2lev -bpred:2lev 1 512 10 1 algorithm_s883425449
	sim-bpred -bpred 2lev -bpred:2lev 1 1024 10 1 algorithm_s883425449
	sim-bpred -bpred 2lev -bpred:2lev 1 2048 10 1 algorithm_s883425449
	sim-bpred -bpred 2lev -bpred:2lev 1 4096 10 1 algorithm_s883425449
	sslittle-na-sstrix-gcc -Wall -O3 -funroll-loops -finline-functions  -DRANDOM_SIZE=524288 -DOFFSET=0 -DSORT=algorithm_s algorithm_s1650138280.c simpleMain.c -o algorithm_s883425449
	sim-cache -cache:dl1 dl1:256:32:1:l -cache:dl2 dl2:131072:32:1:l -cache:il1 il1:256:32:1:l -cache:il2 dl2 algorithm_s883425449
	sim-cache -cache:dl1 dl1:256:32:1:l -cache:dl2 dl2:65536:32:1:l -cache:il1 il1:256:32:1:l -cache:il2 dl2 algorithm_s883425449
	sim-cache -cache:dl1 dl1:1:32:256:l -cache:dl2 dl2:1:32:131072:l -cache:il1 il1:1:32:256:l -cache:il2 dl2 algorithm_s883425449
	sim-cache -cache:dl1 dl1:1:32:256:l -cache:dl2 dl2:1:32:65536:l -cache:il1 il1:1:32:256:l -cache:il2 dl2 algorithm_s883425449
	sim-bpred -bpred bimod -bpred:bimod 512 algorithm_s883425449
	sim-bpred -bpred bimod -bpred:bimod 1024 algorithm_s883425449
	sim-bpred -bpred bimod -bpred:bimod 2048 algorithm_s883425449
	sim-bpred -bpred 2lev -bpred:2lev 1 512 10 1 algorithm_s883425449
	sim-bpred -bpred 2lev -bpred:2lev 1 1024 10 1 algorithm_s883425449
	sim-bpred -bpred 2lev -bpred:2lev 1 2048 10 1 algorithm_s883425449
	sim-bpred -bpred 2lev -bpred:2lev 1 4096 10 1 algorithm_s883425449
	sslittle-na-sstrix-gcc -Wall -O3 -funroll-loops -finline-functions  -DRANDOM_SIZE=1048576 -DOFFSET=0 -DSORT=algorithm_s algorithm_s1650138280.c simpleMain.c -o algorithm_s883425449
	sim-cache -cache:dl1 dl1:256:32:1:l -cache:dl2 dl2:131072:32:1:l -cache:il1 il1:256:32:1:l -cache:il2 dl2 algorithm_s883425449
	sim-cache -cache:dl1 dl1:256:32:1:l -cache:dl2 dl2:65536:32:1:l -cache:il1 il1:256:32:1:l -cache:il2 dl2 algorithm_s883425449
	sim-cache -cache:dl1 dl1:1:32:256:l -cache:dl2 dl2:1:32:131072:l -cache:il1 il1:1:32:256:l -cache:il2 dl2 algorithm_s883425449
	sim-cache -cache:dl1 dl1:1:32:256:l -cache:dl2 dl2:1:32:65536:l -cache:il1 il1:1:32:256:l -cache:il2 dl2 algorithm_s883425449
	sim-bpred -bpred bimod -bpred:bimod 512 algorithm_s883425449
	sim-bpred -bpred bimod -bpred:bimod 1024 algorithm_s883425449
	sim-bpred -bpred bimod -bpred:bimod 2048 algorithm_s883425449
	sim-bpred -bpred 2lev -bpred:2lev 1 512 10 1 algorithm_s883425449
	sim-bpred -bpred 2lev -bpred:2lev 1 1024 10 1 algorithm_s883425449
	sim-bpred -bpred 2lev -bpred:2lev 1 2048 10 1 algorithm_s883425449
	sim-bpred -bpred 2lev -bpred:2lev 1 4096 10 1 algorithm_s883425449
	sslittle-na-sstrix-gcc -Wall -O3 -funroll-loops -finline-functions  -DRANDOM_SIZE=2097152 -DOFFSET=0 -DSORT=algorithm_s algorithm_s1650138280.c simpleMain.c -o algorithm_s883425449
	sim-cache -cache:dl1 dl1:256:32:1:l -cache:dl2 dl2:131072:32:1:l -cache:il1 il1:256:32:1:l -cache:il2 dl2 algorithm_s883425449
	sim-cache -cache:dl1 dl1:256:32:1:l -cache:dl2 dl2:65536:32:1:l -cache:il1 il1:256:32:1:l -cache:il2 dl2 algorithm_s883425449
	sim-cache -cache:dl1 dl1:1:32:256:l -cache:dl2 dl2:1:32:131072:l -cache:il1 il1:1:32:256:l -cache:il2 dl2 algorithm_s883425449
	sim-cache -cache:dl1 dl1:1:32:256:l -cache:dl2 dl2:1:32:65536:l -cache:il1 il1:1:32:256:l -cache:il2 dl2 algorithm_s883425449
	sim-bpred -bpred bimod -bpred:bimod 512 algorithm_s883425449
	sim-bpred -bpred bimod -bpred:bimod 1024 algorithm_s883425449
	sim-bpred -bpred bimod -bpred:bimod 2048 algorithm_s883425449
	sim-bpred -bpred 2lev -bpred:2lev 1 512 10 1 algorithm_s883425449
	sim-bpred -bpred 2lev -bpred:2lev 1 1024 10 1 algorithm_s883425449
	sim-bpred -bpred 2lev -bpred:2lev 1 2048 10 1 algorithm_s883425449
	sim-bpred -bpred 2lev -bpred:2lev 1 4096 10 1 algorithm_s883425449
	sslittle-na-sstrix-gcc -Wall -O3 -funroll-loops -finline-functions  -DRANDOM_SIZE=4194304 -DOFFSET=0 -DSORT=algorithm_s algorithm_s1650138280.c simpleMain.c -o algorithm_s883425449
	sim-cache -cache:dl1 dl1:256:32:1:l -cache:dl2 dl2:131072:32:1:l -cache:il1 il1:256:32:1:l -cache:il2 dl2 algorithm_s883425449
	sim-cache -cache:dl1 dl1:256:32:1:l -cache:dl2 dl2:65536:32:1:l -cache:il1 il1:256:32:1:l -cache:il2 dl2 algorithm_s883425449
	sim-cache -cache:dl1 dl1:1:32:256:l -cache:dl2 dl2:1:32:131072:l -cache:il1 il1:1:32:256:l -cache:il2 dl2 algorithm_s883425449
	sim-cache -cache:dl1 dl1:1:32:256:l -cache:dl2 dl2:1:32:65536:l -cache:il1 il1:1:32:256:l -cache:il2 dl2 algorithm_s883425449
	sim-bpred -bpred bimod -bpred:bimod 512 algorithm_s883425449
	sim-bpred -bpred bimod -bpred:bimod 1024 algorithm_s883425449
	sim-bpred -bpred bimod -bpred:bimod 2048 algorithm_s883425449
	sim-bpred -bpred 2lev -bpred:2lev 1 512 10 1 algorithm_s883425449
	sim-bpred -bpred 2lev -bpred:2lev 1 1024 10 1 algorithm_s883425449
	sim-bpred -bpred 2lev -bpred:2lev 1 2048 10 1 algorithm_s883425449
	sim-bpred -bpred 2lev -bpred:2lev 1 4096 10 1 algorithm_s883425449
