Wed Aug  3 11:12:12 2005
Run as: "./do_simple -c random.org9 -o 9 algorithm_n"
-------------------------------------------------------------------------------------------------
sim-cache                                     4096 |         4096 |         4096 |         4096 |         8192 |         8192 |         8192 |         8192 |        16384 |        16384 |        16384 |        16384 |        32768 |        32768 |        32768 |        32768 |        65536 |        65536 |        65536 |        65536 |       131072 |       131072 |       131072 |       131072 |       262144 |       262144 |       262144 |       262144 |       524288 |       524288 |       524288 |       524288 |      1048576 |      1048576 |      1048576 |      1048576 |      2097152 |      2097152 |      2097152 |      2097152 |      4194304 |      4194304 |      4194304 |      4194304 |
-cache:dl1 dl1:256:32:1:l -cache:dl2 dl2:131072:32:1:l -cache:il1 il1:256:32:1:l -cache:il2 dl2
-cache:dl1 dl1:256:32:1:l -cache:dl2 dl2:65536:32:1:l -cache:il1 il1:256:32:1:l -cache:il2 dl2
-cache:dl1 dl1:1:32:256:l -cache:dl2 dl2:1:32:131072:l -cache:il1 il1:1:32:256:l -cache:il2 dl2
-cache:dl1 dl1:1:32:256:l -cache:dl2 dl2:1:32:65536:l -cache:il1 il1:1:32:256:l -cache:il2 dl2
-------------------------------------------------------------------------------------------------
sim_num_insn                                963428 |       963428 |       963428 |       963428 |      1916434 |      1916434 |      1916434 |      1916434 |      4186841 |      4186841 |      4186841 |      4186841 |      8923483 |      8923483 |      8923483 |      8923483 |     19282194 |     19282194 |     19282194 |     19282194 |     40788401 |     40788401 |     40788401 |     40788401 |     87332446 |     87332446 |     87332446 |     87332446 |    183566442 |    183566442 |    183566442 |    183566442 |    390210864 |    390210864 |    390210864 |    390210864 |    816060866 |    816060866 |    816060866 |    816060866 |   1724387467 |   1724387467 |   1724387467 |   1724387467 |
sim_num_refs                                246380 |       246380 |       246380 |       246380 |       489119 |       489119 |       489119 |       489119 |      1089245 |      1089245 |      1089245 |      1089245 |      2272770 |      2272770 |      2272770 |      2272770 |      5000542 |      5000542 |      5000542 |      5000542 |     10391104 |     10391104 |     10391104 |     10391104 |     22612314 |     22612314 |     22612314 |     22612314 |     46793274 |     46793274 |     46793274 |     46793274 |    100932152 |    100932152 |    100932152 |    100932152 |    208149162 |    208149162 |    208149162 |    208149162 |    445651555 |    445651555 |    445651555 |    445651555 |
sim_elapsed_time                                 1 |            1 |            9 |            5 |            1 |            1 |           14 |            8 |            1 |            1 |           25 |           14 |            2 |            2 |           48 |           24 |            6 |            5 |           88 |           44 |           11 |           11 |          163 |           76 |           24 |           23 |          281 |          110 |           49 |           49 |          392 |          139 |          105 |          104 |          458 |          202 |          218 |          218 |          585 |          330 |          462 |          461 |          866 |          609 |
sim_inst_rate                          963428.0000 |  963428.0000 |  107047.5556 |  192685.6000 | 1916434.0000 | 1916434.0000 |  136888.1429 |  239554.2500 | 4186841.0000 | 4186841.0000 |  167473.6400 |  299060.0714 | 4461741.5000 | 4461741.5000 |  185905.8958 |  371811.7917 | 3213699.0000 | 3856438.8000 |  219115.8409 |  438231.6818 | 3708036.4545 | 3708036.4545 |  250235.5890 |  536689.4868 | 3638851.9167 | 3797062.8696 |  310791.6228 |  793931.3273 | 3746253.9184 | 3746253.9184 |  468281.7398 | 1320621.8849 | 3716293.9429 | 3752027.5385 |  851988.7860 | 1931736.9505 | 3743398.4679 | 3743398.4679 | 1394975.8393 | 2472911.7152 | 3732440.4048 | 3740536.8048 | 1991209.5462 | 2831506.5140 |
il1.accesses                                963428 |       963428 |       963428 |       963428 |      1916434 |      1916434 |      1916434 |      1916434 |      4186841 |      4186841 |      4186841 |      4186841 |      8923483 |      8923483 |      8923483 |      8923483 |     19282194 |     19282194 |     19282194 |     19282194 |     40788401 |     40788401 |     40788401 |     40788401 |     87332446 |     87332446 |     87332446 |     87332446 |    183566442 |    183566442 |    183566442 |    183566442 |    390210864 |    390210864 |    390210864 |    390210864 |    816060866 |    816060866 |    816060866 |    816060866 |   1724387467 |   1724387467 |   1724387467 |   1724387467 |
il1.hits                                    963018 |       963018 |       963083 |       963083 |      1915990 |      1915990 |      1916099 |      1916099 |      4186384 |      4186384 |      4186481 |      4186481 |      8923036 |      8923036 |      8923146 |      8923146 |     19281724 |     19281724 |     19281834 |     19281834 |     40787955 |     40787955 |     40788064 |     40788064 |     87331977 |     87331977 |     87332086 |     87332086 |    183565996 |    183565996 |    183566105 |    183566105 |    390210387 |    390210387 |    390210464 |    390210464 |    816060396 |    816060396 |    816060470 |    816060470 |   1724386990 |   1724386990 |   1724387067 |   1724387067 |
il1.misses                                     410 |          410 |          345 |          345 |          444 |          444 |          335 |          335 |          457 |          457 |          360 |          360 |          447 |          447 |          337 |          337 |          470 |          470 |          360 |          360 |          446 |          446 |          337 |          337 |          469 |          469 |          360 |          360 |          446 |          446 |          337 |          337 |          477 |          477 |          400 |          400 |          470 |          470 |          396 |          396 |          477 |          477 |          400 |          400 |
il1.replacements                               222 |          222 |           89 |           89 |          262 |          262 |           79 |           79 |          256 |          256 |          104 |          104 |          265 |          265 |           81 |           81 |          269 |          269 |          104 |          104 |          264 |          264 |           81 |           81 |          268 |          268 |          104 |          104 |          264 |          264 |           81 |           81 |          256 |          256 |          144 |          144 |          249 |          249 |          140 |          140 |          256 |          256 |          144 |          144 |
il1.writebacks                                   0 |            0 |            0 |            0 |            0 |            0 |            0 |            0 |            0 |            0 |            0 |            0 |            0 |            0 |            0 |            0 |            0 |            0 |            0 |            0 |            0 |            0 |            0 |            0 |            0 |            0 |            0 |            0 |            0 |            0 |            0 |            0 |            0 |            0 |            0 |            0 |            0 |            0 |            0 |            0 |            0 |            0 |            0 |            0 |
il1.invalidations                                0 |            0 |            0 |            0 |            0 |            0 |            0 |            0 |            0 |            0 |            0 |            0 |            0 |            0 |            0 |            0 |            0 |            0 |            0 |            0 |            0 |            0 |            0 |            0 |            0 |            0 |            0 |            0 |            0 |            0 |            0 |            0 |            0 |            0 |            0 |            0 |            0 |            0 |            0 |            0 |            0 |            0 |            0 |            0 |
il1.miss_rate                               0.0004 |       0.0004 |       0.0004 |       0.0004 |       0.0002 |       0.0002 |       0.0002 |       0.0002 |       0.0001 |       0.0001 |       0.0001 |       0.0001 |       0.0001 |       0.0001 |       0.0000 |       0.0000 |       0.0000 |       0.0000 |       0.0000 |       0.0000 |       0.0000 |       0.0000 |       0.0000 |       0.0000 |       0.0000 |       0.0000 |       0.0000 |       0.0000 |       0.0000 |       0.0000 |       0.0000 |       0.0000 |       0.0000 |       0.0000 |       0.0000 |       0.0000 |       0.0000 |       0.0000 |       0.0000 |       0.0000 |       0.0000 |       0.0000 |       0.0000 |       0.0000 |
il1.repl_rate                               0.0002 |       0.0002 |       0.0001 |       0.0001 |       0.0001 |       0.0001 |       0.0000 |       0.0000 |       0.0001 |       0.0001 |       0.0000 |       0.0000 |       0.0000 |       0.0000 |       0.0000 |       0.0000 |       0.0000 |       0.0000 |       0.0000 |       0.0000 |       0.0000 |       0.0000 |       0.0000 |       0.0000 |       0.0000 |       0.0000 |       0.0000 |       0.0000 |       0.0000 |       0.0000 |       0.0000 |       0.0000 |       0.0000 |       0.0000 |       0.0000 |       0.0000 |       0.0000 |       0.0000 |       0.0000 |       0.0000 |       0.0000 |       0.0000 |       0.0000 |       0.0000 |
il1.wb_rate                                 0.0000 |       0.0000 |       0.0000 |       0.0000 |       0.0000 |       0.0000 |       0.0000 |       0.0000 |       0.0000 |       0.0000 |       0.0000 |       0.0000 |       0.0000 |       0.0000 |       0.0000 |       0.0000 |       0.0000 |       0.0000 |       0.0000 |       0.0000 |       0.0000 |       0.0000 |       0.0000 |       0.0000 |       0.0000 |       0.0000 |       0.0000 |       0.0000 |       0.0000 |       0.0000 |       0.0000 |       0.0000 |       0.0000 |       0.0000 |       0.0000 |       0.0000 |       0.0000 |       0.0000 |       0.0000 |       0.0000 |       0.0000 |       0.0000 |       0.0000 |       0.0000 |
il1.inv_rate                                0.0000 |       0.0000 |       0.0000 |       0.0000 |       0.0000 |       0.0000 |       0.0000 |       0.0000 |       0.0000 |       0.0000 |       0.0000 |       0.0000 |       0.0000 |       0.0000 |       0.0000 |       0.0000 |       0.0000 |       0.0000 |       0.0000 |       0.0000 |       0.0000 |       0.0000 |       0.0000 |       0.0000 |       0.0000 |       0.0000 |       0.0000 |       0.0000 |       0.0000 |       0.0000 |       0.0000 |       0.0000 |       0.0000 |       0.0000 |       0.0000 |       0.0000 |       0.0000 |       0.0000 |       0.0000 |       0.0000 |       0.0000 |       0.0000 |       0.0000 |       0.0000 |
dl1.accesses                                262846 |       262846 |       262846 |       262846 |       521969 |       521969 |       521969 |       521969 |      1154863 |      1154863 |      1154863 |      1154863 |      2403924 |      2403924 |      2403924 |      2403924 |      5262768 |      5262768 |      5262768 |      5262768 |     10915474 |     10915474 |     10915474 |     10915474 |     23660972 |     23660972 |     23660972 |     23660972 |     48890508 |     48890508 |     48890508 |     48890508 |    105126538 |    105126538 |    105126538 |    105126538 |    216537852 |    216537852 |    216537852 |    216537852 |    462428853 |    462428853 |    462428853 |    462428853 |
dl1.hits                                    248973 |       248973 |       249587 |       249587 |       494398 |       494398 |       495899 |       495899 |      1091274 |      1091274 |      1094983 |      1094983 |      2275704 |      2275704 |      2284632 |      2284632 |      4973585 |      4973585 |      4991869 |      4991869 |     10333665 |     10333665 |     10374123 |     10374123 |     22359588 |     22359588 |     22447678 |     22447678 |     46276657 |     46276657 |     46464362 |     46464362 |     99354382 |     99354382 |     99749285 |     99749285 |    204885537 |    204885537 |    205784179 |    205784179 |    437004834 |    437004834 |    438825215 |    438825215 |
dl1.misses                                   13873 |        13873 |        13259 |        13259 |        27571 |        27571 |        26070 |        26070 |        63589 |        63589 |        59880 |        59880 |       128220 |       128220 |       119292 |       119292 |       289183 |       289183 |       270899 |       270899 |       581809 |       581809 |       541351 |       541351 |      1301384 |      1301384 |      1213294 |      1213294 |      2613851 |      2613851 |      2426146 |      2426146 |      5772156 |      5772156 |      5377253 |      5377253 |     11652315 |     11652315 |     10753673 |     10753673 |     25424019 |     25424019 |     23603638 |     23603638 |
dl1.replacements                             13617 |        13617 |        13003 |        13003 |        27315 |        27315 |        25814 |        25814 |        63333 |        63333 |        59624 |        59624 |       127964 |       127964 |       119036 |       119036 |       288927 |       288927 |       270643 |       270643 |       581553 |       581553 |       541095 |       541095 |      1301128 |      1301128 |      1213038 |      1213038 |      2613595 |      2613595 |      2425890 |      2425890 |      5771900 |      5771900 |      5376997 |      5376997 |     11652059 |     11652059 |     10753417 |     10753417 |     25423763 |     25423763 |     23603382 |     23603382 |
dl1.writebacks                                7191 |         7191 |         6960 |         6960 |        14125 |        14125 |        13624 |        13624 |        32173 |        32173 |        31048 |        31048 |        64481 |        64481 |        61789 |        61789 |       145093 |       145093 |       139666 |       139666 |       291047 |       291047 |       279047 |       279047 |       649653 |       649653 |       623308 |       623308 |      1301872 |      1301872 |      1246337 |      1246337 |      2870780 |      2870780 |      2755263 |      2755263 |      5787431 |      5787431 |      5510245 |      5510245 |     12617672 |     12617672 |     12068751 |     12068751 |
dl1.invalidations                                0 |            0 |            0 |            0 |            0 |            0 |            0 |            0 |            0 |            0 |            0 |            0 |            0 |            0 |            0 |            0 |            0 |            0 |            0 |            0 |            0 |            0 |            0 |            0 |            0 |            0 |            0 |            0 |            0 |            0 |            0 |            0 |            0 |            0 |            0 |            0 |            0 |            0 |            0 |            0 |            0 |            0 |            0 |            0 |
dl1.miss_rate                               0.0528 |       0.0528 |       0.0504 |       0.0504 |       0.0528 |       0.0528 |       0.0499 |       0.0499 |       0.0551 |       0.0551 |       0.0519 |       0.0519 |       0.0533 |       0.0533 |       0.0496 |       0.0496 |       0.0549 |       0.0549 |       0.0515 |       0.0515 |       0.0533 |       0.0533 |       0.0496 |       0.0496 |       0.0550 |       0.0550 |       0.0513 |       0.0513 |       0.0535 |       0.0535 |       0.0496 |       0.0496 |       0.0549 |       0.0549 |       0.0512 |       0.0512 |       0.0538 |       0.0538 |       0.0497 |       0.0497 |       0.0550 |       0.0550 |       0.0510 |       0.0510 |
dl1.repl_rate                               0.0518 |       0.0518 |       0.0495 |       0.0495 |       0.0523 |       0.0523 |       0.0495 |       0.0495 |       0.0548 |       0.0548 |       0.0516 |       0.0516 |       0.0532 |       0.0532 |       0.0495 |       0.0495 |       0.0549 |       0.0549 |       0.0514 |       0.0514 |       0.0533 |       0.0533 |       0.0496 |       0.0496 |       0.0550 |       0.0550 |       0.0513 |       0.0513 |       0.0535 |       0.0535 |       0.0496 |       0.0496 |       0.0549 |       0.0549 |       0.0511 |       0.0511 |       0.0538 |       0.0538 |       0.0497 |       0.0497 |       0.0550 |       0.0550 |       0.0510 |       0.0510 |
dl1.wb_rate                                 0.0274 |       0.0274 |       0.0265 |       0.0265 |       0.0271 |       0.0271 |       0.0261 |       0.0261 |       0.0279 |       0.0279 |       0.0269 |       0.0269 |       0.0268 |       0.0268 |       0.0257 |       0.0257 |       0.0276 |       0.0276 |       0.0265 |       0.0265 |       0.0267 |       0.0267 |       0.0256 |       0.0256 |       0.0275 |       0.0275 |       0.0263 |       0.0263 |       0.0266 |       0.0266 |       0.0255 |       0.0255 |       0.0273 |       0.0273 |       0.0262 |       0.0262 |       0.0267 |       0.0267 |       0.0254 |       0.0254 |       0.0273 |       0.0273 |       0.0261 |       0.0261 |
dl1.inv_rate                                0.0000 |       0.0000 |       0.0000 |       0.0000 |       0.0000 |       0.0000 |       0.0000 |       0.0000 |       0.0000 |       0.0000 |       0.0000 |       0.0000 |       0.0000 |       0.0000 |       0.0000 |       0.0000 |       0.0000 |       0.0000 |       0.0000 |       0.0000 |       0.0000 |       0.0000 |       0.0000 |       0.0000 |       0.0000 |       0.0000 |       0.0000 |       0.0000 |       0.0000 |       0.0000 |       0.0000 |       0.0000 |       0.0000 |       0.0000 |       0.0000 |       0.0000 |       0.0000 |       0.0000 |       0.0000 |       0.0000 |       0.0000 |       0.0000 |       0.0000 |       0.0000 |
dl2.accesses                                 21474 |        21474 |        20564 |        20564 |        42140 |        42140 |        40029 |        40029 |        96219 |        96219 |        91288 |        91288 |       193148 |       193148 |       181418 |       181418 |       434746 |       434746 |       410925 |       410925 |       873302 |       873302 |       820735 |       820735 |      1951506 |      1951506 |      1836962 |      1836962 |      3916169 |      3916169 |      3672820 |      3672820 |      8643413 |      8643413 |      8132916 |      8132916 |     17440216 |     17440216 |     16264314 |     16264314 |     38042168 |     38042168 |     35672789 |     35672789 |
dl2.hits                                     19676 |        19676 |        18784 |        18784 |        39321 |        39321 |        37235 |        37235 |        91323 |        91323 |        86419 |        86419 |       184183 |       184183 |       172478 |       172478 |       417566 |       417566 |       393769 |       393769 |       839762 |       839762 |       787219 |       787219 |      1885173 |      1829808 |      1770654 |      1536185 |      3729506 |      1710408 |      3043559 |      1263912 |      3879954 |      3309026 |      2790626 |      2773407 |      6769263 |      6716664 |      5546274 |      5529873 |     14501990 |     14466290 |     12107776 |     12091380 |
dl2.misses                                    1798 |         1798 |         1780 |         1780 |         2819 |         2819 |         2794 |         2794 |         4896 |         4896 |         4869 |         4869 |         8965 |         8965 |         8940 |         8940 |        17180 |        17180 |        17156 |        17156 |        33540 |        33540 |        33516 |        33516 |        66333 |       121698 |        66308 |       300777 |       186663 |      2205761 |       629261 |      2408908 |      4763459 |      5334387 |      5342290 |      5359509 |     10670953 |     10723552 |     10718040 |     10734441 |     23540178 |     23575878 |     23565013 |     23581409 |
dl2.replacements                               186 |          186 |            0 |            0 |          204 |          204 |            0 |            0 |          239 |          239 |            0 |            0 |          224 |          224 |            0 |            0 |          232 |          232 |            0 |            0 |          223 |          223 |            0 |            0 |          233 |        57269 |            0 |       235241 |        56713 |      2140225 |       498189 |      2343372 |      4632387 |      5268851 |      5211218 |      5293973 |     10539881 |     10658016 |     10586968 |     10668905 |     23409106 |     23510342 |     23433941 |     23515873 |
dl2.writebacks                                 113 |          113 |            0 |            0 |          128 |          128 |            0 |            0 |          160 |          160 |            0 |            0 |          147 |          147 |            0 |            0 |          156 |          156 |            0 |            0 |          147 |          147 |            0 |            0 |          156 |        31879 |            0 |       234265 |        31332 |      1223429 |       496756 |      1212863 |      2625164 |      2690852 |      2688190 |      2720960 |      5423094 |      5467324 |      5441469 |      5474244 |     11936213 |     12002540 |     11996617 |     12029398 |
dl2.invalidations                                0 |            0 |            0 |            0 |            0 |            0 |            0 |            0 |            0 |            0 |            0 |            0 |            0 |            0 |            0 |            0 |            0 |            0 |            0 |            0 |            0 |            0 |            0 |            0 |            0 |            0 |            0 |            0 |            0 |            0 |            0 |            0 |            0 |            0 |            0 |            0 |            0 |            0 |            0 |            0 |            0 |            0 |            0 |            0 |
dl2.miss_rate                               0.0837 |       0.0837 |       0.0866 |       0.0866 |       0.0669 |       0.0669 |       0.0698 |       0.0698 |       0.0509 |       0.0509 |       0.0533 |       0.0533 |       0.0464 |       0.0464 |       0.0493 |       0.0493 |       0.0395 |       0.0395 |       0.0417 |       0.0417 |       0.0384 |       0.0384 |       0.0408 |       0.0408 |       0.0340 |       0.0624 |       0.0361 |       0.1637 |       0.0477 |       0.5632 |       0.1713 |       0.6559 |       0.5511 |       0.6172 |       0.6569 |       0.6590 |       0.6119 |       0.6149 |       0.6590 |       0.6600 |       0.6188 |       0.6197 |       0.6606 |       0.6610 |
dl2.repl_rate                               0.0087 |       0.0087 |       0.0000 |       0.0000 |       0.0048 |       0.0048 |       0.0000 |       0.0000 |       0.0025 |       0.0025 |       0.0000 |       0.0000 |       0.0012 |       0.0012 |       0.0000 |       0.0000 |       0.0005 |       0.0005 |       0.0000 |       0.0000 |       0.0003 |       0.0003 |       0.0000 |       0.0000 |       0.0001 |       0.0293 |       0.0000 |       0.1281 |       0.0145 |       0.5465 |       0.1356 |       0.6380 |       0.5359 |       0.6096 |       0.6408 |       0.6509 |       0.6043 |       0.6111 |       0.6509 |       0.6560 |       0.6153 |       0.6180 |       0.6569 |       0.6592 |
dl2.wb_rate                                 0.0053 |       0.0053 |       0.0000 |       0.0000 |       0.0030 |       0.0030 |       0.0000 |       0.0000 |       0.0017 |       0.0017 |       0.0000 |       0.0000 |       0.0008 |       0.0008 |       0.0000 |       0.0000 |       0.0004 |       0.0004 |       0.0000 |       0.0000 |       0.0002 |       0.0002 |       0.0000 |       0.0000 |       0.0001 |       0.0163 |       0.0000 |       0.1275 |       0.0080 |       0.3124 |       0.1353 |       0.3302 |       0.3037 |       0.3113 |       0.3305 |       0.3346 |       0.3110 |       0.3135 |       0.3346 |       0.3366 |       0.3138 |       0.3155 |       0.3363 |       0.3372 |
dl2.inv_rate                                0.0000 |       0.0000 |       0.0000 |       0.0000 |       0.0000 |       0.0000 |       0.0000 |       0.0000 |       0.0000 |       0.0000 |       0.0000 |       0.0000 |       0.0000 |       0.0000 |       0.0000 |       0.0000 |       0.0000 |       0.0000 |       0.0000 |       0.0000 |       0.0000 |       0.0000 |       0.0000 |       0.0000 |       0.0000 |       0.0000 |       0.0000 |       0.0000 |       0.0000 |       0.0000 |       0.0000 |       0.0000 |       0.0000 |       0.0000 |       0.0000 |       0.0000 |       0.0000 |       0.0000 |       0.0000 |       0.0000 |       0.0000 |       0.0000 |       0.0000 |       0.0000 |
itlb.accesses                               963428 |       963428 |       963428 |       963428 |      1916434 |      1916434 |      1916434 |      1916434 |      4186841 |      4186841 |      4186841 |      4186841 |      8923483 |      8923483 |      8923483 |      8923483 |     19282194 |     19282194 |     19282194 |     19282194 |     40788401 |     40788401 |     40788401 |     40788401 |     87332446 |     87332446 |     87332446 |     87332446 |    183566442 |    183566442 |    183566442 |    183566442 |    390210864 |    390210864 |    390210864 |    390210864 |    816060866 |    816060866 |    816060866 |    816060866 |   1724387467 |   1724387467 |   1724387467 |   1724387467 |
itlb.hits                                   963419 |       963419 |       963419 |       963419 |      1916425 |      1916425 |      1916425 |      1916425 |      4186832 |      4186832 |      4186832 |      4186832 |      8923474 |      8923474 |      8923474 |      8923474 |     19282185 |     19282185 |     19282185 |     19282185 |     40788392 |     40788392 |     40788392 |     40788392 |     87332437 |     87332437 |     87332437 |     87332437 |    183566433 |    183566433 |    183566433 |    183566433 |    390210855 |    390210855 |    390210855 |    390210855 |    816060857 |    816060857 |    816060857 |    816060857 |   1724387458 |   1724387458 |   1724387458 |   1724387458 |
itlb.misses                                      9 |            9 |            9 |            9 |            9 |            9 |            9 |            9 |            9 |            9 |            9 |            9 |            9 |            9 |            9 |            9 |            9 |            9 |            9 |            9 |            9 |            9 |            9 |            9 |            9 |            9 |            9 |            9 |            9 |            9 |            9 |            9 |            9 |            9 |            9 |            9 |            9 |            9 |            9 |            9 |            9 |            9 |            9 |            9 |
itlb.replacements                                0 |            0 |            0 |            0 |            0 |            0 |            0 |            0 |            0 |            0 |            0 |            0 |            0 |            0 |            0 |            0 |            0 |            0 |            0 |            0 |            0 |            0 |            0 |            0 |            0 |            0 |            0 |            0 |            0 |            0 |            0 |            0 |            0 |            0 |            0 |            0 |            0 |            0 |            0 |            0 |            0 |            0 |            0 |            0 |
itlb.writebacks                                  0 |            0 |            0 |            0 |            0 |            0 |            0 |            0 |            0 |            0 |            0 |            0 |            0 |            0 |            0 |            0 |            0 |            0 |            0 |            0 |            0 |            0 |            0 |            0 |            0 |            0 |            0 |            0 |            0 |            0 |            0 |            0 |            0 |            0 |            0 |            0 |            0 |            0 |            0 |            0 |            0 |            0 |            0 |            0 |
itlb.invalidations                               0 |            0 |            0 |            0 |            0 |            0 |            0 |            0 |            0 |            0 |            0 |            0 |            0 |            0 |            0 |            0 |            0 |            0 |            0 |            0 |            0 |            0 |            0 |            0 |            0 |            0 |            0 |            0 |            0 |            0 |            0 |            0 |            0 |            0 |            0 |            0 |            0 |            0 |            0 |            0 |            0 |            0 |            0 |            0 |
itlb.miss_rate                              0.0000 |       0.0000 |       0.0000 |       0.0000 |       0.0000 |       0.0000 |       0.0000 |       0.0000 |       0.0000 |       0.0000 |       0.0000 |       0.0000 |       0.0000 |       0.0000 |       0.0000 |       0.0000 |       0.0000 |       0.0000 |       0.0000 |       0.0000 |       0.0000 |       0.0000 |       0.0000 |       0.0000 |       0.0000 |       0.0000 |       0.0000 |       0.0000 |       0.0000 |       0.0000 |       0.0000 |       0.0000 |       0.0000 |       0.0000 |       0.0000 |       0.0000 |       0.0000 |       0.0000 |       0.0000 |       0.0000 |       0.0000 |       0.0000 |       0.0000 |       0.0000 |
itlb.repl_rate                              0.0000 |       0.0000 |       0.0000 |       0.0000 |       0.0000 |       0.0000 |       0.0000 |       0.0000 |       0.0000 |       0.0000 |       0.0000 |       0.0000 |       0.0000 |       0.0000 |       0.0000 |       0.0000 |       0.0000 |       0.0000 |       0.0000 |       0.0000 |       0.0000 |       0.0000 |       0.0000 |       0.0000 |       0.0000 |       0.0000 |       0.0000 |       0.0000 |       0.0000 |       0.0000 |       0.0000 |       0.0000 |       0.0000 |       0.0000 |       0.0000 |       0.0000 |       0.0000 |       0.0000 |       0.0000 |       0.0000 |       0.0000 |       0.0000 |       0.0000 |       0.0000 |
itlb.wb_rate                                0.0000 |       0.0000 |       0.0000 |       0.0000 |       0.0000 |       0.0000 |       0.0000 |       0.0000 |       0.0000 |       0.0000 |       0.0000 |       0.0000 |       0.0000 |       0.0000 |       0.0000 |       0.0000 |       0.0000 |       0.0000 |       0.0000 |       0.0000 |       0.0000 |       0.0000 |       0.0000 |       0.0000 |       0.0000 |       0.0000 |       0.0000 |       0.0000 |       0.0000 |       0.0000 |       0.0000 |       0.0000 |       0.0000 |       0.0000 |       0.0000 |       0.0000 |       0.0000 |       0.0000 |       0.0000 |       0.0000 |       0.0000 |       0.0000 |       0.0000 |       0.0000 |
itlb.inv_rate                               0.0000 |       0.0000 |       0.0000 |       0.0000 |       0.0000 |       0.0000 |       0.0000 |       0.0000 |       0.0000 |       0.0000 |       0.0000 |       0.0000 |       0.0000 |       0.0000 |       0.0000 |       0.0000 |       0.0000 |       0.0000 |       0.0000 |       0.0000 |       0.0000 |       0.0000 |       0.0000 |       0.0000 |       0.0000 |       0.0000 |       0.0000 |       0.0000 |       0.0000 |       0.0000 |       0.0000 |       0.0000 |       0.0000 |       0.0000 |       0.0000 |       0.0000 |       0.0000 |       0.0000 |       0.0000 |       0.0000 |       0.0000 |       0.0000 |       0.0000 |       0.0000 |
dtlb.accesses                               262846 |       262846 |       262846 |       262846 |       521969 |       521969 |       521969 |       521969 |      1154863 |      1154863 |      1154863 |      1154863 |      2403924 |      2403924 |      2403924 |      2403924 |      5262768 |      5262768 |      5262768 |      5262768 |     10915474 |     10915474 |     10915474 |     10915474 |     23660972 |     23660972 |     23660972 |     23660972 |     48890508 |     48890508 |     48890508 |     48890508 |    105126538 |    105126538 |    105126538 |    105126538 |    216537852 |    216537852 |    216537852 |    216537852 |    462428853 |    462428853 |    462428853 |    462428853 |
dtlb.hits                                   262831 |       262831 |       262831 |       262831 |       521946 |       521946 |       521946 |       521946 |      1154824 |      1154824 |      1154824 |      1154824 |      2403853 |      2403853 |      2403853 |      2403853 |      5262555 |      5262555 |      5262555 |      5262555 |     10911290 |     10911290 |     10911290 |     10911290 |     23651497 |     23651497 |     23651497 |     23651497 |     48871554 |     48871554 |     48871554 |     48871554 |    105084520 |    105084520 |    105084520 |    105084520 |    216453814 |    216453814 |    216453814 |    216453814 |    462244380 |    462244380 |    462244380 |    462244380 |
dtlb.misses                                     15 |           15 |           15 |           15 |           23 |           23 |           23 |           23 |           39 |           39 |           39 |           39 |           71 |           71 |           71 |           71 |          213 |          213 |          213 |          213 |         4184 |         4184 |         4184 |         4184 |         9475 |         9475 |         9475 |         9475 |        18954 |        18954 |        18954 |        18954 |        42018 |        42018 |        42018 |        42018 |        84038 |        84038 |        84038 |        84038 |       184473 |       184473 |       184473 |       184473 |
dtlb.replacements                                0 |            0 |            0 |            0 |            0 |            0 |            0 |            0 |            0 |            0 |            0 |            0 |            0 |            0 |            0 |            0 |           85 |           85 |           85 |           85 |         4056 |         4056 |         4056 |         4056 |         9347 |         9347 |         9347 |         9347 |        18826 |        18826 |        18826 |        18826 |        41890 |        41890 |        41890 |        41890 |        83910 |        83910 |        83910 |        83910 |       184345 |       184345 |       184345 |       184345 |
dtlb.writebacks                                  0 |            0 |            0 |            0 |            0 |            0 |            0 |            0 |            0 |            0 |            0 |            0 |            0 |            0 |            0 |            0 |           51 |           51 |           51 |           51 |         2129 |         2129 |         2129 |         2129 |         4823 |         4823 |         4823 |         4823 |         9695 |         9695 |         9695 |         9695 |        21491 |        21491 |        21491 |        21491 |        43033 |        43033 |        43033 |        43033 |        94308 |        94308 |        94308 |        94308 |
dtlb.invalidations                               0 |            0 |            0 |            0 |            0 |            0 |            0 |            0 |            0 |            0 |            0 |            0 |            0 |            0 |            0 |            0 |            0 |            0 |            0 |            0 |            0 |            0 |            0 |            0 |            0 |            0 |            0 |            0 |            0 |            0 |            0 |            0 |            0 |            0 |            0 |            0 |            0 |            0 |            0 |            0 |            0 |            0 |            0 |            0 |
dtlb.miss_rate                              0.0001 |       0.0001 |       0.0001 |       0.0001 |       0.0000 |       0.0000 |       0.0000 |       0.0000 |       0.0000 |       0.0000 |       0.0000 |       0.0000 |       0.0000 |       0.0000 |       0.0000 |       0.0000 |       0.0000 |       0.0000 |       0.0000 |       0.0000 |       0.0004 |       0.0004 |       0.0004 |       0.0004 |       0.0004 |       0.0004 |       0.0004 |       0.0004 |       0.0004 |       0.0004 |       0.0004 |       0.0004 |       0.0004 |       0.0004 |       0.0004 |       0.0004 |       0.0004 |       0.0004 |       0.0004 |       0.0004 |       0.0004 |       0.0004 |       0.0004 |       0.0004 |
dtlb.repl_rate                              0.0000 |       0.0000 |       0.0000 |       0.0000 |       0.0000 |       0.0000 |       0.0000 |       0.0000 |       0.0000 |       0.0000 |       0.0000 |       0.0000 |       0.0000 |       0.0000 |       0.0000 |       0.0000 |       0.0000 |       0.0000 |       0.0000 |       0.0000 |       0.0004 |       0.0004 |       0.0004 |       0.0004 |       0.0004 |       0.0004 |       0.0004 |       0.0004 |       0.0004 |       0.0004 |       0.0004 |       0.0004 |       0.0004 |       0.0004 |       0.0004 |       0.0004 |       0.0004 |       0.0004 |       0.0004 |       0.0004 |       0.0004 |       0.0004 |       0.0004 |       0.0004 |
dtlb.wb_rate                                0.0000 |       0.0000 |       0.0000 |       0.0000 |       0.0000 |       0.0000 |       0.0000 |       0.0000 |       0.0000 |       0.0000 |       0.0000 |       0.0000 |       0.0000 |       0.0000 |       0.0000 |       0.0000 |       0.0000 |       0.0000 |       0.0000 |       0.0000 |       0.0002 |       0.0002 |       0.0002 |       0.0002 |       0.0002 |       0.0002 |       0.0002 |       0.0002 |       0.0002 |       0.0002 |       0.0002 |       0.0002 |       0.0002 |       0.0002 |       0.0002 |       0.0002 |       0.0002 |       0.0002 |       0.0002 |       0.0002 |       0.0002 |       0.0002 |       0.0002 |       0.0002 |
dtlb.inv_rate                               0.0000 |       0.0000 |       0.0000 |       0.0000 |       0.0000 |       0.0000 |       0.0000 |       0.0000 |       0.0000 |       0.0000 |       0.0000 |       0.0000 |       0.0000 |       0.0000 |       0.0000 |       0.0000 |       0.0000 |       0.0000 |       0.0000 |       0.0000 |       0.0000 |       0.0000 |       0.0000 |       0.0000 |       0.0000 |       0.0000 |       0.0000 |       0.0000 |       0.0000 |       0.0000 |       0.0000 |       0.0000 |       0.0000 |       0.0000 |       0.0000 |       0.0000 |       0.0000 |       0.0000 |       0.0000 |       0.0000 |       0.0000 |       0.0000 |       0.0000 |       0.0000 |
ld_text_base                            0x00400000 |   0x00400000 |   0x00400000 |   0x00400000 |   0x00400000 |   0x00400000 |   0x00400000 |   0x00400000 |   0x00400000 |   0x00400000 |   0x00400000 |   0x00400000 |   0x00400000 |   0x00400000 |   0x00400000 |   0x00400000 |   0x00400000 |   0x00400000 |   0x00400000 |   0x00400000 |   0x00400000 |   0x00400000 |   0x00400000 |   0x00400000 |   0x00400000 |   0x00400000 |   0x00400000 |   0x00400000 |   0x00400000 |   0x00400000 |   0x00400000 |   0x00400000 |   0x00400000 |   0x00400000 |   0x00400000 |   0x00400000 |   0x00400000 |   0x00400000 |   0x00400000 |   0x00400000 |   0x00400000 |   0x00400000 |   0x00400000 |   0x00400000 |
ld_text_size                                 71552 |        71552 |        71552 |        71552 |        71584 |        71584 |        71584 |        71584 |        71600 |        71600 |        71600 |        71600 |        71616 |        71616 |        71616 |        71616 |        71616 |        71616 |        71616 |        71616 |        71616 |        71616 |        71616 |        71616 |        71616 |        71616 |        71616 |        71616 |        71616 |        71616 |        71616 |        71616 |        71616 |        71616 |        71616 |        71616 |        71616 |        71616 |        71616 |        71616 |        71616 |        71616 |        71616 |        71616 |
ld_data_base                            0x10000000 |   0x10000000 |   0x10000000 |   0x10000000 |   0x10000000 |   0x10000000 |   0x10000000 |   0x10000000 |   0x10000000 |   0x10000000 |   0x10000000 |   0x10000000 |   0x10000000 |   0x10000000 |   0x10000000 |   0x10000000 |   0x10000000 |   0x10000000 |   0x10000000 |   0x10000000 |   0x10000000 |   0x10000000 |   0x10000000 |   0x10000000 |   0x10000000 |   0x10000000 |   0x10000000 |   0x10000000 |   0x10000000 |   0x10000000 |   0x10000000 |   0x10000000 |   0x10000000 |   0x10000000 |   0x10000000 |   0x10000000 |   0x10000000 |   0x10000000 |   0x10000000 |   0x10000000 |   0x10000000 |   0x10000000 |   0x10000000 |   0x10000000 |
ld_data_size                                  8192 |         8192 |         8192 |         8192 |         8192 |         8192 |         8192 |         8192 |         8192 |         8192 |         8192 |         8192 |         8192 |         8192 |         8192 |         8192 |         8192 |         8192 |         8192 |         8192 |         8192 |         8192 |         8192 |         8192 |         8192 |         8192 |         8192 |         8192 |         8192 |         8192 |         8192 |         8192 |         8192 |         8192 |         8192 |         8192 |         8192 |         8192 |         8192 |         8192 |         8192 |         8192 |         8192 |         8192 |
ld_stack_base                           0x7fffc000 |   0x7fffc000 |   0x7fffc000 |   0x7fffc000 |   0x7fffc000 |   0x7fffc000 |   0x7fffc000 |   0x7fffc000 |   0x7fffc000 |   0x7fffc000 |   0x7fffc000 |   0x7fffc000 |   0x7fffc000 |   0x7fffc000 |   0x7fffc000 |   0x7fffc000 |   0x7fffc000 |   0x7fffc000 |   0x7fffc000 |   0x7fffc000 |   0x7fffc000 |   0x7fffc000 |   0x7fffc000 |   0x7fffc000 |   0x7fffc000 |   0x7fffc000 |   0x7fffc000 |   0x7fffc000 |   0x7fffc000 |   0x7fffc000 |   0x7fffc000 |   0x7fffc000 |   0x7fffc000 |   0x7fffc000 |   0x7fffc000 |   0x7fffc000 |   0x7fffc000 |   0x7fffc000 |   0x7fffc000 |   0x7fffc000 |   0x7fffc000 |   0x7fffc000 |   0x7fffc000 |   0x7fffc000 |
ld_stack_size                                16384 |        16384 |        16384 |        16384 |        16384 |        16384 |        16384 |        16384 |        16384 |        16384 |        16384 |        16384 |        16384 |        16384 |        16384 |        16384 |        16384 |        16384 |        16384 |        16384 |        16384 |        16384 |        16384 |        16384 |        16384 |        16384 |        16384 |        16384 |        16384 |        16384 |        16384 |        16384 |        16384 |        16384 |        16384 |        16384 |        16384 |        16384 |        16384 |        16384 |        16384 |        16384 |        16384 |        16384 |
ld_prog_entry                           0x00400140 |   0x00400140 |   0x00400140 |   0x00400140 |   0x00400140 |   0x00400140 |   0x00400140 |   0x00400140 |   0x00400140 |   0x00400140 |   0x00400140 |   0x00400140 |   0x00400140 |   0x00400140 |   0x00400140 |   0x00400140 |   0x00400140 |   0x00400140 |   0x00400140 |   0x00400140 |   0x00400140 |   0x00400140 |   0x00400140 |   0x00400140 |   0x00400140 |   0x00400140 |   0x00400140 |   0x00400140 |   0x00400140 |   0x00400140 |   0x00400140 |   0x00400140 |   0x00400140 |   0x00400140 |   0x00400140 |   0x00400140 |   0x00400140 |   0x00400140 |   0x00400140 |   0x00400140 |   0x00400140 |   0x00400140 |   0x00400140 |   0x00400140 |
ld_environ_base                         0x7fff8000 |   0x7fff8000 |   0x7fff8000 |   0x7fff8000 |   0x7fff8000 |   0x7fff8000 |   0x7fff8000 |   0x7fff8000 |   0x7fff8000 |   0x7fff8000 |   0x7fff8000 |   0x7fff8000 |   0x7fff8000 |   0x7fff8000 |   0x7fff8000 |   0x7fff8000 |   0x7fff8000 |   0x7fff8000 |   0x7fff8000 |   0x7fff8000 |   0x7fff8000 |   0x7fff8000 |   0x7fff8000 |   0x7fff8000 |   0x7fff8000 |   0x7fff8000 |   0x7fff8000 |   0x7fff8000 |   0x7fff8000 |   0x7fff8000 |   0x7fff8000 |   0x7fff8000 |   0x7fff8000 |   0x7fff8000 |   0x7fff8000 |   0x7fff8000 |   0x7fff8000 |   0x7fff8000 |   0x7fff8000 |   0x7fff8000 |   0x7fff8000 |   0x7fff8000 |   0x7fff8000 |   0x7fff8000 |
ld_target_big_endian                             0 |            0 |            0 |            0 |            0 |            0 |            0 |            0 |            0 |            0 |            0 |            0 |            0 |            0 |            0 |            0 |            0 |            0 |            0 |            0 |            0 |            0 |            0 |            0 |            0 |            0 |            0 |            0 |            0 |            0 |            0 |            0 |            0 |            0 |            0 |            0 |            0 |            0 |            0 |            0 |            0 |            0 |            0 |            0 |
mem.page_count                                  33 |           33 |           33 |           33 |           41 |           41 |           41 |           41 |           57 |           57 |           57 |           57 |           89 |           89 |           89 |           89 |          153 |          153 |          153 |          153 |          281 |          281 |          281 |          281 |          537 |          537 |          537 |          537 |         1049 |         1049 |         1049 |         1049 |         2079 |         2079 |         2079 |         2079 |         4133 |         4133 |         4133 |         4133 |         8241 |         8241 |         8241 |         8241 |
mem.page_mem                                  132k |         132k |         132k |         132k |         164k |         164k |         164k |         164k |         228k |         228k |         228k |         228k |         356k |         356k |         356k |         356k |         612k |         612k |         612k |         612k |        1124k |        1124k |        1124k |        1124k |        2148k |        2148k |        2148k |        2148k |        4196k |        4196k |        4196k |        4196k |        8316k |        8316k |        8316k |        8316k |       16532k |       16532k |       16532k |       16532k |       32964k |       32964k |       32964k |       32964k |
mem.ptab_misses                                 33 |           33 |           33 |           33 |           41 |           41 |           41 |           41 |           57 |           57 |           57 |           57 |           89 |           89 |           89 |           89 |          153 |          153 |          153 |          153 |          281 |          281 |          281 |          281 |          537 |          537 |          537 |          537 |         1049 |         1049 |         1049 |         1049 |        98662 |        98662 |        98662 |        98662 |       104907 |       104907 |       104907 |       104907 |       114552 |       114552 |       114552 |       114552 |
mem.ptab_accesses                          4823288 |      4823288 |      4823288 |      4823288 |      9153750 |      9153750 |      9153750 |      9153750 |     19501262 |     19501262 |     19501262 |     19501262 |     40946048 |     40946048 |     40946048 |     40946048 |     88098580 |     88098580 |     88098580 |     88098580 |    185428820 |    185428820 |    185428820 |    185428820 |    397095996 |    397095996 |    397095996 |    397095996 |    832491052 |    832491052 |    832491052 |    832491052 |   1771540800 |   1771540800 |   1771540800 |   1771540800 |   3697763436 |   3697763436 |   3697763436 |   3697763436 |   7822851842 |   7822851842 |   7822851842 |   7822851842 |
mem.ptab_miss_rate                          0.0000 |       0.0000 |       0.0000 |       0.0000 |       0.0000 |       0.0000 |       0.0000 |       0.0000 |       0.0000 |       0.0000 |       0.0000 |       0.0000 |       0.0000 |       0.0000 |       0.0000 |       0.0000 |       0.0000 |       0.0000 |       0.0000 |       0.0000 |       0.0000 |       0.0000 |       0.0000 |       0.0000 |       0.0000 |       0.0000 |       0.0000 |       0.0000 |       0.0000 |       0.0000 |       0.0000 |       0.0000 |       0.0001 |       0.0001 |       0.0001 |       0.0001 |       0.0000 |       0.0000 |       0.0000 |       0.0000 |       0.0000 |       0.0000 |       0.0000 |       0.0000 |
-------------------------------------------------------------------------------------------------
sim-bpred                                     4096 |         4096 |         4096 |         4096 |         4096 |         4096 |         4096 |         8192 |         8192 |         8192 |         8192 |         8192 |         8192 |         8192 |        16384 |        16384 |        16384 |        16384 |        16384 |        16384 |        16384 |        32768 |        32768 |        32768 |        32768 |        32768 |        32768 |        32768 |        65536 |        65536 |        65536 |        65536 |        65536 |        65536 |        65536 |       131072 |       131072 |       131072 |       131072 |       131072 |       131072 |       131072 |       262144 |       262144 |       262144 |       262144 |       262144 |       262144 |       262144 |       524288 |       524288 |       524288 |       524288 |       524288 |       524288 |       524288 |      1048576 |      1048576 |      1048576 |      1048576 |      1048576 |      1048576 |      1048576 |      2097152 |      2097152 |      2097152 |      2097152 |      2097152 |      2097152 |      2097152 |      4194304 |      4194304 |      4194304 |      4194304 |      4194304 |      4194304 |      4194304 |
-bpred bimod -bpred:bimod 512
-bpred bimod -bpred:bimod 1024
-bpred bimod -bpred:bimod 2048
-bpred 2lev -bpred:2lev 1 512 10 1
-bpred 2lev -bpred:2lev 1 1024 10 1
-bpred 2lev -bpred:2lev 1 2048 10 1
-bpred 2lev -bpred:2lev 1 4096 10 1
-------------------------------------------------------------------------------------------------
sim_num_insn                                963428 |       963428 |       963428 |       963428 |       963428 |       963428 |       963428 |      1916434 |      1916434 |      1916434 |      1916434 |      1916434 |      1916434 |      1916434 |      4186841 |      4186841 |      4186841 |      4186841 |      4186841 |      4186841 |      4186841 |      8923483 |      8923483 |      8923483 |      8923483 |      8923483 |      8923483 |      8923483 |     19282194 |     19282194 |     19282194 |     19282194 |     19282194 |     19282194 |     19282194 |     40788401 |     40788401 |     40788401 |     40788401 |     40788401 |     40788401 |     40788401 |     87332446 |     87332446 |     87332446 |     87332446 |     87332446 |     87332446 |     87332446 |    183566442 |    183566442 |    183566442 |    183566442 |    183566442 |    183566442 |    183566442 |    390210864 |    390210864 |    390210864 |    390210864 |    390210864 |    390210864 |    390210864 |    816060866 |    816060866 |    816060866 |    816060866 |    816060866 |    816060866 |    816060866 |   1724387467 |   1724387467 |   1724387467 |   1724387467 |   1724387467 |   1724387467 |   1724387467 |
sim_num_refs                                246380 |       246380 |       246380 |       246380 |       246380 |       246380 |       246380 |       489119 |       489119 |       489119 |       489119 |       489119 |       489119 |       489119 |      1089245 |      1089245 |      1089245 |      1089245 |      1089245 |      1089245 |      1089245 |      2272770 |      2272770 |      2272770 |      2272770 |      2272770 |      2272770 |      2272770 |      5000542 |      5000542 |      5000542 |      5000542 |      5000542 |      5000542 |      5000542 |     10391104 |     10391104 |     10391104 |     10391104 |     10391104 |     10391104 |     10391104 |     22612314 |     22612314 |     22612314 |     22612314 |     22612314 |     22612314 |     22612314 |     46793274 |     46793274 |     46793274 |     46793274 |     46793274 |     46793274 |     46793274 |    100932152 |    100932152 |    100932152 |    100932152 |    100932152 |    100932152 |    100932152 |    208149162 |    208149162 |    208149162 |    208149162 |    208149162 |    208149162 |    208149162 |    445651555 |    445651555 |    445651555 |    445651555 |    445651555 |    445651555 |    445651555 |
sim_elapsed_time                                 1 |            1 |            1 |            1 |            1 |            1 |            1 |            1 |            1 |            1 |            1 |            1 |            1 |            1 |            1 |            1 |            1 |            1 |            1 |            1 |            1 |            1 |            1 |            1 |            1 |            1 |            1 |            1 |            3 |            2 |            2 |            2 |            2 |            2 |            2 |            5 |            5 |            4 |            5 |            5 |            4 |            4 |           10 |           10 |           10 |           10 |           10 |           10 |           10 |           21 |           21 |           21 |           21 |           21 |           22 |           21 |           45 |           44 |           43 |           46 |           45 |           44 |           45 |           94 |           92 |           91 |           96 |           93 |           93 |           93 |          196 |          191 |          190 |          200 |          194 |          194 |          196 |
sim_inst_rate                          963428.0000 |  963428.0000 |  963428.0000 |  963428.0000 |  963428.0000 |  963428.0000 |  963428.0000 | 1916434.0000 | 1916434.0000 | 1916434.0000 | 1916434.0000 | 1916434.0000 | 1916434.0000 | 1916434.0000 | 4186841.0000 | 4186841.0000 | 4186841.0000 | 4186841.0000 | 4186841.0000 | 4186841.0000 | 4186841.0000 | 8923483.0000 | 8923483.0000 | 8923483.0000 | 8923483.0000 | 8923483.0000 | 8923483.0000 | 8923483.0000 | 6427398.0000 | 9641097.0000 | 9641097.0000 | 9641097.0000 | 9641097.0000 | 9641097.0000 | 9641097.0000 | 8157680.2000 | 8157680.2000 |10197100.2500 | 8157680.2000 | 8157680.2000 |10197100.2500 |10197100.2500 | 8733244.6000 | 8733244.6000 | 8733244.6000 | 8733244.6000 | 8733244.6000 | 8733244.6000 | 8733244.6000 | 8741259.1429 | 8741259.1429 | 8741259.1429 | 8741259.1429 | 8741259.1429 | 8343929.1818 | 8741259.1429 | 8671352.5333 | 8868428.7273 | 9074671.2558 | 8482844.8696 | 8671352.5333 | 8868428.7273 | 8671352.5333 | 8681498.5745 | 8870226.8043 | 8967701.8242 | 8500634.0208 | 8774848.0215 | 8774848.0215 | 8774848.0215 | 8797895.2398 | 9028206.6335 | 9075723.5105 | 8621937.3350 | 8888595.1907 | 8888595.1907 | 8797895.2398 |
sim_num_branches                            124259 |       124259 |       124259 |       124259 |       124259 |       124259 |       124259 |       243644 |       243644 |       243644 |       243644 |       243644 |       243644 |       243644 |       529731 |       529731 |       529731 |       529731 |       529731 |       529731 |       529731 |      1136323 |      1136323 |      1136323 |      1136323 |      1136323 |      1136323 |      1136323 |      2444167 |      2444167 |      2444167 |      2444167 |      2444167 |      2444167 |      2444167 |      5200032 |      5200032 |      5200032 |      5200032 |      5200032 |      5200032 |      5200032 |     11084627 |     11084627 |     11084627 |     11084627 |     11084627 |     11084627 |     11084627 |     23411412 |     23411412 |     23411412 |     23411412 |     23411412 |     23411412 |     23411412 |     49577534 |     49577534 |     49577534 |     49577534 |     49577534 |     49577534 |     49577534 |    104135593 |    104135593 |    104135593 |    104135593 |    104135593 |    104135593 |    104135593 |    219278552 |    219278552 |    219278552 |    219278552 |    219278552 |    219278552 |    219278552 |
sim_IPB                                     7.7534 |       7.7534 |       7.7534 |       7.7534 |       7.7534 |       7.7534 |       7.7534 |       7.8657 |       7.8657 |       7.8657 |       7.8657 |       7.8657 |       7.8657 |       7.8657 |       7.9037 |       7.9037 |       7.9037 |       7.9037 |       7.9037 |       7.9037 |       7.9037 |       7.8529 |       7.8529 |       7.8529 |       7.8529 |       7.8529 |       7.8529 |       7.8529 |       7.8891 |       7.8891 |       7.8891 |       7.8891 |       7.8891 |       7.8891 |       7.8891 |       7.8439 |       7.8439 |       7.8439 |       7.8439 |       7.8439 |       7.8439 |       7.8439 |       7.8787 |       7.8787 |       7.8787 |       7.8787 |       7.8787 |       7.8787 |       7.8787 |       7.8409 |       7.8409 |       7.8409 |       7.8409 |       7.8409 |       7.8409 |       7.8409 |       7.8707 |       7.8707 |       7.8707 |       7.8707 |       7.8707 |       7.8707 |       7.8707 |       7.8365 |       7.8365 |       7.8365 |       7.8365 |       7.8365 |       7.8365 |       7.8365 |       7.8639 |       7.8639 |       7.8639 |       7.8639 |       7.8639 |       7.8639 |       7.8639 |
bpred_bimod.lookups                         124259 |       124259 |       124259 |xxxxxxxxxxxxx |xxxxxxxxxxxxx |xxxxxxxxxxxxx |xxxxxxxxxxxxx |       243644 |       243644 |       243644 |xxxxxxxxxxxxx |xxxxxxxxxxxxx |xxxxxxxxxxxxx |xxxxxxxxxxxxx |       529731 |       529731 |       529731 |xxxxxxxxxxxxx |xxxxxxxxxxxxx |xxxxxxxxxxxxx |xxxxxxxxxxxxx |      1136323 |      1136323 |      1136323 |xxxxxxxxxxxxx |xxxxxxxxxxxxx |xxxxxxxxxxxxx |xxxxxxxxxxxxx |      2444167 |      2444167 |      2444167 |xxxxxxxxxxxxx |xxxxxxxxxxxxx |xxxxxxxxxxxxx |xxxxxxxxxxxxx |      5200032 |      5200032 |      5200032 |xxxxxxxxxxxxx |xxxxxxxxxxxxx |xxxxxxxxxxxxx |xxxxxxxxxxxxx |     11084627 |     11084627 |     11084627 |xxxxxxxxxxxxx |xxxxxxxxxxxxx |xxxxxxxxxxxxx |xxxxxxxxxxxxx |     23411412 |     23411412 |     23411412 |xxxxxxxxxxxxx |xxxxxxxxxxxxx |xxxxxxxxxxxxx |xxxxxxxxxxxxx |     49577534 |     49577534 |     49577534 |xxxxxxxxxxxxx |xxxxxxxxxxxxx |xxxxxxxxxxxxx |xxxxxxxxxxxxx |    104135593 |    104135593 |    104135593 |xxxxxxxxxxxxx |xxxxxxxxxxxxx |xxxxxxxxxxxxx |xxxxxxxxxxxxx |    219278552 |    219278552 |    219278552 |
bpred_bimod.updates                         124259 |       124259 |       124259 |xxxxxxxxxxxxx |xxxxxxxxxxxxx |xxxxxxxxxxxxx |xxxxxxxxxxxxx |       243644 |       243644 |       243644 |xxxxxxxxxxxxx |xxxxxxxxxxxxx |xxxxxxxxxxxxx |xxxxxxxxxxxxx |       529731 |       529731 |       529731 |xxxxxxxxxxxxx |xxxxxxxxxxxxx |xxxxxxxxxxxxx |xxxxxxxxxxxxx |      1136323 |      1136323 |      1136323 |xxxxxxxxxxxxx |xxxxxxxxxxxxx |xxxxxxxxxxxxx |xxxxxxxxxxxxx |      2444167 |      2444167 |      2444167 |xxxxxxxxxxxxx |xxxxxxxxxxxxx |xxxxxxxxxxxxx |xxxxxxxxxxxxx |      5200032 |      5200032 |      5200032 |xxxxxxxxxxxxx |xxxxxxxxxxxxx |xxxxxxxxxxxxx |xxxxxxxxxxxxx |     11084627 |     11084627 |     11084627 |xxxxxxxxxxxxx |xxxxxxxxxxxxx |xxxxxxxxxxxxx |xxxxxxxxxxxxx |     23411412 |     23411412 |     23411412 |xxxxxxxxxxxxx |xxxxxxxxxxxxx |xxxxxxxxxxxxx |xxxxxxxxxxxxx |     49577534 |     49577534 |     49577534 |xxxxxxxxxxxxx |xxxxxxxxxxxxx |xxxxxxxxxxxxx |xxxxxxxxxxxxx |    104135593 |    104135593 |    104135593 |xxxxxxxxxxxxx |xxxxxxxxxxxxx |xxxxxxxxxxxxx |xxxxxxxxxxxxx |    219278552 |    219278552 |    219278552 |
bpred_bimod.addr_hits                        98825 |        98827 |        98830 |xxxxxxxxxxxxx |xxxxxxxxxxxxx |xxxxxxxxxxxxx |xxxxxxxxxxxxx |       189306 |       189308 |       189314 |xxxxxxxxxxxxx |xxxxxxxxxxxxx |xxxxxxxxxxxxx |xxxxxxxxxxxxx |       413123 |       413126 |       413134 |xxxxxxxxxxxxx |xxxxxxxxxxxxx |xxxxxxxxxxxxx |xxxxxxxxxxxxx |       886645 |       886647 |       886652 |xxxxxxxxxxxxx |xxxxxxxxxxxxx |xxxxxxxxxxxxx |xxxxxxxxxxxxx |      1912633 |      1912636 |      1912641 |xxxxxxxxxxxxx |xxxxxxxxxxxxx |xxxxxxxxxxxxx |xxxxxxxxxxxxx |      4072130 |      4072132 |      4072137 |xxxxxxxxxxxxx |xxxxxxxxxxxxx |xxxxxxxxxxxxx |xxxxxxxxxxxxx |      8695513 |      8695516 |      8695521 |xxxxxxxxxxxxx |xxxxxxxxxxxxx |xxxxxxxxxxxxx |xxxxxxxxxxxxx |     18374164 |     18374166 |     18374171 |xxxxxxxxxxxxx |xxxxxxxxxxxxx |xxxxxxxxxxxxx |xxxxxxxxxxxxx |     38978386 |     38978389 |     38978393 |xxxxxxxxxxxxx |xxxxxxxxxxxxx |xxxxxxxxxxxxx |xxxxxxxxxxxxx |     81895404 |     81895407 |     81895411 |xxxxxxxxxxxxx |xxxxxxxxxxxxx |xxxxxxxxxxxxx |xxxxxxxxxxxxx |    172700428 |    172700431 |    172700435 |
bpred_bimod.dir_hits                         98926 |        98928 |        98931 |xxxxxxxxxxxxx |xxxxxxxxxxxxx |xxxxxxxxxxxxx |xxxxxxxxxxxxx |       189412 |       189413 |       189419 |xxxxxxxxxxxxx |xxxxxxxxxxxxx |xxxxxxxxxxxxx |xxxxxxxxxxxxx |       413235 |       413237 |       413244 |xxxxxxxxxxxxx |xxxxxxxxxxxxx |xxxxxxxxxxxxx |xxxxxxxxxxxxx |       886750 |       886751 |       886756 |xxxxxxxxxxxxx |xxxxxxxxxxxxx |xxxxxxxxxxxxx |xxxxxxxxxxxxx |      1912743 |      1912745 |      1912750 |xxxxxxxxxxxxx |xxxxxxxxxxxxx |xxxxxxxxxxxxx |xxxxxxxxxxxxx |      4072236 |      4072237 |      4072242 |xxxxxxxxxxxxx |xxxxxxxxxxxxx |xxxxxxxxxxxxx |xxxxxxxxxxxxx |      8695624 |      8695626 |      8695631 |xxxxxxxxxxxxx |xxxxxxxxxxxxx |xxxxxxxxxxxxx |xxxxxxxxxxxxx |     18374270 |     18374271 |     18374276 |xxxxxxxxxxxxx |xxxxxxxxxxxxx |xxxxxxxxxxxxx |xxxxxxxxxxxxx |     38978503 |     38978505 |     38978509 |xxxxxxxxxxxxx |xxxxxxxxxxxxx |xxxxxxxxxxxxx |xxxxxxxxxxxxx |     81895521 |     81895523 |     81895527 |xxxxxxxxxxxxx |xxxxxxxxxxxxx |xxxxxxxxxxxxx |xxxxxxxxxxxxx |    172700545 |    172700547 |    172700551 |
bpred_bimod.misses                           25333 |        25331 |        25328 |xxxxxxxxxxxxx |xxxxxxxxxxxxx |xxxxxxxxxxxxx |xxxxxxxxxxxxx |        54232 |        54231 |        54225 |xxxxxxxxxxxxx |xxxxxxxxxxxxx |xxxxxxxxxxxxx |xxxxxxxxxxxxx |       116496 |       116494 |       116487 |xxxxxxxxxxxxx |xxxxxxxxxxxxx |xxxxxxxxxxxxx |xxxxxxxxxxxxx |       249573 |       249572 |       249567 |xxxxxxxxxxxxx |xxxxxxxxxxxxx |xxxxxxxxxxxxx |xxxxxxxxxxxxx |       531424 |       531422 |       531417 |xxxxxxxxxxxxx |xxxxxxxxxxxxx |xxxxxxxxxxxxx |xxxxxxxxxxxxx |      1127796 |      1127795 |      1127790 |xxxxxxxxxxxxx |xxxxxxxxxxxxx |xxxxxxxxxxxxx |xxxxxxxxxxxxx |      2389003 |      2389001 |      2388996 |xxxxxxxxxxxxx |xxxxxxxxxxxxx |xxxxxxxxxxxxx |xxxxxxxxxxxxx |      5037142 |      5037141 |      5037136 |xxxxxxxxxxxxx |xxxxxxxxxxxxx |xxxxxxxxxxxxx |xxxxxxxxxxxxx |     10599031 |     10599029 |     10599025 |xxxxxxxxxxxxx |xxxxxxxxxxxxx |xxxxxxxxxxxxx |xxxxxxxxxxxxx |     22240072 |     22240070 |     22240066 |xxxxxxxxxxxxx |xxxxxxxxxxxxx |xxxxxxxxxxxxx |xxxxxxxxxxxxx |     46578007 |     46578005 |     46578001 |
bpred_bimod.jr_hits                             61 |           61 |           61 |xxxxxxxxxxxxx |xxxxxxxxxxxxx |xxxxxxxxxxxxx |xxxxxxxxxxxxx |           69 |           69 |           69 |xxxxxxxxxxxxx |xxxxxxxxxxxxx |xxxxxxxxxxxxx |xxxxxxxxxxxxx |           71 |           71 |           71 |xxxxxxxxxxxxx |xxxxxxxxxxxxx |xxxxxxxxxxxxx |xxxxxxxxxxxxx |           69 |           69 |           69 |xxxxxxxxxxxxx |xxxxxxxxxxxxx |xxxxxxxxxxxxx |xxxxxxxxxxxxx |           71 |           71 |           71 |xxxxxxxxxxxxx |xxxxxxxxxxxxx |xxxxxxxxxxxxx |xxxxxxxxxxxxx |           69 |           69 |           69 |xxxxxxxxxxxxx |xxxxxxxxxxxxx |xxxxxxxxxxxxx |xxxxxxxxxxxxx |           71 |           71 |           71 |xxxxxxxxxxxxx |xxxxxxxxxxxxx |xxxxxxxxxxxxx |xxxxxxxxxxxxx |           69 |           69 |           69 |xxxxxxxxxxxxx |xxxxxxxxxxxxx |xxxxxxxxxxxxx |xxxxxxxxxxxxx |           75 |           75 |           75 |xxxxxxxxxxxxx |xxxxxxxxxxxxx |xxxxxxxxxxxxx |xxxxxxxxxxxxx |           72 |           72 |           72 |xxxxxxxxxxxxx |xxxxxxxxxxxxx |xxxxxxxxxxxxx |xxxxxxxxxxxxx |           75 |           75 |           75 |
bpred_bimod.jr_seen                             61 |           61 |           61 |xxxxxxxxxxxxx |xxxxxxxxxxxxx |xxxxxxxxxxxxx |xxxxxxxxxxxxx |           70 |           70 |           70 |xxxxxxxxxxxxx |xxxxxxxxxxxxx |xxxxxxxxxxxxx |xxxxxxxxxxxxx |           73 |           73 |           73 |xxxxxxxxxxxxx |xxxxxxxxxxxxx |xxxxxxxxxxxxx |xxxxxxxxxxxxx |           70 |           70 |           70 |xxxxxxxxxxxxx |xxxxxxxxxxxxx |xxxxxxxxxxxxx |xxxxxxxxxxxxx |           73 |           73 |           73 |xxxxxxxxxxxxx |xxxxxxxxxxxxx |xxxxxxxxxxxxx |xxxxxxxxxxxxx |           70 |           70 |           70 |xxxxxxxxxxxxx |xxxxxxxxxxxxx |xxxxxxxxxxxxx |xxxxxxxxxxxxx |           73 |           73 |           73 |xxxxxxxxxxxxx |xxxxxxxxxxxxx |xxxxxxxxxxxxx |xxxxxxxxxxxxx |           70 |           70 |           70 |xxxxxxxxxxxxx |xxxxxxxxxxxxx |xxxxxxxxxxxxx |xxxxxxxxxxxxx |           76 |           76 |           76 |xxxxxxxxxxxxx |xxxxxxxxxxxxx |xxxxxxxxxxxxx |xxxxxxxxxxxxx |           73 |           73 |           73 |xxxxxxxxxxxxx |xxxxxxxxxxxxx |xxxxxxxxxxxxx |xxxxxxxxxxxxx |           76 |           76 |           76 |
bpred_bimod.jr_non_ras_hits.PP                   0 |            0 |            0 |xxxxxxxxxxxxx |xxxxxxxxxxxxx |xxxxxxxxxxxxx |xxxxxxxxxxxxx |            0 |            0 |            0 |xxxxxxxxxxxxx |xxxxxxxxxxxxx |xxxxxxxxxxxxx |xxxxxxxxxxxxx |            0 |            0 |            0 |xxxxxxxxxxxxx |xxxxxxxxxxxxx |xxxxxxxxxxxxx |xxxxxxxxxxxxx |            0 |            0 |            0 |xxxxxxxxxxxxx |xxxxxxxxxxxxx |xxxxxxxxxxxxx |xxxxxxxxxxxxx |            0 |            0 |            0 |xxxxxxxxxxxxx |xxxxxxxxxxxxx |xxxxxxxxxxxxx |xxxxxxxxxxxxx |            0 |            0 |            0 |xxxxxxxxxxxxx |xxxxxxxxxxxxx |xxxxxxxxxxxxx |xxxxxxxxxxxxx |            0 |            0 |            0 |xxxxxxxxxxxxx |xxxxxxxxxxxxx |xxxxxxxxxxxxx |xxxxxxxxxxxxx |            0 |            0 |            0 |xxxxxxxxxxxxx |xxxxxxxxxxxxx |xxxxxxxxxxxxx |xxxxxxxxxxxxx |            1 |            1 |            1 |xxxxxxxxxxxxx |xxxxxxxxxxxxx |xxxxxxxxxxxxx |xxxxxxxxxxxxx |            0 |            0 |            0 |xxxxxxxxxxxxx |xxxxxxxxxxxxx |xxxxxxxxxxxxx |xxxxxxxxxxxxx |            1 |            1 |            1 |
bpred_bimod.jr_non_ras_seen.PP                   0 |            0 |            0 |xxxxxxxxxxxxx |xxxxxxxxxxxxx |xxxxxxxxxxxxx |xxxxxxxxxxxxx |            0 |            0 |            0 |xxxxxxxxxxxxx |xxxxxxxxxxxxx |xxxxxxxxxxxxx |xxxxxxxxxxxxx |            1 |            1 |            1 |xxxxxxxxxxxxx |xxxxxxxxxxxxx |xxxxxxxxxxxxx |xxxxxxxxxxxxx |            0 |            0 |            0 |xxxxxxxxxxxxx |xxxxxxxxxxxxx |xxxxxxxxxxxxx |xxxxxxxxxxxxx |            1 |            1 |            1 |xxxxxxxxxxxxx |xxxxxxxxxxxxx |xxxxxxxxxxxxx |xxxxxxxxxxxxx |            0 |            0 |            0 |xxxxxxxxxxxxx |xxxxxxxxxxxxx |xxxxxxxxxxxxx |xxxxxxxxxxxxx |            1 |            1 |            1 |xxxxxxxxxxxxx |xxxxxxxxxxxxx |xxxxxxxxxxxxx |xxxxxxxxxxxxx |            0 |            0 |            0 |xxxxxxxxxxxxx |xxxxxxxxxxxxx |xxxxxxxxxxxxx |xxxxxxxxxxxxx |            2 |            2 |            2 |xxxxxxxxxxxxx |xxxxxxxxxxxxx |xxxxxxxxxxxxx |xxxxxxxxxxxxx |            1 |            1 |            1 |xxxxxxxxxxxxx |xxxxxxxxxxxxx |xxxxxxxxxxxxx |xxxxxxxxxxxxx |            2 |            2 |            2 |
bpred_bimod.bpred_addr_rate                 0.7953 |       0.7953 |       0.7954 |xxxxxxxxxxxxx |xxxxxxxxxxxxx |xxxxxxxxxxxxx |xxxxxxxxxxxxx |       0.7770 |       0.7770 |       0.7770 |xxxxxxxxxxxxx |xxxxxxxxxxxxx |xxxxxxxxxxxxx |xxxxxxxxxxxxx |       0.7799 |       0.7799 |       0.7799 |xxxxxxxxxxxxx |xxxxxxxxxxxxx |xxxxxxxxxxxxx |xxxxxxxxxxxxx |       0.7803 |       0.7803 |       0.7803 |xxxxxxxxxxxxx |xxxxxxxxxxxxx |xxxxxxxxxxxxx |xxxxxxxxxxxxx |       0.7825 |       0.7825 |       0.7825 |xxxxxxxxxxxxx |xxxxxxxxxxxxx |xxxxxxxxxxxxx |xxxxxxxxxxxxx |       0.7831 |       0.7831 |       0.7831 |xxxxxxxxxxxxx |xxxxxxxxxxxxx |xxxxxxxxxxxxx |xxxxxxxxxxxxx |       0.7845 |       0.7845 |       0.7845 |xxxxxxxxxxxxx |xxxxxxxxxxxxx |xxxxxxxxxxxxx |xxxxxxxxxxxxx |       0.7848 |       0.7848 |       0.7848 |xxxxxxxxxxxxx |xxxxxxxxxxxxx |xxxxxxxxxxxxx |xxxxxxxxxxxxx |       0.7862 |       0.7862 |       0.7862 |xxxxxxxxxxxxx |xxxxxxxxxxxxx |xxxxxxxxxxxxx |xxxxxxxxxxxxx |       0.7864 |       0.7864 |       0.7864 |xxxxxxxxxxxxx |xxxxxxxxxxxxx |xxxxxxxxxxxxx |xxxxxxxxxxxxx |       0.7876 |       0.7876 |       0.7876 |
bpred_bimod.bpred_dir_rate                  0.7961 |       0.7961 |       0.7962 |xxxxxxxxxxxxx |xxxxxxxxxxxxx |xxxxxxxxxxxxx |xxxxxxxxxxxxx |       0.7774 |       0.7774 |       0.7774 |xxxxxxxxxxxxx |xxxxxxxxxxxxx |xxxxxxxxxxxxx |xxxxxxxxxxxxx |       0.7801 |       0.7801 |       0.7801 |xxxxxxxxxxxxx |xxxxxxxxxxxxx |xxxxxxxxxxxxx |xxxxxxxxxxxxx |       0.7804 |       0.7804 |       0.7804 |xxxxxxxxxxxxx |xxxxxxxxxxxxx |xxxxxxxxxxxxx |xxxxxxxxxxxxx |       0.7826 |       0.7826 |       0.7826 |xxxxxxxxxxxxx |xxxxxxxxxxxxx |xxxxxxxxxxxxx |xxxxxxxxxxxxx |       0.7831 |       0.7831 |       0.7831 |xxxxxxxxxxxxx |xxxxxxxxxxxxx |xxxxxxxxxxxxx |xxxxxxxxxxxxx |       0.7845 |       0.7845 |       0.7845 |xxxxxxxxxxxxx |xxxxxxxxxxxxx |xxxxxxxxxxxxx |xxxxxxxxxxxxx |       0.7848 |       0.7848 |       0.7848 |xxxxxxxxxxxxx |xxxxxxxxxxxxx |xxxxxxxxxxxxx |xxxxxxxxxxxxx |       0.7862 |       0.7862 |       0.7862 |xxxxxxxxxxxxx |xxxxxxxxxxxxx |xxxxxxxxxxxxx |xxxxxxxxxxxxx |       0.7864 |       0.7864 |       0.7864 |xxxxxxxxxxxxx |xxxxxxxxxxxxx |xxxxxxxxxxxxx |xxxxxxxxxxxxx |       0.7876 |       0.7876 |       0.7876 |
bpred_bimod.bpred_jr_rate                   1.0000 |       1.0000 |       1.0000 |xxxxxxxxxxxxx |xxxxxxxxxxxxx |xxxxxxxxxxxxx |xxxxxxxxxxxxx |       0.9857 |       0.9857 |       0.9857 |xxxxxxxxxxxxx |xxxxxxxxxxxxx |xxxxxxxxxxxxx |xxxxxxxxxxxxx |       0.9726 |       0.9726 |       0.9726 |xxxxxxxxxxxxx |xxxxxxxxxxxxx |xxxxxxxxxxxxx |xxxxxxxxxxxxx |       0.9857 |       0.9857 |       0.9857 |xxxxxxxxxxxxx |xxxxxxxxxxxxx |xxxxxxxxxxxxx |xxxxxxxxxxxxx |       0.9726 |       0.9726 |       0.9726 |xxxxxxxxxxxxx |xxxxxxxxxxxxx |xxxxxxxxxxxxx |xxxxxxxxxxxxx |       0.9857 |       0.9857 |       0.9857 |xxxxxxxxxxxxx |xxxxxxxxxxxxx |xxxxxxxxxxxxx |xxxxxxxxxxxxx |       0.9726 |       0.9726 |       0.9726 |xxxxxxxxxxxxx |xxxxxxxxxxxxx |xxxxxxxxxxxxx |xxxxxxxxxxxxx |       0.9857 |       0.9857 |       0.9857 |xxxxxxxxxxxxx |xxxxxxxxxxxxx |xxxxxxxxxxxxx |xxxxxxxxxxxxx |       0.9868 |       0.9868 |       0.9868 |xxxxxxxxxxxxx |xxxxxxxxxxxxx |xxxxxxxxxxxxx |xxxxxxxxxxxxx |       0.9863 |       0.9863 |       0.9863 |xxxxxxxxxxxxx |xxxxxxxxxxxxx |xxxxxxxxxxxxx |xxxxxxxxxxxxx |       0.9868 |       0.9868 |       0.9868 |
bpred_bimod.bpred_jr_non_ras_rate.PP       <error: |      <error: |      <error: |xxxxxxxxxxxxx |xxxxxxxxxxxxx |xxxxxxxxxxxxx |xxxxxxxxxxxxx |      <error: |      <error: |      <error: |xxxxxxxxxxxxx |xxxxxxxxxxxxx |xxxxxxxxxxxxx |xxxxxxxxxxxxx |       0.0000 |       0.0000 |       0.0000 |xxxxxxxxxxxxx |xxxxxxxxxxxxx |xxxxxxxxxxxxx |xxxxxxxxxxxxx |      <error: |      <error: |      <error: |xxxxxxxxxxxxx |xxxxxxxxxxxxx |xxxxxxxxxxxxx |xxxxxxxxxxxxx |       0.0000 |       0.0000 |       0.0000 |xxxxxxxxxxxxx |xxxxxxxxxxxxx |xxxxxxxxxxxxx |xxxxxxxxxxxxx |      <error: |      <error: |      <error: |xxxxxxxxxxxxx |xxxxxxxxxxxxx |xxxxxxxxxxxxx |xxxxxxxxxxxxx |       0.0000 |       0.0000 |       0.0000 |xxxxxxxxxxxxx |xxxxxxxxxxxxx |xxxxxxxxxxxxx |xxxxxxxxxxxxx |      <error: |      <error: |      <error: |xxxxxxxxxxxxx |xxxxxxxxxxxxx |xxxxxxxxxxxxx |xxxxxxxxxxxxx |       0.5000 |       0.5000 |       0.5000 |xxxxxxxxxxxxx |xxxxxxxxxxxxx |xxxxxxxxxxxxx |xxxxxxxxxxxxx |       0.0000 |       0.0000 |       0.0000 |xxxxxxxxxxxxx |xxxxxxxxxxxxx |xxxxxxxxxxxxx |xxxxxxxxxxxxx |       0.5000 |       0.5000 |       0.5000 |
bpred_bimod.retstack_pushes                     63 |           63 |           63 |xxxxxxxxxxxxx |xxxxxxxxxxxxx |xxxxxxxxxxxxx |xxxxxxxxxxxxx |           72 |           72 |           72 |xxxxxxxxxxxxx |xxxxxxxxxxxxx |xxxxxxxxxxxxx |xxxxxxxxxxxxx |           74 |           74 |           74 |xxxxxxxxxxxxx |xxxxxxxxxxxxx |xxxxxxxxxxxxx |xxxxxxxxxxxxx |           72 |           72 |           72 |xxxxxxxxxxxxx |xxxxxxxxxxxxx |xxxxxxxxxxxxx |xxxxxxxxxxxxx |           74 |           74 |           74 |xxxxxxxxxxxxx |xxxxxxxxxxxxx |xxxxxxxxxxxxx |xxxxxxxxxxxxx |           72 |           72 |           72 |xxxxxxxxxxxxx |xxxxxxxxxxxxx |xxxxxxxxxxxxx |xxxxxxxxxxxxx |           74 |           74 |           74 |xxxxxxxxxxxxx |xxxxxxxxxxxxx |xxxxxxxxxxxxx |xxxxxxxxxxxxx |           72 |           72 |           72 |xxxxxxxxxxxxx |xxxxxxxxxxxxx |xxxxxxxxxxxxx |xxxxxxxxxxxxx |           76 |           76 |           76 |xxxxxxxxxxxxx |xxxxxxxxxxxxx |xxxxxxxxxxxxx |xxxxxxxxxxxxx |           74 |           74 |           74 |xxxxxxxxxxxxx |xxxxxxxxxxxxx |xxxxxxxxxxxxx |xxxxxxxxxxxxx |           76 |           76 |           76 |
bpred_bimod.retstack_pops                       61 |           61 |           61 |xxxxxxxxxxxxx |xxxxxxxxxxxxx |xxxxxxxxxxxxx |xxxxxxxxxxxxx |           70 |           70 |           70 |xxxxxxxxxxxxx |xxxxxxxxxxxxx |xxxxxxxxxxxxx |xxxxxxxxxxxxx |           72 |           72 |           72 |xxxxxxxxxxxxx |xxxxxxxxxxxxx |xxxxxxxxxxxxx |xxxxxxxxxxxxx |           70 |           70 |           70 |xxxxxxxxxxxxx |xxxxxxxxxxxxx |xxxxxxxxxxxxx |xxxxxxxxxxxxx |           72 |           72 |           72 |xxxxxxxxxxxxx |xxxxxxxxxxxxx |xxxxxxxxxxxxx |xxxxxxxxxxxxx |           70 |           70 |           70 |xxxxxxxxxxxxx |xxxxxxxxxxxxx |xxxxxxxxxxxxx |xxxxxxxxxxxxx |           72 |           72 |           72 |xxxxxxxxxxxxx |xxxxxxxxxxxxx |xxxxxxxxxxxxx |xxxxxxxxxxxxx |           70 |           70 |           70 |xxxxxxxxxxxxx |xxxxxxxxxxxxx |xxxxxxxxxxxxx |xxxxxxxxxxxxx |           74 |           74 |           74 |xxxxxxxxxxxxx |xxxxxxxxxxxxx |xxxxxxxxxxxxx |xxxxxxxxxxxxx |           72 |           72 |           72 |xxxxxxxxxxxxx |xxxxxxxxxxxxx |xxxxxxxxxxxxx |xxxxxxxxxxxxx |           74 |           74 |           74 |
bpred_bimod.used_ras.PP                         61 |           61 |           61 |xxxxxxxxxxxxx |xxxxxxxxxxxxx |xxxxxxxxxxxxx |xxxxxxxxxxxxx |           70 |           70 |           70 |xxxxxxxxxxxxx |xxxxxxxxxxxxx |xxxxxxxxxxxxx |xxxxxxxxxxxxx |           72 |           72 |           72 |xxxxxxxxxxxxx |xxxxxxxxxxxxx |xxxxxxxxxxxxx |xxxxxxxxxxxxx |           70 |           70 |           70 |xxxxxxxxxxxxx |xxxxxxxxxxxxx |xxxxxxxxxxxxx |xxxxxxxxxxxxx |           72 |           72 |           72 |xxxxxxxxxxxxx |xxxxxxxxxxxxx |xxxxxxxxxxxxx |xxxxxxxxxxxxx |           70 |           70 |           70 |xxxxxxxxxxxxx |xxxxxxxxxxxxx |xxxxxxxxxxxxx |xxxxxxxxxxxxx |           72 |           72 |           72 |xxxxxxxxxxxxx |xxxxxxxxxxxxx |xxxxxxxxxxxxx |xxxxxxxxxxxxx |           70 |           70 |           70 |xxxxxxxxxxxxx |xxxxxxxxxxxxx |xxxxxxxxxxxxx |xxxxxxxxxxxxx |           74 |           74 |           74 |xxxxxxxxxxxxx |xxxxxxxxxxxxx |xxxxxxxxxxxxx |xxxxxxxxxxxxx |           72 |           72 |           72 |xxxxxxxxxxxxx |xxxxxxxxxxxxx |xxxxxxxxxxxxx |xxxxxxxxxxxxx |           74 |           74 |           74 |
bpred_bimod.ras_hits.PP                         61 |           61 |           61 |xxxxxxxxxxxxx |xxxxxxxxxxxxx |xxxxxxxxxxxxx |xxxxxxxxxxxxx |           69 |           69 |           69 |xxxxxxxxxxxxx |xxxxxxxxxxxxx |xxxxxxxxxxxxx |xxxxxxxxxxxxx |           71 |           71 |           71 |xxxxxxxxxxxxx |xxxxxxxxxxxxx |xxxxxxxxxxxxx |xxxxxxxxxxxxx |           69 |           69 |           69 |xxxxxxxxxxxxx |xxxxxxxxxxxxx |xxxxxxxxxxxxx |xxxxxxxxxxxxx |           71 |           71 |           71 |xxxxxxxxxxxxx |xxxxxxxxxxxxx |xxxxxxxxxxxxx |xxxxxxxxxxxxx |           69 |           69 |           69 |xxxxxxxxxxxxx |xxxxxxxxxxxxx |xxxxxxxxxxxxx |xxxxxxxxxxxxx |           71 |           71 |           71 |xxxxxxxxxxxxx |xxxxxxxxxxxxx |xxxxxxxxxxxxx |xxxxxxxxxxxxx |           69 |           69 |           69 |xxxxxxxxxxxxx |xxxxxxxxxxxxx |xxxxxxxxxxxxx |xxxxxxxxxxxxx |           74 |           74 |           74 |xxxxxxxxxxxxx |xxxxxxxxxxxxx |xxxxxxxxxxxxx |xxxxxxxxxxxxx |           72 |           72 |           72 |xxxxxxxxxxxxx |xxxxxxxxxxxxx |xxxxxxxxxxxxx |xxxxxxxxxxxxx |           74 |           74 |           74 |
bpred_bimod.ras_rate.PP                     1.0000 |       1.0000 |       1.0000 |xxxxxxxxxxxxx |xxxxxxxxxxxxx |xxxxxxxxxxxxx |xxxxxxxxxxxxx |       0.9857 |       0.9857 |       0.9857 |xxxxxxxxxxxxx |xxxxxxxxxxxxx |xxxxxxxxxxxxx |xxxxxxxxxxxxx |       0.9861 |       0.9861 |       0.9861 |xxxxxxxxxxxxx |xxxxxxxxxxxxx |xxxxxxxxxxxxx |xxxxxxxxxxxxx |       0.9857 |       0.9857 |       0.9857 |xxxxxxxxxxxxx |xxxxxxxxxxxxx |xxxxxxxxxxxxx |xxxxxxxxxxxxx |       0.9861 |       0.9861 |       0.9861 |xxxxxxxxxxxxx |xxxxxxxxxxxxx |xxxxxxxxxxxxx |xxxxxxxxxxxxx |       0.9857 |       0.9857 |       0.9857 |xxxxxxxxxxxxx |xxxxxxxxxxxxx |xxxxxxxxxxxxx |xxxxxxxxxxxxx |       0.9861 |       0.9861 |       0.9861 |xxxxxxxxxxxxx |xxxxxxxxxxxxx |xxxxxxxxxxxxx |xxxxxxxxxxxxx |       0.9857 |       0.9857 |       0.9857 |xxxxxxxxxxxxx |xxxxxxxxxxxxx |xxxxxxxxxxxxx |xxxxxxxxxxxxx |       1.0000 |       1.0000 |       1.0000 |xxxxxxxxxxxxx |xxxxxxxxxxxxx |xxxxxxxxxxxxx |xxxxxxxxxxxxx |       1.0000 |       1.0000 |       1.0000 |xxxxxxxxxxxxx |xxxxxxxxxxxxx |xxxxxxxxxxxxx |xxxxxxxxxxxxx |       1.0000 |       1.0000 |       1.0000 |
bpred_2lev.lookups                   xxxxxxxxxxxxx |xxxxxxxxxxxxx |xxxxxxxxxxxxx |       124259 |       124259 |       124259 |       124259 |xxxxxxxxxxxxx |xxxxxxxxxxxxx |xxxxxxxxxxxxx |       243644 |       243644 |       243644 |       243644 |xxxxxxxxxxxxx |xxxxxxxxxxxxx |xxxxxxxxxxxxx |       529731 |       529731 |       529731 |       529731 |xxxxxxxxxxxxx |xxxxxxxxxxxxx |xxxxxxxxxxxxx |      1136323 |      1136323 |      1136323 |      1136323 |xxxxxxxxxxxxx |xxxxxxxxxxxxx |xxxxxxxxxxxxx |      2444167 |      2444167 |      2444167 |      2444167 |xxxxxxxxxxxxx |xxxxxxxxxxxxx |xxxxxxxxxxxxx |      5200032 |      5200032 |      5200032 |      5200032 |xxxxxxxxxxxxx |xxxxxxxxxxxxx |xxxxxxxxxxxxx |     11084627 |     11084627 |     11084627 |     11084627 |xxxxxxxxxxxxx |xxxxxxxxxxxxx |xxxxxxxxxxxxx |     23411412 |     23411412 |     23411412 |     23411412 |xxxxxxxxxxxxx |xxxxxxxxxxxxx |xxxxxxxxxxxxx |     49577534 |     49577534 |     49577534 |     49577534 |xxxxxxxxxxxxx |xxxxxxxxxxxxx |xxxxxxxxxxxxx |    104135593 |    104135593 |    104135593 |    104135593 |xxxxxxxxxxxxx |xxxxxxxxxxxxx |xxxxxxxxxxxxx |    219278552 |    219278552 |    219278552 |    219278552 |
[...]
bpred_2lev.retstack_pushes           xxxxxxxxxxxxx |xxxxxxxxxxxxx |xxxxxxxxxxxxx |           63 |           63 |           63 |           63 |xxxxxxxxxxxxx |xxxxxxxxxxxxx |xxxxxxxxxxxxx |           72 |           72 |           72 |           72 |xxxxxxxxxxxxx |xxxxxxxxxxxxx |xxxxxxxxxxxxx |           74 |           74 |           74 |           74 |xxxxxxxxxxxxx |xxxxxxxxxxxxx |xxxxxxxxxxxxx |           72 |           72 |           72 |           72 |xxxxxxxxxxxxx |xxxxxxxxxxxxx |xxxxxxxxxxxxx |           74 |           74 |           74 |           74 |xxxxxxxxxxxxx |xxxxxxxxxxxxx |xxxxxxxxxxxxx |           72 |           72 |           72 |           72 |xxxxxxxxxxxxx |xxxxxxxxxxxxx |xxxxxxxxxxxxx |           74 |           74 |           74 |           74 |xxxxxxxxxxxxx |xxxxxxxxxxxxx |xxxxxxxxxxxxx |           72 |           72 |           72 |           72 |xxxxxxxxxxxxx |xxxxxxxxxxxxx |xxxxxxxxxxxxx |           76 |           76 |           76 |           76 |xxxxxxxxxxxxx |xxxxxxxxxxxxx |xxxxxxxxxxxxx |           74 |           74 |           74 |           74 |xxxxxxxxxxxxx |xxxxxxxxxxxxx |xxxxxxxxxxxxx |           76 |           76 |           76 |           76 |
bpred_2lev.retstack_pops             xxxxxxxxxxxxx |xxxxxxxxxxxxx |xxxxxxxxxxxxx |           61 |           61 |           61 |           61 |xxxxxxxxxxxxx |xxxxxxxxxxxxx |xxxxxxxxxxxxx |           70 |           70 |           70 |           70 |xxxxxxxxxxxxx |xxxxxxxxxxxxx |xxxxxxxxxxxxx |           72 |           72 |           72 |           72 |xxxxxxxxxxxxx |xxxxxxxxxxxxx |xxxxxxxxxxxxx |           70 |           70 |           70 |           70 |xxxxxxxxxxxxx |xxxxxxxxxxxxx |xxxxxxxxxxxxx |           72 |           72 |           72 |           72 |xxxxxxxxxxxxx |xxxxxxxxxxxxx |xxxxxxxxxxxxx |           70 |           70 |           70 |           70 |xxxxxxxxxxxxx |xxxxxxxxxxxxx |xxxxxxxxxxxxx |           72 |           72 |           72 |           72 |xxxxxxxxxxxxx |xxxxxxxxxxxxx |xxxxxxxxxxxxx |           70 |           70 |           70 |           70 |xxxxxxxxxxxxx |xxxxxxxxxxxxx |xxxxxxxxxxxxx |           74 |           74 |           74 |           74 |xxxxxxxxxxxxx |xxxxxxxxxxxxx |xxxxxxxxxxxxx |           72 |           72 |           72 |           72 |xxxxxxxxxxxxx |xxxxxxxxxxxxx |xxxxxxxxxxxxx |           74 |           74 |           74 |           74 |
bpred_2lev.used_ras.PP               xxxxxxxxxxxxx |xxxxxxxxxxxxx |xxxxxxxxxxxxx |           61 |           61 |           61 |           61 |xxxxxxxxxxxxx |xxxxxxxxxxxxx |xxxxxxxxxxxxx |           70 |           70 |           70 |           70 |xxxxxxxxxxxxx |xxxxxxxxxxxxx |xxxxxxxxxxxxx |           72 |           72 |           72 |           72 |xxxxxxxxxxxxx |xxxxxxxxxxxxx |xxxxxxxxxxxxx |           70 |           70 |           70 |           70 |xxxxxxxxxxxxx |xxxxxxxxxxxxx |xxxxxxxxxxxxx |           72 |           72 |           72 |           72 |xxxxxxxxxxxxx |xxxxxxxxxxxxx |xxxxxxxxxxxxx |           70 |           70 |           70 |           70 |xxxxxxxxxxxxx |xxxxxxxxxxxxx |xxxxxxxxxxxxx |           72 |           72 |           72 |           72 |xxxxxxxxxxxxx |xxxxxxxxxxxxx |xxxxxxxxxxxxx |           70 |           70 |           70 |           70 |xxxxxxxxxxxxx |xxxxxxxxxxxxx |xxxxxxxxxxxxx |           74 |           74 |           74 |           74 |xxxxxxxxxxxxx |xxxxxxxxxxxxx |xxxxxxxxxxxxx |           72 |           72 |           72 |           72 |xxxxxxxxxxxxx |xxxxxxxxxxxxx |xxxxxxxxxxxxx |           74 |           74 |           74 |           74 |
bpred_2lev.ras_hits.PP               xxxxxxxxxxxxx |xxxxxxxxxxxxx |xxxxxxxxxxxxx |           61 |           61 |           61 |           61 |xxxxxxxxxxxxx |xxxxxxxxxxxxx |xxxxxxxxxxxxx |           69 |           69 |           69 |           69 |xxxxxxxxxxxxx |xxxxxxxxxxxxx |xxxxxxxxxxxxx |           71 |           71 |           71 |           71 |xxxxxxxxxxxxx |xxxxxxxxxxxxx |xxxxxxxxxxxxx |           69 |           69 |           69 |           69 |xxxxxxxxxxxxx |xxxxxxxxxxxxx |xxxxxxxxxxxxx |           71 |           71 |           71 |           71 |xxxxxxxxxxxxx |xxxxxxxxxxxxx |xxxxxxxxxxxxx |           69 |           69 |           69 |           69 |xxxxxxxxxxxxx |xxxxxxxxxxxxx |xxxxxxxxxxxxx |           71 |           71 |           71 |           71 |xxxxxxxxxxxxx |xxxxxxxxxxxxx |xxxxxxxxxxxxx |           69 |           69 |           69 |           69 |xxxxxxxxxxxxx |xxxxxxxxxxxxx |xxxxxxxxxxxxx |           74 |           74 |           74 |           74 |xxxxxxxxxxxxx |xxxxxxxxxxxxx |xxxxxxxxxxxxx |           72 |           72 |           72 |           72 |xxxxxxxxxxxxx |xxxxxxxxxxxxx |xxxxxxxxxxxxx |           74 |           74 |           74 |           74 |
bpred_2lev.ras_rate.PP               xxxxxxxxxxxxx |xxxxxxxxxxxxx |xxxxxxxxxxxxx |       1.0000 |       1.0000 |       1.0000 |       1.0000 |xxxxxxxxxxxxx |xxxxxxxxxxxxx |xxxxxxxxxxxxx |       0.9857 |       0.9857 |       0.9857 |       0.9857 |xxxxxxxxxxxxx |xxxxxxxxxxxxx |xxxxxxxxxxxxx |       0.9861 |       0.9861 |       0.9861 |       0.9861 |xxxxxxxxxxxxx |xxxxxxxxxxxxx |xxxxxxxxxxxxx |       0.9857 |       0.9857 |       0.9857 |       0.9857 |xxxxxxxxxxxxx |xxxxxxxxxxxxx |xxxxxxxxxxxxx |       0.9861 |       0.9861 |       0.9861 |       0.9861 |xxxxxxxxxxxxx |xxxxxxxxxxxxx |xxxxxxxxxxxxx |       0.9857 |       0.9857 |       0.9857 |       0.9857 |xxxxxxxxxxxxx |xxxxxxxxxxxxx |xxxxxxxxxxxxx |       0.9861 |       0.9861 |       0.9861 |       0.9861 |xxxxxxxxxxxxx |xxxxxxxxxxxxx |xxxxxxxxxxxxx |       0.9857 |       0.9857 |       0.9857 |       0.9857 |xxxxxxxxxxxxx |xxxxxxxxxxxxx |xxxxxxxxxxxxx |       1.0000 |       1.0000 |       1.0000 |       1.0000 |xxxxxxxxxxxxx |xxxxxxxxxxxxx |xxxxxxxxxxxxx |       1.0000 |       1.0000 |       1.0000 |       1.0000 |xxxxxxxxxxxxx |xxxxxxxxxxxxx |xxxxxxxxxxxxx |       1.0000 |       1.0000 |       1.0000 |       1.0000 |

Command list: 
	sslittle-na-sstrix-gcc -Wall -O3 -funroll-loops -finline-functions  -DRANDOM_SIZE=4096 -DOFFSET=9 -DSORT=algorithm_n sorts/algorithm_n755688903.c simpleMain.c -o algorithm_n1263536549
	sim-cache -cache:dl1 dl1:256:32:1:l -cache:dl2 dl2:131072:32:1:l -cache:il1 il1:256:32:1:l -cache:il2 dl2 algorithm_n1263536549
	sim-cache -cache:dl1 dl1:256:32:1:l -cache:dl2 dl2:65536:32:1:l -cache:il1 il1:256:32:1:l -cache:il2 dl2 algorithm_n1263536549
	sim-cache -cache:dl1 dl1:1:32:256:l -cache:dl2 dl2:1:32:131072:l -cache:il1 il1:1:32:256:l -cache:il2 dl2 algorithm_n1263536549
	sim-cache -cache:dl1 dl1:1:32:256:l -cache:dl2 dl2:1:32:65536:l -cache:il1 il1:1:32:256:l -cache:il2 dl2 algorithm_n1263536549
	sim-bpred -bpred bimod -bpred:bimod 512 algorithm_n1263536549
	sim-bpred -bpred bimod -bpred:bimod 1024 algorithm_n1263536549
	sim-bpred -bpred bimod -bpred:bimod 2048 algorithm_n1263536549
	sim-bpred -bpred 2lev -bpred:2lev 1 512 10 1 algorithm_n1263536549
	sim-bpred -bpred 2lev -bpred:2lev 1 1024 10 1 algorithm_n1263536549
	sim-bpred -bpred 2lev -bpred:2lev 1 2048 10 1 algorithm_n1263536549
	sim-bpred -bpred 2lev -bpred:2lev 1 4096 10 1 algorithm_n1263536549
	sslittle-na-sstrix-gcc -Wall -O3 -funroll-loops -finline-functions  -DRANDOM_SIZE=8192 -DOFFSET=9 -DSORT=algorithm_n sorts/algorithm_n755688903.c simpleMain.c -o algorithm_n1263536549
	sim-cache -cache:dl1 dl1:256:32:1:l -cache:dl2 dl2:131072:32:1:l -cache:il1 il1:256:32:1:l -cache:il2 dl2 algorithm_n1263536549
	sim-cache -cache:dl1 dl1:256:32:1:l -cache:dl2 dl2:65536:32:1:l -cache:il1 il1:256:32:1:l -cache:il2 dl2 algorithm_n1263536549
	sim-cache -cache:dl1 dl1:1:32:256:l -cache:dl2 dl2:1:32:131072:l -cache:il1 il1:1:32:256:l -cache:il2 dl2 algorithm_n1263536549
	sim-cache -cache:dl1 dl1:1:32:256:l -cache:dl2 dl2:1:32:65536:l -cache:il1 il1:1:32:256:l -cache:il2 dl2 algorithm_n1263536549
	sim-bpred -bpred bimod -bpred:bimod 512 algorithm_n1263536549
	sim-bpred -bpred bimod -bpred:bimod 1024 algorithm_n1263536549
	sim-bpred -bpred bimod -bpred:bimod 2048 algorithm_n1263536549
	sim-bpred -bpred 2lev -bpred:2lev 1 512 10 1 algorithm_n1263536549
	sim-bpred -bpred 2lev -bpred:2lev 1 1024 10 1 algorithm_n1263536549
	sim-bpred -bpred 2lev -bpred:2lev 1 2048 10 1 algorithm_n1263536549
	sim-bpred -bpred 2lev -bpred:2lev 1 4096 10 1 algorithm_n1263536549
	sslittle-na-sstrix-gcc -Wall -O3 -funroll-loops -finline-functions  -DRANDOM_SIZE=16384 -DOFFSET=9 -DSORT=algorithm_n sorts/algorithm_n755688903.c simpleMain.c -o algorithm_n1263536549
	sim-cache -cache:dl1 dl1:256:32:1:l -cache:dl2 dl2:131072:32:1:l -cache:il1 il1:256:32:1:l -cache:il2 dl2 algorithm_n1263536549
	sim-cache -cache:dl1 dl1:256:32:1:l -cache:dl2 dl2:65536:32:1:l -cache:il1 il1:256:32:1:l -cache:il2 dl2 algorithm_n1263536549
	sim-cache -cache:dl1 dl1:1:32:256:l -cache:dl2 dl2:1:32:131072:l -cache:il1 il1:1:32:256:l -cache:il2 dl2 algorithm_n1263536549
	sim-cache -cache:dl1 dl1:1:32:256:l -cache:dl2 dl2:1:32:65536:l -cache:il1 il1:1:32:256:l -cache:il2 dl2 algorithm_n1263536549
	sim-bpred -bpred bimod -bpred:bimod 512 algorithm_n1263536549
	sim-bpred -bpred bimod -bpred:bimod 1024 algorithm_n1263536549
	sim-bpred -bpred bimod -bpred:bimod 2048 algorithm_n1263536549
	sim-bpred -bpred 2lev -bpred:2lev 1 512 10 1 algorithm_n1263536549
	sim-bpred -bpred 2lev -bpred:2lev 1 1024 10 1 algorithm_n1263536549
	sim-bpred -bpred 2lev -bpred:2lev 1 2048 10 1 algorithm_n1263536549
	sim-bpred -bpred 2lev -bpred:2lev 1 4096 10 1 algorithm_n1263536549
	sslittle-na-sstrix-gcc -Wall -O3 -funroll-loops -finline-functions  -DRANDOM_SIZE=32768 -DOFFSET=9 -DSORT=algorithm_n sorts/algorithm_n755688903.c simpleMain.c -o algorithm_n1263536549
	sim-cache -cache:dl1 dl1:256:32:1:l -cache:dl2 dl2:131072:32:1:l -cache:il1 il1:256:32:1:l -cache:il2 dl2 algorithm_n1263536549
	sim-cache -cache:dl1 dl1:256:32:1:l -cache:dl2 dl2:65536:32:1:l -cache:il1 il1:256:32:1:l -cache:il2 dl2 algorithm_n1263536549
	sim-cache -cache:dl1 dl1:1:32:256:l -cache:dl2 dl2:1:32:131072:l -cache:il1 il1:1:32:256:l -cache:il2 dl2 algorithm_n1263536549
	sim-cache -cache:dl1 dl1:1:32:256:l -cache:dl2 dl2:1:32:65536:l -cache:il1 il1:1:32:256:l -cache:il2 dl2 algorithm_n1263536549
	sim-bpred -bpred bimod -bpred:bimod 512 algorithm_n1263536549
	sim-bpred -bpred bimod -bpred:bimod 1024 algorithm_n1263536549
	sim-bpred -bpred bimod -bpred:bimod 2048 algorithm_n1263536549
	sim-bpred -bpred 2lev -bpred:2lev 1 512 10 1 algorithm_n1263536549
	sim-bpred -bpred 2lev -bpred:2lev 1 1024 10 1 algorithm_n1263536549
	sim-bpred -bpred 2lev -bpred:2lev 1 2048 10 1 algorithm_n1263536549
	sim-bpred -bpred 2lev -bpred:2lev 1 4096 10 1 algorithm_n1263536549
	sslittle-na-sstrix-gcc -Wall -O3 -funroll-loops -finline-functions  -DRANDOM_SIZE=65536 -DOFFSET=9 -DSORT=algorithm_n sorts/algorithm_n755688903.c simpleMain.c -o algorithm_n1263536549
	sim-cache -cache:dl1 dl1:256:32:1:l -cache:dl2 dl2:131072:32:1:l -cache:il1 il1:256:32:1:l -cache:il2 dl2 algorithm_n1263536549
	sim-cache -cache:dl1 dl1:256:32:1:l -cache:dl2 dl2:65536:32:1:l -cache:il1 il1:256:32:1:l -cache:il2 dl2 algorithm_n1263536549
	sim-cache -cache:dl1 dl1:1:32:256:l -cache:dl2 dl2:1:32:131072:l -cache:il1 il1:1:32:256:l -cache:il2 dl2 algorithm_n1263536549
	sim-cache -cache:dl1 dl1:1:32:256:l -cache:dl2 dl2:1:32:65536:l -cache:il1 il1:1:32:256:l -cache:il2 dl2 algorithm_n1263536549
	sim-bpred -bpred bimod -bpred:bimod 512 algorithm_n1263536549
	sim-bpred -bpred bimod -bpred:bimod 1024 algorithm_n1263536549
	sim-bpred -bpred bimod -bpred:bimod 2048 algorithm_n1263536549
	sim-bpred -bpred 2lev -bpred:2lev 1 512 10 1 algorithm_n1263536549
	sim-bpred -bpred 2lev -bpred:2lev 1 1024 10 1 algorithm_n1263536549
	sim-bpred -bpred 2lev -bpred:2lev 1 2048 10 1 algorithm_n1263536549
	sim-bpred -bpred 2lev -bpred:2lev 1 4096 10 1 algorithm_n1263536549
	sslittle-na-sstrix-gcc -Wall -O3 -funroll-loops -finline-functions  -DRANDOM_SIZE=131072 -DOFFSET=9 -DSORT=algorithm_n sorts/algorithm_n755688903.c simpleMain.c -o algorithm_n1263536549
	sim-cache -cache:dl1 dl1:256:32:1:l -cache:dl2 dl2:131072:32:1:l -cache:il1 il1:256:32:1:l -cache:il2 dl2 algorithm_n1263536549
	sim-cache -cache:dl1 dl1:256:32:1:l -cache:dl2 dl2:65536:32:1:l -cache:il1 il1:256:32:1:l -cache:il2 dl2 algorithm_n1263536549
	sim-cache -cache:dl1 dl1:1:32:256:l -cache:dl2 dl2:1:32:131072:l -cache:il1 il1:1:32:256:l -cache:il2 dl2 algorithm_n1263536549
	sim-cache -cache:dl1 dl1:1:32:256:l -cache:dl2 dl2:1:32:65536:l -cache:il1 il1:1:32:256:l -cache:il2 dl2 algorithm_n1263536549
	sim-bpred -bpred bimod -bpred:bimod 512 algorithm_n1263536549
	sim-bpred -bpred bimod -bpred:bimod 1024 algorithm_n1263536549
	sim-bpred -bpred bimod -bpred:bimod 2048 algorithm_n1263536549
	sim-bpred -bpred 2lev -bpred:2lev 1 512 10 1 algorithm_n1263536549
	sim-bpred -bpred 2lev -bpred:2lev 1 1024 10 1 algorithm_n1263536549
	sim-bpred -bpred 2lev -bpred:2lev 1 2048 10 1 algorithm_n1263536549
	sim-bpred -bpred 2lev -bpred:2lev 1 4096 10 1 algorithm_n1263536549
	sslittle-na-sstrix-gcc -Wall -O3 -funroll-loops -finline-functions  -DRANDOM_SIZE=262144 -DOFFSET=9 -DSORT=algorithm_n sorts/algorithm_n755688903.c simpleMain.c -o algorithm_n1263536549
	sim-cache -cache:dl1 dl1:256:32:1:l -cache:dl2 dl2:131072:32:1:l -cache:il1 il1:256:32:1:l -cache:il2 dl2 algorithm_n1263536549
	sim-cache -cache:dl1 dl1:256:32:1:l -cache:dl2 dl2:65536:32:1:l -cache:il1 il1:256:32:1:l -cache:il2 dl2 algorithm_n1263536549
	sim-cache -cache:dl1 dl1:1:32:256:l -cache:dl2 dl2:1:32:131072:l -cache:il1 il1:1:32:256:l -cache:il2 dl2 algorithm_n1263536549
	sim-cache -cache:dl1 dl1:1:32:256:l -cache:dl2 dl2:1:32:65536:l -cache:il1 il1:1:32:256:l -cache:il2 dl2 algorithm_n1263536549
	sim-bpred -bpred bimod -bpred:bimod 512 algorithm_n1263536549
	sim-bpred -bpred bimod -bpred:bimod 1024 algorithm_n1263536549
	sim-bpred -bpred bimod -bpred:bimod 2048 algorithm_n1263536549
	sim-bpred -bpred 2lev -bpred:2lev 1 512 10 1 algorithm_n1263536549
	sim-bpred -bpred 2lev -bpred:2lev 1 1024 10 1 algorithm_n1263536549
	sim-bpred -bpred 2lev -bpred:2lev 1 2048 10 1 algorithm_n1263536549
	sim-bpred -bpred 2lev -bpred:2lev 1 4096 10 1 algorithm_n1263536549
	sslittle-na-sstrix-gcc -Wall -O3 -funroll-loops -finline-functions  -DRANDOM_SIZE=524288 -DOFFSET=9 -DSORT=algorithm_n sorts/algorithm_n755688903.c simpleMain.c -o algorithm_n1263536549
	sim-cache -cache:dl1 dl1:256:32:1:l -cache:dl2 dl2:131072:32:1:l -cache:il1 il1:256:32:1:l -cache:il2 dl2 algorithm_n1263536549
	sim-cache -cache:dl1 dl1:256:32:1:l -cache:dl2 dl2:65536:32:1:l -cache:il1 il1:256:32:1:l -cache:il2 dl2 algorithm_n1263536549
	sim-cache -cache:dl1 dl1:1:32:256:l -cache:dl2 dl2:1:32:131072:l -cache:il1 il1:1:32:256:l -cache:il2 dl2 algorithm_n1263536549
	sim-cache -cache:dl1 dl1:1:32:256:l -cache:dl2 dl2:1:32:65536:l -cache:il1 il1:1:32:256:l -cache:il2 dl2 algorithm_n1263536549
	sim-bpred -bpred bimod -bpred:bimod 512 algorithm_n1263536549
	sim-bpred -bpred bimod -bpred:bimod 1024 algorithm_n1263536549
	sim-bpred -bpred bimod -bpred:bimod 2048 algorithm_n1263536549
	sim-bpred -bpred 2lev -bpred:2lev 1 512 10 1 algorithm_n1263536549
	sim-bpred -bpred 2lev -bpred:2lev 1 1024 10 1 algorithm_n1263536549
	sim-bpred -bpred 2lev -bpred:2lev 1 2048 10 1 algorithm_n1263536549
	sim-bpred -bpred 2lev -bpred:2lev 1 4096 10 1 algorithm_n1263536549
	sslittle-na-sstrix-gcc -Wall -O3 -funroll-loops -finline-functions  -DRANDOM_SIZE=1048576 -DOFFSET=9 -DSORT=algorithm_n sorts/algorithm_n755688903.c simpleMain.c -o algorithm_n1263536549
	sim-cache -cache:dl1 dl1:256:32:1:l -cache:dl2 dl2:131072:32:1:l -cache:il1 il1:256:32:1:l -cache:il2 dl2 algorithm_n1263536549
	sim-cache -cache:dl1 dl1:256:32:1:l -cache:dl2 dl2:65536:32:1:l -cache:il1 il1:256:32:1:l -cache:il2 dl2 algorithm_n1263536549
	sim-cache -cache:dl1 dl1:1:32:256:l -cache:dl2 dl2:1:32:131072:l -cache:il1 il1:1:32:256:l -cache:il2 dl2 algorithm_n1263536549
	sim-cache -cache:dl1 dl1:1:32:256:l -cache:dl2 dl2:1:32:65536:l -cache:il1 il1:1:32:256:l -cache:il2 dl2 algorithm_n1263536549
	sim-bpred -bpred bimod -bpred:bimod 512 algorithm_n1263536549
	sim-bpred -bpred bimod -bpred:bimod 1024 algorithm_n1263536549
	sim-bpred -bpred bimod -bpred:bimod 2048 algorithm_n1263536549
	sim-bpred -bpred 2lev -bpred:2lev 1 512 10 1 algorithm_n1263536549
	sim-bpred -bpred 2lev -bpred:2lev 1 1024 10 1 algorithm_n1263536549
	sim-bpred -bpred 2lev -bpred:2lev 1 2048 10 1 algorithm_n1263536549
	sim-bpred -bpred 2lev -bpred:2lev 1 4096 10 1 algorithm_n1263536549
	sslittle-na-sstrix-gcc -Wall -O3 -funroll-loops -finline-functions  -DRANDOM_SIZE=2097152 -DOFFSET=9 -DSORT=algorithm_n sorts/algorithm_n755688903.c simpleMain.c -o algorithm_n1263536549
	sim-cache -cache:dl1 dl1:256:32:1:l -cache:dl2 dl2:131072:32:1:l -cache:il1 il1:256:32:1:l -cache:il2 dl2 algorithm_n1263536549
	sim-cache -cache:dl1 dl1:256:32:1:l -cache:dl2 dl2:65536:32:1:l -cache:il1 il1:256:32:1:l -cache:il2 dl2 algorithm_n1263536549
	sim-cache -cache:dl1 dl1:1:32:256:l -cache:dl2 dl2:1:32:131072:l -cache:il1 il1:1:32:256:l -cache:il2 dl2 algorithm_n1263536549
	sim-cache -cache:dl1 dl1:1:32:256:l -cache:dl2 dl2:1:32:65536:l -cache:il1 il1:1:32:256:l -cache:il2 dl2 algorithm_n1263536549
	sim-bpred -bpred bimod -bpred:bimod 512 algorithm_n1263536549
	sim-bpred -bpred bimod -bpred:bimod 1024 algorithm_n1263536549
	sim-bpred -bpred bimod -bpred:bimod 2048 algorithm_n1263536549
	sim-bpred -bpred 2lev -bpred:2lev 1 512 10 1 algorithm_n1263536549
	sim-bpred -bpred 2lev -bpred:2lev 1 1024 10 1 algorithm_n1263536549
	sim-bpred -bpred 2lev -bpred:2lev 1 2048 10 1 algorithm_n1263536549
	sim-bpred -bpred 2lev -bpred:2lev 1 4096 10 1 algorithm_n1263536549
	sslittle-na-sstrix-gcc -Wall -O3 -funroll-loops -finline-functions  -DRANDOM_SIZE=4194304 -DOFFSET=9 -DSORT=algorithm_n sorts/algorithm_n755688903.c simpleMain.c -o algorithm_n1263536549
	sim-cache -cache:dl1 dl1:256:32:1:l -cache:dl2 dl2:131072:32:1:l -cache:il1 il1:256:32:1:l -cache:il2 dl2 algorithm_n1263536549
	sim-cache -cache:dl1 dl1:256:32:1:l -cache:dl2 dl2:65536:32:1:l -cache:il1 il1:256:32:1:l -cache:il2 dl2 algorithm_n1263536549
	sim-cache -cache:dl1 dl1:1:32:256:l -cache:dl2 dl2:1:32:131072:l -cache:il1 il1:1:32:256:l -cache:il2 dl2 algorithm_n1263536549
	sim-cache -cache:dl1 dl1:1:32:256:l -cache:dl2 dl2:1:32:65536:l -cache:il1 il1:1:32:256:l -cache:il2 dl2 algorithm_n1263536549
	sim-bpred -bpred bimod -bpred:bimod 512 algorithm_n1263536549
	sim-bpred -bpred bimod -bpred:bimod 1024 algorithm_n1263536549
	sim-bpred -bpred bimod -bpred:bimod 2048 algorithm_n1263536549
	sim-bpred -bpred 2lev -bpred:2lev 1 512 10 1 algorithm_n1263536549
	sim-bpred -bpred 2lev -bpred:2lev 1 1024 10 1 algorithm_n1263536549
	sim-bpred -bpred 2lev -bpred:2lev 1 2048 10 1 algorithm_n1263536549
	sim-bpred -bpred 2lev -bpred:2lev 1 4096 10 1 algorithm_n1263536549
