Wed Jul  6 17:31:34 2005
Run as: "./do_simple -c random.org4 -o 4 algorithm_s"
-------------------------------------------------------------------------------------------------
sim-cache                                     4096 |         4096 |         4096 |         4096 |         8192 |         8192 |         8192 |         8192 |        16384 |        16384 |        16384 |        16384 |        32768 |        32768 |        32768 |        32768 |        65536 |        65536 |        65536 |        65536 |       131072 |       131072 |       131072 |       131072 |       262144 |       262144 |       262144 |       262144 |       524288 |       524288 |       524288 |       524288 |      1048576 |      1048576 |      1048576 |      1048576 |      2097152 |      2097152 |      2097152 |      2097152 |      4194304 |      4194304 |      4194304 |      4194304 |
-cache:dl1 dl1:256:32:1:l -cache:dl2 dl2:131072:32:1:l -cache:il1 il1:256:32:1:l -cache:il2 dl2
-cache:dl1 dl1:256:32:1:l -cache:dl2 dl2:65536:32:1:l -cache:il1 il1:256:32:1:l -cache:il2 dl2
-cache:dl1 dl1:1:32:256:l -cache:dl2 dl2:1:32:131072:l -cache:il1 il1:1:32:256:l -cache:il2 dl2
-cache:dl1 dl1:1:32:256:l -cache:dl2 dl2:1:32:65536:l -cache:il1 il1:1:32:256:l -cache:il2 dl2
-------------------------------------------------------------------------------------------------
sim_num_insn                                766374 |       766374 |       766374 |       766374 |      1669688 |      1669688 |      1669688 |      1669688 |      3536869 |      3536869 |      3536869 |      3536869 |      7640014 |      7640014 |      7640014 |      7640014 |     16092823 |     16092823 |     16092823 |     16092823 |     34472567 |     34472567 |     34472567 |     34472567 |     72213888 |     72213888 |     72213888 |     72213888 |    153592227 |    153592227 |    153592227 |    153592227 |    320298421 |    320298421 |    320298421 |    320298421 |    677286802 |    677286802 |    677286802 |    677286802 |   1406995249 |   1406995249 |   1406995249 |   1406995249 |
sim_num_refs                                146077 |       146077 |       146077 |       146077 |       329412 |       329412 |       329412 |       329412 |       671268 |       671268 |       671268 |       671268 |      1502469 |      1502469 |      1502469 |      1502469 |      3066845 |      3066845 |      3066845 |      3066845 |      6785199 |      6785199 |      6785199 |      6785199 |     13828472 |     13828472 |     13828472 |     13828472 |     30273580 |     30273580 |     30273580 |     30273580 |     61601709 |     61601709 |     61601709 |     61601709 |    133682034 |    133682034 |    133682034 |    133682034 |    271552419 |    271552419 |    271552419 |    271552419 |
sim_elapsed_time                                 1 |            1 |            9 |            5 |            1 |            1 |           14 |            7 |            1 |            1 |           25 |           13 |            2 |            2 |           47 |           24 |            4 |            4 |           88 |           43 |            9 |            9 |          159 |           73 |           18 |           18 |          273 |          104 |           39 |           39 |          378 |          129 |           82 |           82 |          426 |          176 |          174 |          175 |          542 |          287 |          354 |          357 |          751 |          499 |
sim_inst_rate                          766374.0000 |  766374.0000 |   85152.6667 |  153274.8000 | 1669688.0000 | 1669688.0000 |  119263.4286 |  238526.8571 | 3536869.0000 | 3536869.0000 |  141474.7600 |  272066.8462 | 3820007.0000 | 3820007.0000 |  162553.4894 |  318333.9167 | 4023205.7500 | 4023205.7500 |  182872.9886 |  374251.6977 | 3830285.2222 | 3830285.2222 |  216808.5975 |  472226.9452 | 4011882.6667 | 4011882.6667 |  264519.7363 |  694364.3077 | 3938262.2308 | 3938262.2308 |  406328.6429 | 1190637.4186 | 3906078.3049 | 3906078.3049 |  751874.2277 | 1819877.3920 | 3892452.8851 | 3870210.2971 | 1249606.6458 | 2359884.3275 | 3974562.8503 | 3941163.1625 | 1873495.6711 | 2819629.7575 |
il1.accesses                                766374 |       766374 |       766374 |       766374 |      1669688 |      1669688 |      1669688 |      1669688 |      3536869 |      3536869 |      3536869 |      3536869 |      7640014 |      7640014 |      7640014 |      7640014 |     16092823 |     16092823 |     16092823 |     16092823 |     34472567 |     34472567 |     34472567 |     34472567 |     72213888 |     72213888 |     72213888 |     72213888 |    153592227 |    153592227 |    153592227 |    153592227 |    320298421 |    320298421 |    320298421 |    320298421 |    677286802 |    677286802 |    677286802 |    677286802 |   1406995249 |   1406995249 |   1406995249 |   1406995249 |
il1.hits                                    765967 |       765967 |       766032 |       766032 |      1669224 |      1669224 |      1669333 |      1669333 |      3536435 |      3536435 |      3536532 |      3536532 |      7639547 |      7639547 |      7639657 |      7639657 |     16092379 |     16092379 |     16092489 |     16092489 |     34472101 |     34472101 |     34472210 |     34472210 |     72213445 |     72213445 |     72213554 |     72213554 |    153591761 |    153591761 |    153591870 |    153591870 |    320297954 |    320297954 |    320298031 |    320298031 |    677286328 |    677286328 |    677286408 |    677286408 |   1406994782 |   1406994782 |   1406994859 |   1406994859 |
il1.misses                                     407 |          407 |          342 |          342 |          464 |          464 |          355 |          355 |          434 |          434 |          337 |          337 |          467 |          467 |          357 |          357 |          444 |          444 |          334 |          334 |          466 |          466 |          357 |          357 |          443 |          443 |          334 |          334 |          466 |          466 |          357 |          357 |          467 |          467 |          390 |          390 |          474 |          474 |          394 |          394 |          467 |          467 |          390 |          390 |
il1.replacements                               221 |          221 |           86 |           86 |          263 |          263 |           99 |           99 |          249 |          249 |           81 |           81 |          266 |          266 |          101 |          101 |          262 |          262 |           78 |           78 |          265 |          265 |          101 |          101 |          261 |          261 |           78 |           78 |          265 |          265 |          101 |          101 |          249 |          249 |          134 |          134 |          256 |          256 |          138 |          138 |          249 |          249 |          134 |          134 |
il1.writebacks                                   0 |            0 |            0 |            0 |            0 |            0 |            0 |            0 |            0 |            0 |            0 |            0 |            0 |            0 |            0 |            0 |            0 |            0 |            0 |            0 |            0 |            0 |            0 |            0 |            0 |            0 |            0 |            0 |            0 |            0 |            0 |            0 |            0 |            0 |            0 |            0 |            0 |            0 |            0 |            0 |            0 |            0 |            0 |            0 |
il1.invalidations                                0 |            0 |            0 |            0 |            0 |            0 |            0 |            0 |            0 |            0 |            0 |            0 |            0 |            0 |            0 |            0 |            0 |            0 |            0 |            0 |            0 |            0 |            0 |            0 |            0 |            0 |            0 |            0 |            0 |            0 |            0 |            0 |            0 |            0 |            0 |            0 |            0 |            0 |            0 |            0 |            0 |            0 |            0 |            0 |
il1.miss_rate                               0.0005 |       0.0005 |       0.0004 |       0.0004 |       0.0003 |       0.0003 |       0.0002 |       0.0002 |       0.0001 |       0.0001 |       0.0001 |       0.0001 |       0.0001 |       0.0001 |       0.0000 |       0.0000 |       0.0000 |       0.0000 |       0.0000 |       0.0000 |       0.0000 |       0.0000 |       0.0000 |       0.0000 |       0.0000 |       0.0000 |       0.0000 |       0.0000 |       0.0000 |       0.0000 |       0.0000 |       0.0000 |       0.0000 |       0.0000 |       0.0000 |       0.0000 |       0.0000 |       0.0000 |       0.0000 |       0.0000 |       0.0000 |       0.0000 |       0.0000 |       0.0000 |
il1.repl_rate                               0.0003 |       0.0003 |       0.0001 |       0.0001 |       0.0002 |       0.0002 |       0.0001 |       0.0001 |       0.0001 |       0.0001 |       0.0000 |       0.0000 |       0.0000 |       0.0000 |       0.0000 |       0.0000 |       0.0000 |       0.0000 |       0.0000 |       0.0000 |       0.0000 |       0.0000 |       0.0000 |       0.0000 |       0.0000 |       0.0000 |       0.0000 |       0.0000 |       0.0000 |       0.0000 |       0.0000 |       0.0000 |       0.0000 |       0.0000 |       0.0000 |       0.0000 |       0.0000 |       0.0000 |       0.0000 |       0.0000 |       0.0000 |       0.0000 |       0.0000 |       0.0000 |
il1.wb_rate                                 0.0000 |       0.0000 |       0.0000 |       0.0000 |       0.0000 |       0.0000 |       0.0000 |       0.0000 |       0.0000 |       0.0000 |       0.0000 |       0.0000 |       0.0000 |       0.0000 |       0.0000 |       0.0000 |       0.0000 |       0.0000 |       0.0000 |       0.0000 |       0.0000 |       0.0000 |       0.0000 |       0.0000 |       0.0000 |       0.0000 |       0.0000 |       0.0000 |       0.0000 |       0.0000 |       0.0000 |       0.0000 |       0.0000 |       0.0000 |       0.0000 |       0.0000 |       0.0000 |       0.0000 |       0.0000 |       0.0000 |       0.0000 |       0.0000 |       0.0000 |       0.0000 |
il1.inv_rate                                0.0000 |       0.0000 |       0.0000 |       0.0000 |       0.0000 |       0.0000 |       0.0000 |       0.0000 |       0.0000 |       0.0000 |       0.0000 |       0.0000 |       0.0000 |       0.0000 |       0.0000 |       0.0000 |       0.0000 |       0.0000 |       0.0000 |       0.0000 |       0.0000 |       0.0000 |       0.0000 |       0.0000 |       0.0000 |       0.0000 |       0.0000 |       0.0000 |       0.0000 |       0.0000 |       0.0000 |       0.0000 |       0.0000 |       0.0000 |       0.0000 |       0.0000 |       0.0000 |       0.0000 |       0.0000 |       0.0000 |       0.0000 |       0.0000 |       0.0000 |       0.0000 |
dl1.accesses                                162543 |       162543 |       162543 |       162543 |       362262 |       362262 |       362262 |       362262 |       736886 |       736886 |       736886 |       736886 |      1633623 |      1633623 |      1633623 |      1633623 |      3329071 |      3329071 |      3329071 |      3329071 |      7309569 |      7309569 |      7309569 |      7309569 |     14877130 |     14877130 |     14877130 |     14877130 |     32370814 |     32370814 |     32370814 |     32370814 |     65796095 |     65796095 |     65796095 |     65796095 |    142070724 |    142070724 |    142070724 |    142070724 |    288329717 |    288329717 |    288329717 |    288329717 |
dl1.hits                                    148687 |       148687 |       149281 |       149281 |       330615 |       330615 |       332092 |       332092 |       673733 |       673733 |       677013 |       677013 |      1490720 |      1490720 |      1497948 |      1497948 |      3042497 |      3042497 |      3058189 |      3058189 |      6668302 |      6668302 |      6702725 |      6702725 |     13590186 |     13590186 |     13663911 |     13663911 |     29522578 |     29522578 |     29682689 |     29682689 |     60075948 |     60075948 |     60419156 |     60419156 |    129540843 |    129540843 |    130269119 |    130269119 |    263177332 |    263177332 |    264727369 |    264727369 |
dl1.misses                                   13856 |        13856 |        13262 |        13262 |        31647 |        31647 |        30170 |        30170 |        63153 |        63153 |        59873 |        59873 |       142903 |       142903 |       135675 |       135675 |       286574 |       286574 |       270882 |       270882 |       641267 |       641267 |       606844 |       606844 |      1286944 |      1286944 |      1213219 |      1213219 |      2848236 |      2848236 |      2688125 |      2688125 |      5720147 |      5720147 |      5376939 |      5376939 |     12529881 |     12529881 |     11801605 |     11801605 |     25152385 |     25152385 |     23602348 |     23602348 |
dl1.replacements                             13600 |        13600 |        13006 |        13006 |        31391 |        31391 |        29914 |        29914 |        62897 |        62897 |        59617 |        59617 |       142647 |       142647 |       135419 |       135419 |       286318 |       286318 |       270626 |       270626 |       641011 |       641011 |       606588 |       606588 |      1286688 |      1286688 |      1212963 |      1212963 |      2847980 |      2847980 |      2687869 |      2687869 |      5719891 |      5719891 |      5376683 |      5376683 |     12529625 |     12529625 |     11801349 |     11801349 |     25152129 |     25152129 |     23602092 |     23602092 |
dl1.writebacks                                7237 |         7237 |         6961 |         6961 |        16264 |        16264 |        15674 |        15674 |        32326 |        32326 |        31042 |        31042 |        72633 |        72633 |        69978 |        69978 |       145482 |       145482 |       139650 |       139650 |       324264 |       324264 |       311770 |       311770 |       649807 |       649807 |       623234 |       623234 |      1433897 |      1433897 |      1377242 |      1377242 |      2876244 |      2876244 |      2754950 |      2754950 |      6289275 |      6289275 |      6033886 |      6033886 |     12607980 |     12607980 |     12067463 |     12067463 |
dl1.invalidations                                0 |            0 |            0 |            0 |            0 |            0 |            0 |            0 |            0 |            0 |            0 |            0 |            0 |            0 |            0 |            0 |            0 |            0 |            0 |            0 |            0 |            0 |            0 |            0 |            0 |            0 |            0 |            0 |            0 |            0 |            0 |            0 |            0 |            0 |            0 |            0 |            0 |            0 |            0 |            0 |            0 |            0 |            0 |            0 |
dl1.miss_rate                               0.0852 |       0.0852 |       0.0816 |       0.0816 |       0.0874 |       0.0874 |       0.0833 |       0.0833 |       0.0857 |       0.0857 |       0.0813 |       0.0813 |       0.0875 |       0.0875 |       0.0831 |       0.0831 |       0.0861 |       0.0861 |       0.0814 |       0.0814 |       0.0877 |       0.0877 |       0.0830 |       0.0830 |       0.0865 |       0.0865 |       0.0815 |       0.0815 |       0.0880 |       0.0880 |       0.0830 |       0.0830 |       0.0869 |       0.0869 |       0.0817 |       0.0817 |       0.0882 |       0.0882 |       0.0831 |       0.0831 |       0.0872 |       0.0872 |       0.0819 |       0.0819 |
dl1.repl_rate                               0.0837 |       0.0837 |       0.0800 |       0.0800 |       0.0867 |       0.0867 |       0.0826 |       0.0826 |       0.0854 |       0.0854 |       0.0809 |       0.0809 |       0.0873 |       0.0873 |       0.0829 |       0.0829 |       0.0860 |       0.0860 |       0.0813 |       0.0813 |       0.0877 |       0.0877 |       0.0830 |       0.0830 |       0.0865 |       0.0865 |       0.0815 |       0.0815 |       0.0880 |       0.0880 |       0.0830 |       0.0830 |       0.0869 |       0.0869 |       0.0817 |       0.0817 |       0.0882 |       0.0882 |       0.0831 |       0.0831 |       0.0872 |       0.0872 |       0.0819 |       0.0819 |
dl1.wb_rate                                 0.0445 |       0.0445 |       0.0428 |       0.0428 |       0.0449 |       0.0449 |       0.0433 |       0.0433 |       0.0439 |       0.0439 |       0.0421 |       0.0421 |       0.0445 |       0.0445 |       0.0428 |       0.0428 |       0.0437 |       0.0437 |       0.0419 |       0.0419 |       0.0444 |       0.0444 |       0.0427 |       0.0427 |       0.0437 |       0.0437 |       0.0419 |       0.0419 |       0.0443 |       0.0443 |       0.0425 |       0.0425 |       0.0437 |       0.0437 |       0.0419 |       0.0419 |       0.0443 |       0.0443 |       0.0425 |       0.0425 |       0.0437 |       0.0437 |       0.0419 |       0.0419 |
dl1.inv_rate                                0.0000 |       0.0000 |       0.0000 |       0.0000 |       0.0000 |       0.0000 |       0.0000 |       0.0000 |       0.0000 |       0.0000 |       0.0000 |       0.0000 |       0.0000 |       0.0000 |       0.0000 |       0.0000 |       0.0000 |       0.0000 |       0.0000 |       0.0000 |       0.0000 |       0.0000 |       0.0000 |       0.0000 |       0.0000 |       0.0000 |       0.0000 |       0.0000 |       0.0000 |       0.0000 |       0.0000 |       0.0000 |       0.0000 |       0.0000 |       0.0000 |       0.0000 |       0.0000 |       0.0000 |       0.0000 |       0.0000 |       0.0000 |       0.0000 |       0.0000 |       0.0000 |
dl2.accesses                                 21500 |        21500 |        20565 |        20565 |        48375 |        48375 |        46199 |        46199 |        95913 |        95913 |        91252 |        91252 |       216003 |       216003 |       206010 |       206010 |       432500 |       432500 |       410866 |       410866 |       965997 |       965997 |       918971 |       918971 |      1937194 |      1937194 |      1836787 |      1836787 |      4282599 |      4282599 |      4065724 |      4065724 |      8596858 |      8596858 |      8132279 |      8132279 |     18819630 |     18819630 |     17835885 |     17835885 |     37760832 |     37760832 |     35670201 |     35670201 |
dl2.hits                                     19705 |        19705 |        18788 |        18788 |        45534 |        45534 |        43384 |        43384 |        91038 |        91038 |        86407 |        86407 |       207015 |       207015 |       197049 |       197049 |       415344 |       415344 |       393737 |       393737 |       932433 |       932433 |       885434 |       885434 |      1870885 |      1815835 |      1770506 |      1472205 |      4089578 |      1843521 |      3310268 |      1394248 |      3790101 |      3260371 |      2789211 |      2772763 |      7105147 |      7049520 |      6069255 |      6052871 |     14224144 |     14189085 |     12105176 |     12088792 |
dl2.misses                                    1795 |         1795 |         1777 |         1777 |         2841 |         2841 |         2815 |         2815 |         4875 |         4875 |         4845 |         4845 |         8988 |         8988 |         8961 |         8961 |        17156 |        17156 |        17129 |        17129 |        33564 |        33564 |        33537 |        33537 |        66309 |       121359 |        66281 |       364582 |       193021 |      2439078 |       755456 |      2671476 |      4806757 |      5336487 |      5343068 |      5359516 |     11714483 |     11770110 |     11766630 |     11783014 |     23536688 |     23571747 |     23565025 |     23581409 |
dl2.replacements                               183 |          183 |            0 |            0 |          211 |          211 |            0 |            0 |          230 |          230 |            0 |            0 |          233 |          233 |            0 |            0 |          224 |          224 |            0 |            0 |          233 |          233 |            0 |            0 |          225 |        56946 |            0 |       299046 |        63057 |      2373542 |       624384 |      2605940 |      4675685 |      5270951 |      5211996 |      5293980 |     11583411 |     11704574 |     11635558 |     11717478 |     23405616 |     23506211 |     23433953 |     23515873 |
dl2.writebacks                                 112 |          112 |            0 |            0 |          136 |          136 |            0 |            0 |          151 |          151 |            0 |            0 |          155 |          155 |            0 |            0 |          146 |          146 |            0 |            0 |          155 |          155 |            0 |            0 |          146 |        31326 |            0 |       298504 |        35228 |      1313193 |       623823 |      1343940 |      2709495 |      2711735 |      2688185 |      2720953 |      5902917 |      5968812 |      5965758 |      5998526 |     11977766 |     12022269 |     11996605 |     12029373 |
dl2.invalidations                                0 |            0 |            0 |            0 |            0 |            0 |            0 |            0 |            0 |            0 |            0 |            0 |            0 |            0 |            0 |            0 |            0 |            0 |            0 |            0 |            0 |            0 |            0 |            0 |            0 |            0 |            0 |            0 |            0 |            0 |            0 |            0 |            0 |            0 |            0 |            0 |            0 |            0 |            0 |            0 |            0 |            0 |            0 |            0 |
dl2.miss_rate                               0.0835 |       0.0835 |       0.0864 |       0.0864 |       0.0587 |       0.0587 |       0.0609 |       0.0609 |       0.0508 |       0.0508 |       0.0531 |       0.0531 |       0.0416 |       0.0416 |       0.0435 |       0.0435 |       0.0397 |       0.0397 |       0.0417 |       0.0417 |       0.0347 |       0.0347 |       0.0365 |       0.0365 |       0.0342 |       0.0626 |       0.0361 |       0.1985 |       0.0451 |       0.5695 |       0.1858 |       0.6571 |       0.5591 |       0.6207 |       0.6570 |       0.6590 |       0.6225 |       0.6254 |       0.6597 |       0.6606 |       0.6233 |       0.6242 |       0.6606 |       0.6611 |
dl2.repl_rate                               0.0085 |       0.0085 |       0.0000 |       0.0000 |       0.0044 |       0.0044 |       0.0000 |       0.0000 |       0.0024 |       0.0024 |       0.0000 |       0.0000 |       0.0011 |       0.0011 |       0.0000 |       0.0000 |       0.0005 |       0.0005 |       0.0000 |       0.0000 |       0.0002 |       0.0002 |       0.0000 |       0.0000 |       0.0001 |       0.0294 |       0.0000 |       0.1628 |       0.0147 |       0.5542 |       0.1536 |       0.6410 |       0.5439 |       0.6131 |       0.6409 |       0.6510 |       0.6155 |       0.6219 |       0.6524 |       0.6570 |       0.6198 |       0.6225 |       0.6570 |       0.6593 |
dl2.wb_rate                                 0.0052 |       0.0052 |       0.0000 |       0.0000 |       0.0028 |       0.0028 |       0.0000 |       0.0000 |       0.0016 |       0.0016 |       0.0000 |       0.0000 |       0.0007 |       0.0007 |       0.0000 |       0.0000 |       0.0003 |       0.0003 |       0.0000 |       0.0000 |       0.0002 |       0.0002 |       0.0000 |       0.0000 |       0.0001 |       0.0162 |       0.0000 |       0.1625 |       0.0082 |       0.3066 |       0.1534 |       0.3306 |       0.3152 |       0.3154 |       0.3306 |       0.3346 |       0.3137 |       0.3172 |       0.3345 |       0.3363 |       0.3172 |       0.3184 |       0.3363 |       0.3372 |
dl2.inv_rate                                0.0000 |       0.0000 |       0.0000 |       0.0000 |       0.0000 |       0.0000 |       0.0000 |       0.0000 |       0.0000 |       0.0000 |       0.0000 |       0.0000 |       0.0000 |       0.0000 |       0.0000 |       0.0000 |       0.0000 |       0.0000 |       0.0000 |       0.0000 |       0.0000 |       0.0000 |       0.0000 |       0.0000 |       0.0000 |       0.0000 |       0.0000 |       0.0000 |       0.0000 |       0.0000 |       0.0000 |       0.0000 |       0.0000 |       0.0000 |       0.0000 |       0.0000 |       0.0000 |       0.0000 |       0.0000 |       0.0000 |       0.0000 |       0.0000 |       0.0000 |       0.0000 |
itlb.accesses                               766374 |       766374 |       766374 |       766374 |      1669688 |      1669688 |      1669688 |      1669688 |      3536869 |      3536869 |      3536869 |      3536869 |      7640014 |      7640014 |      7640014 |      7640014 |     16092823 |     16092823 |     16092823 |     16092823 |     34472567 |     34472567 |     34472567 |     34472567 |     72213888 |     72213888 |     72213888 |     72213888 |    153592227 |    153592227 |    153592227 |    153592227 |    320298421 |    320298421 |    320298421 |    320298421 |    677286802 |    677286802 |    677286802 |    677286802 |   1406995249 |   1406995249 |   1406995249 |   1406995249 |
itlb.hits                                   766365 |       766365 |       766365 |       766365 |      1669679 |      1669679 |      1669679 |      1669679 |      3536860 |      3536860 |      3536860 |      3536860 |      7640005 |      7640005 |      7640005 |      7640005 |     16092814 |     16092814 |     16092814 |     16092814 |     34472558 |     34472558 |     34472558 |     34472558 |     72213879 |     72213879 |     72213879 |     72213879 |    153592218 |    153592218 |    153592218 |    153592218 |    320298412 |    320298412 |    320298412 |    320298412 |    677286793 |    677286793 |    677286793 |    677286793 |   1406995240 |   1406995240 |   1406995240 |   1406995240 |
itlb.misses                                      9 |            9 |            9 |            9 |            9 |            9 |            9 |            9 |            9 |            9 |            9 |            9 |            9 |            9 |            9 |            9 |            9 |            9 |            9 |            9 |            9 |            9 |            9 |            9 |            9 |            9 |            9 |            9 |            9 |            9 |            9 |            9 |            9 |            9 |            9 |            9 |            9 |            9 |            9 |            9 |            9 |            9 |            9 |            9 |
itlb.replacements                                0 |            0 |            0 |            0 |            0 |            0 |            0 |            0 |            0 |            0 |            0 |            0 |            0 |            0 |            0 |            0 |            0 |            0 |            0 |            0 |            0 |            0 |            0 |            0 |            0 |            0 |            0 |            0 |            0 |            0 |            0 |            0 |            0 |            0 |            0 |            0 |            0 |            0 |            0 |            0 |            0 |            0 |            0 |            0 |
itlb.writebacks                                  0 |            0 |            0 |            0 |            0 |            0 |            0 |            0 |            0 |            0 |            0 |            0 |            0 |            0 |            0 |            0 |            0 |            0 |            0 |            0 |            0 |            0 |            0 |            0 |            0 |            0 |            0 |            0 |            0 |            0 |            0 |            0 |            0 |            0 |            0 |            0 |            0 |            0 |            0 |            0 |            0 |            0 |            0 |            0 |
itlb.invalidations                               0 |            0 |            0 |            0 |            0 |            0 |            0 |            0 |            0 |            0 |            0 |            0 |            0 |            0 |            0 |            0 |            0 |            0 |            0 |            0 |            0 |            0 |            0 |            0 |            0 |            0 |            0 |            0 |            0 |            0 |            0 |            0 |            0 |            0 |            0 |            0 |            0 |            0 |            0 |            0 |            0 |            0 |            0 |            0 |
itlb.miss_rate                              0.0000 |       0.0000 |       0.0000 |       0.0000 |       0.0000 |       0.0000 |       0.0000 |       0.0000 |       0.0000 |       0.0000 |       0.0000 |       0.0000 |       0.0000 |       0.0000 |       0.0000 |       0.0000 |       0.0000 |       0.0000 |       0.0000 |       0.0000 |       0.0000 |       0.0000 |       0.0000 |       0.0000 |       0.0000 |       0.0000 |       0.0000 |       0.0000 |       0.0000 |       0.0000 |       0.0000 |       0.0000 |       0.0000 |       0.0000 |       0.0000 |       0.0000 |       0.0000 |       0.0000 |       0.0000 |       0.0000 |       0.0000 |       0.0000 |       0.0000 |       0.0000 |
itlb.repl_rate                              0.0000 |       0.0000 |       0.0000 |       0.0000 |       0.0000 |       0.0000 |       0.0000 |       0.0000 |       0.0000 |       0.0000 |       0.0000 |       0.0000 |       0.0000 |       0.0000 |       0.0000 |       0.0000 |       0.0000 |       0.0000 |       0.0000 |       0.0000 |       0.0000 |       0.0000 |       0.0000 |       0.0000 |       0.0000 |       0.0000 |       0.0000 |       0.0000 |       0.0000 |       0.0000 |       0.0000 |       0.0000 |       0.0000 |       0.0000 |       0.0000 |       0.0000 |       0.0000 |       0.0000 |       0.0000 |       0.0000 |       0.0000 |       0.0000 |       0.0000 |       0.0000 |
itlb.wb_rate                                0.0000 |       0.0000 |       0.0000 |       0.0000 |       0.0000 |       0.0000 |       0.0000 |       0.0000 |       0.0000 |       0.0000 |       0.0000 |       0.0000 |       0.0000 |       0.0000 |       0.0000 |       0.0000 |       0.0000 |       0.0000 |       0.0000 |       0.0000 |       0.0000 |       0.0000 |       0.0000 |       0.0000 |       0.0000 |       0.0000 |       0.0000 |       0.0000 |       0.0000 |       0.0000 |       0.0000 |       0.0000 |       0.0000 |       0.0000 |       0.0000 |       0.0000 |       0.0000 |       0.0000 |       0.0000 |       0.0000 |       0.0000 |       0.0000 |       0.0000 |       0.0000 |
itlb.inv_rate                               0.0000 |       0.0000 |       0.0000 |       0.0000 |       0.0000 |       0.0000 |       0.0000 |       0.0000 |       0.0000 |       0.0000 |       0.0000 |       0.0000 |       0.0000 |       0.0000 |       0.0000 |       0.0000 |       0.0000 |       0.0000 |       0.0000 |       0.0000 |       0.0000 |       0.0000 |       0.0000 |       0.0000 |       0.0000 |       0.0000 |       0.0000 |       0.0000 |       0.0000 |       0.0000 |       0.0000 |       0.0000 |       0.0000 |       0.0000 |       0.0000 |       0.0000 |       0.0000 |       0.0000 |       0.0000 |       0.0000 |       0.0000 |       0.0000 |       0.0000 |       0.0000 |
dtlb.accesses                               162543 |       162543 |       162543 |       162543 |       362262 |       362262 |       362262 |       362262 |       736886 |       736886 |       736886 |       736886 |      1633623 |      1633623 |      1633623 |      1633623 |      3329071 |      3329071 |      3329071 |      3329071 |      7309569 |      7309569 |      7309569 |      7309569 |     14877130 |     14877130 |     14877130 |     14877130 |     32370814 |     32370814 |     32370814 |     32370814 |     65796095 |     65796095 |     65796095 |     65796095 |    142070724 |    142070724 |    142070724 |    142070724 |    288329717 |    288329717 |    288329717 |    288329717 |
dtlb.hits                                   162528 |       162528 |       162528 |       162528 |       362239 |       362239 |       362239 |       362239 |       736847 |       736847 |       736847 |       736847 |      1633552 |      1633552 |      1633552 |      1633552 |      3328860 |      3328860 |      3328860 |      3328860 |      7304878 |      7304878 |      7304878 |      7304878 |     14867656 |     14867656 |     14867656 |     14867656 |     32349811 |     32349811 |     32349811 |     32349811 |     65754085 |     65754085 |     65754085 |     65754085 |    141978508 |    141978508 |    141978508 |    141978508 |    288145283 |    288145283 |    288145283 |    288145283 |
dtlb.misses                                     15 |           15 |           15 |           15 |           23 |           23 |           23 |           23 |           39 |           39 |           39 |           39 |           71 |           71 |           71 |           71 |          211 |          211 |          211 |          211 |         4691 |         4691 |         4691 |         4691 |         9474 |         9474 |         9474 |         9474 |        21003 |        21003 |        21003 |        21003 |        42010 |        42010 |        42010 |        42010 |        92216 |        92216 |        92216 |        92216 |       184434 |       184434 |       184434 |       184434 |
dtlb.replacements                                0 |            0 |            0 |            0 |            0 |            0 |            0 |            0 |            0 |            0 |            0 |            0 |            0 |            0 |            0 |            0 |           83 |           83 |           83 |           83 |         4563 |         4563 |         4563 |         4563 |         9346 |         9346 |         9346 |         9346 |        20875 |        20875 |        20875 |        20875 |        41882 |        41882 |        41882 |        41882 |        92088 |        92088 |        92088 |        92088 |       184306 |       184306 |       184306 |       184306 |
dtlb.writebacks                                  0 |            0 |            0 |            0 |            0 |            0 |            0 |            0 |            0 |            0 |            0 |            0 |            0 |            0 |            0 |            0 |           47 |           47 |           47 |           47 |         2389 |         2389 |         2389 |         2389 |         4821 |         4821 |         4821 |         4821 |        10718 |        10718 |        10718 |        10718 |        21483 |        21483 |        21483 |        21483 |        47112 |        47112 |        47112 |        47112 |        94269 |        94269 |        94269 |        94269 |
dtlb.invalidations                               0 |            0 |            0 |            0 |            0 |            0 |            0 |            0 |            0 |            0 |            0 |            0 |            0 |            0 |            0 |            0 |            0 |            0 |            0 |            0 |            0 |            0 |            0 |            0 |            0 |            0 |            0 |            0 |            0 |            0 |            0 |            0 |            0 |            0 |            0 |            0 |            0 |            0 |            0 |            0 |            0 |            0 |            0 |            0 |
dtlb.miss_rate                              0.0001 |       0.0001 |       0.0001 |       0.0001 |       0.0001 |       0.0001 |       0.0001 |       0.0001 |       0.0001 |       0.0001 |       0.0001 |       0.0001 |       0.0000 |       0.0000 |       0.0000 |       0.0000 |       0.0001 |       0.0001 |       0.0001 |       0.0001 |       0.0006 |       0.0006 |       0.0006 |       0.0006 |       0.0006 |       0.0006 |       0.0006 |       0.0006 |       0.0006 |       0.0006 |       0.0006 |       0.0006 |       0.0006 |       0.0006 |       0.0006 |       0.0006 |       0.0006 |       0.0006 |       0.0006 |       0.0006 |       0.0006 |       0.0006 |       0.0006 |       0.0006 |
dtlb.repl_rate                              0.0000 |       0.0000 |       0.0000 |       0.0000 |       0.0000 |       0.0000 |       0.0000 |       0.0000 |       0.0000 |       0.0000 |       0.0000 |       0.0000 |       0.0000 |       0.0000 |       0.0000 |       0.0000 |       0.0000 |       0.0000 |       0.0000 |       0.0000 |       0.0006 |       0.0006 |       0.0006 |       0.0006 |       0.0006 |       0.0006 |       0.0006 |       0.0006 |       0.0006 |       0.0006 |       0.0006 |       0.0006 |       0.0006 |       0.0006 |       0.0006 |       0.0006 |       0.0006 |       0.0006 |       0.0006 |       0.0006 |       0.0006 |       0.0006 |       0.0006 |       0.0006 |
dtlb.wb_rate                                0.0000 |       0.0000 |       0.0000 |       0.0000 |       0.0000 |       0.0000 |       0.0000 |       0.0000 |       0.0000 |       0.0000 |       0.0000 |       0.0000 |       0.0000 |       0.0000 |       0.0000 |       0.0000 |       0.0000 |       0.0000 |       0.0000 |       0.0000 |       0.0003 |       0.0003 |       0.0003 |       0.0003 |       0.0003 |       0.0003 |       0.0003 |       0.0003 |       0.0003 |       0.0003 |       0.0003 |       0.0003 |       0.0003 |       0.0003 |       0.0003 |       0.0003 |       0.0003 |       0.0003 |       0.0003 |       0.0003 |       0.0003 |       0.0003 |       0.0003 |       0.0003 |
dtlb.inv_rate                               0.0000 |       0.0000 |       0.0000 |       0.0000 |       0.0000 |       0.0000 |       0.0000 |       0.0000 |       0.0000 |       0.0000 |       0.0000 |       0.0000 |       0.0000 |       0.0000 |       0.0000 |       0.0000 |       0.0000 |       0.0000 |       0.0000 |       0.0000 |       0.0000 |       0.0000 |       0.0000 |       0.0000 |       0.0000 |       0.0000 |       0.0000 |       0.0000 |       0.0000 |       0.0000 |       0.0000 |       0.0000 |       0.0000 |       0.0000 |       0.0000 |       0.0000 |       0.0000 |       0.0000 |       0.0000 |       0.0000 |       0.0000 |       0.0000 |       0.0000 |       0.0000 |
ld_text_base                            0x00400000 |   0x00400000 |   0x00400000 |   0x00400000 |   0x00400000 |   0x00400000 |   0x00400000 |   0x00400000 |   0x00400000 |   0x00400000 |   0x00400000 |   0x00400000 |   0x00400000 |   0x00400000 |   0x00400000 |   0x00400000 |   0x00400000 |   0x00400000 |   0x00400000 |   0x00400000 |   0x00400000 |   0x00400000 |   0x00400000 |   0x00400000 |   0x00400000 |   0x00400000 |   0x00400000 |   0x00400000 |   0x00400000 |   0x00400000 |   0x00400000 |   0x00400000 |   0x00400000 |   0x00400000 |   0x00400000 |   0x00400000 |   0x00400000 |   0x00400000 |   0x00400000 |   0x00400000 |   0x00400000 |   0x00400000 |   0x00400000 |   0x00400000 |
ld_text_size                                 71456 |        71456 |        71456 |        71456 |        71488 |        71488 |        71488 |        71488 |        71504 |        71504 |        71504 |        71504 |        71520 |        71520 |        71520 |        71520 |        71520 |        71520 |        71520 |        71520 |        71520 |        71520 |        71520 |        71520 |        71520 |        71520 |        71520 |        71520 |        71520 |        71520 |        71520 |        71520 |        71520 |        71520 |        71520 |        71520 |        71520 |        71520 |        71520 |        71520 |        71520 |        71520 |        71520 |        71520 |
ld_data_base                            0x10000000 |   0x10000000 |   0x10000000 |   0x10000000 |   0x10000000 |   0x10000000 |   0x10000000 |   0x10000000 |   0x10000000 |   0x10000000 |   0x10000000 |   0x10000000 |   0x10000000 |   0x10000000 |   0x10000000 |   0x10000000 |   0x10000000 |   0x10000000 |   0x10000000 |   0x10000000 |   0x10000000 |   0x10000000 |   0x10000000 |   0x10000000 |   0x10000000 |   0x10000000 |   0x10000000 |   0x10000000 |   0x10000000 |   0x10000000 |   0x10000000 |   0x10000000 |   0x10000000 |   0x10000000 |   0x10000000 |   0x10000000 |   0x10000000 |   0x10000000 |   0x10000000 |   0x10000000 |   0x10000000 |   0x10000000 |   0x10000000 |   0x10000000 |
ld_data_size                                  8192 |         8192 |         8192 |         8192 |         8192 |         8192 |         8192 |         8192 |         8192 |         8192 |         8192 |         8192 |         8192 |         8192 |         8192 |         8192 |         8192 |         8192 |         8192 |         8192 |         8192 |         8192 |         8192 |         8192 |         8192 |         8192 |         8192 |         8192 |         8192 |         8192 |         8192 |         8192 |         8192 |         8192 |         8192 |         8192 |         8192 |         8192 |         8192 |         8192 |         8192 |         8192 |         8192 |         8192 |
ld_stack_base                           0x7fffc000 |   0x7fffc000 |   0x7fffc000 |   0x7fffc000 |   0x7fffc000 |   0x7fffc000 |   0x7fffc000 |   0x7fffc000 |   0x7fffc000 |   0x7fffc000 |   0x7fffc000 |   0x7fffc000 |   0x7fffc000 |   0x7fffc000 |   0x7fffc000 |   0x7fffc000 |   0x7fffc000 |   0x7fffc000 |   0x7fffc000 |   0x7fffc000 |   0x7fffc000 |   0x7fffc000 |   0x7fffc000 |   0x7fffc000 |   0x7fffc000 |   0x7fffc000 |   0x7fffc000 |   0x7fffc000 |   0x7fffc000 |   0x7fffc000 |   0x7fffc000 |   0x7fffc000 |   0x7fffc000 |   0x7fffc000 |   0x7fffc000 |   0x7fffc000 |   0x7fffc000 |   0x7fffc000 |   0x7fffc000 |   0x7fffc000 |   0x7fffc000 |   0x7fffc000 |   0x7fffc000 |   0x7fffc000 |
ld_stack_size                                16384 |        16384 |        16384 |        16384 |        16384 |        16384 |        16384 |        16384 |        16384 |        16384 |        16384 |        16384 |        16384 |        16384 |        16384 |        16384 |        16384 |        16384 |        16384 |        16384 |        16384 |        16384 |        16384 |        16384 |        16384 |        16384 |        16384 |        16384 |        16384 |        16384 |        16384 |        16384 |        16384 |        16384 |        16384 |        16384 |        16384 |        16384 |        16384 |        16384 |        16384 |        16384 |        16384 |        16384 |
ld_prog_entry                           0x00400140 |   0x00400140 |   0x00400140 |   0x00400140 |   0x00400140 |   0x00400140 |   0x00400140 |   0x00400140 |   0x00400140 |   0x00400140 |   0x00400140 |   0x00400140 |   0x00400140 |   0x00400140 |   0x00400140 |   0x00400140 |   0x00400140 |   0x00400140 |   0x00400140 |   0x00400140 |   0x00400140 |   0x00400140 |   0x00400140 |   0x00400140 |   0x00400140 |   0x00400140 |   0x00400140 |   0x00400140 |   0x00400140 |   0x00400140 |   0x00400140 |   0x00400140 |   0x00400140 |   0x00400140 |   0x00400140 |   0x00400140 |   0x00400140 |   0x00400140 |   0x00400140 |   0x00400140 |   0x00400140 |   0x00400140 |   0x00400140 |   0x00400140 |
ld_environ_base                         0x7fff8000 |   0x7fff8000 |   0x7fff8000 |   0x7fff8000 |   0x7fff8000 |   0x7fff8000 |   0x7fff8000 |   0x7fff8000 |   0x7fff8000 |   0x7fff8000 |   0x7fff8000 |   0x7fff8000 |   0x7fff8000 |   0x7fff8000 |   0x7fff8000 |   0x7fff8000 |   0x7fff8000 |   0x7fff8000 |   0x7fff8000 |   0x7fff8000 |   0x7fff8000 |   0x7fff8000 |   0x7fff8000 |   0x7fff8000 |   0x7fff8000 |   0x7fff8000 |   0x7fff8000 |   0x7fff8000 |   0x7fff8000 |   0x7fff8000 |   0x7fff8000 |   0x7fff8000 |   0x7fff8000 |   0x7fff8000 |   0x7fff8000 |   0x7fff8000 |   0x7fff8000 |   0x7fff8000 |   0x7fff8000 |   0x7fff8000 |   0x7fff8000 |   0x7fff8000 |   0x7fff8000 |   0x7fff8000 |
ld_target_big_endian                             0 |            0 |            0 |            0 |            0 |            0 |            0 |            0 |            0 |            0 |            0 |            0 |            0 |            0 |            0 |            0 |            0 |            0 |            0 |            0 |            0 |            0 |            0 |            0 |            0 |            0 |            0 |            0 |            0 |            0 |            0 |            0 |            0 |            0 |            0 |            0 |            0 |            0 |            0 |            0 |            0 |            0 |            0 |            0 |
mem.page_count                                  33 |           33 |           33 |           33 |           41 |           41 |           41 |           41 |           57 |           57 |           57 |           57 |           89 |           89 |           89 |           89 |          153 |          153 |          153 |          153 |          281 |          281 |          281 |          281 |          537 |          537 |          537 |          537 |         1049 |         1049 |         1049 |         1049 |         2079 |         2079 |         2079 |         2079 |         4133 |         4133 |         4133 |         4133 |         8241 |         8241 |         8241 |         8241 |
mem.page_mem                                  132k |         132k |         132k |         132k |         164k |         164k |         164k |         164k |         228k |         228k |         228k |         228k |         356k |         356k |         356k |         356k |         612k |         612k |         612k |         612k |        1124k |        1124k |        1124k |        1124k |        2148k |        2148k |        2148k |        2148k |        4196k |        4196k |        4196k |        4196k |        8316k |        8316k |        8316k |        8316k |       16532k |       16532k |       16532k |       16532k |       32964k |       32964k |       32964k |       32964k |
mem.ptab_misses                                 33 |           33 |           33 |           33 |           41 |           41 |           41 |           41 |           57 |           57 |           57 |           57 |           89 |           89 |           89 |           89 |          153 |          153 |          153 |          153 |          281 |          281 |          281 |          281 |          537 |          537 |          537 |          537 |         1049 |         1049 |         1049 |         1049 |        62749 |        62749 |        62749 |        62749 |        68685 |        68685 |        68685 |        68685 |        74953 |        74953 |        74953 |        74953 |
mem.ptab_accesses                          3833902 |      3833902 |      3833902 |      3833902 |      7846788 |      7846788 |      7846788 |      7846788 |     16064856 |     16064856 |     16064856 |     16064856 |     34271006 |     34271006 |     34271006 |     34271006 |     71473138 |     71473138 |     71473138 |     71473138 |    152953110 |    152953110 |    152953110 |    152953110 |    319053516 |    319053516 |    319053516 |    319053516 |    679554240 |    679554240 |    679554240 |    679554240 |   1413229578 |   1413229578 |   1413229578 |   1413229578 |   2993732360 |   2993732360 |   2993732360 |   2993732360 |   6205084134 |   6205084134 |   6205084134 |   6205084134 |
mem.ptab_miss_rate                          0.0000 |       0.0000 |       0.0000 |       0.0000 |       0.0000 |       0.0000 |       0.0000 |       0.0000 |       0.0000 |       0.0000 |       0.0000 |       0.0000 |       0.0000 |       0.0000 |       0.0000 |       0.0000 |       0.0000 |       0.0000 |       0.0000 |       0.0000 |       0.0000 |       0.0000 |       0.0000 |       0.0000 |       0.0000 |       0.0000 |       0.0000 |       0.0000 |       0.0000 |       0.0000 |       0.0000 |       0.0000 |       0.0000 |       0.0000 |       0.0000 |       0.0000 |       0.0000 |       0.0000 |       0.0000 |       0.0000 |       0.0000 |       0.0000 |       0.0000 |       0.0000 |
-------------------------------------------------------------------------------------------------
sim-bpred                                     4096 |         4096 |         4096 |         4096 |         4096 |         4096 |         4096 |         8192 |         8192 |         8192 |         8192 |         8192 |         8192 |         8192 |        16384 |        16384 |        16384 |        16384 |        16384 |        16384 |        16384 |        32768 |        32768 |        32768 |        32768 |        32768 |        32768 |        32768 |        65536 |        65536 |        65536 |        65536 |        65536 |        65536 |        65536 |       131072 |       131072 |       131072 |       131072 |       131072 |       131072 |       131072 |       262144 |       262144 |       262144 |       262144 |       262144 |       262144 |       262144 |       524288 |       524288 |       524288 |       524288 |       524288 |       524288 |       524288 |      1048576 |      1048576 |      1048576 |      1048576 |      1048576 |      1048576 |      1048576 |      2097152 |      2097152 |      2097152 |      2097152 |      2097152 |      2097152 |      2097152 |      4194304 |      4194304 |      4194304 |      4194304 |      4194304 |      4194304 |      4194304 |
-bpred bimod -bpred:bimod 512
-bpred bimod -bpred:bimod 1024
-bpred bimod -bpred:bimod 2048
-bpred 2lev -bpred:2lev 1 512 10 1
-bpred 2lev -bpred:2lev 1 1024 10 1
-bpred 2lev -bpred:2lev 1 2048 10 1
-bpred 2lev -bpred:2lev 1 4096 10 1
-------------------------------------------------------------------------------------------------
sim_num_insn                                766374 |       766374 |       766374 |       766374 |       766374 |       766374 |       766374 |      1669688 |      1669688 |      1669688 |      1669688 |      1669688 |      1669688 |      1669688 |      3536869 |      3536869 |      3536869 |      3536869 |      3536869 |      3536869 |      3536869 |      7640014 |      7640014 |      7640014 |      7640014 |      7640014 |      7640014 |      7640014 |     16092823 |     16092823 |     16092823 |     16092823 |     16092823 |     16092823 |     16092823 |     34472567 |     34472567 |     34472567 |     34472567 |     34472567 |     34472567 |     34472567 |     72213888 |     72213888 |     72213888 |     72213888 |     72213888 |     72213888 |     72213888 |    153592227 |    153592227 |    153592227 |    153592227 |    153592227 |    153592227 |    153592227 |    320298421 |    320298421 |    320298421 |    320298421 |    320298421 |    320298421 |    320298421 |    677286802 |    677286802 |    677286802 |    677286802 |    677286802 |    677286802 |    677286802 |   1406995249 |   1406995249 |   1406995249 |   1406995249 |   1406995249 |   1406995249 |   1406995249 |
sim_num_refs                                146077 |       146077 |       146077 |       146077 |       146077 |       146077 |       146077 |       329412 |       329412 |       329412 |       329412 |       329412 |       329412 |       329412 |       671268 |       671268 |       671268 |       671268 |       671268 |       671268 |       671268 |      1502469 |      1502469 |      1502469 |      1502469 |      1502469 |      1502469 |      1502469 |      3066845 |      3066845 |      3066845 |      3066845 |      3066845 |      3066845 |      3066845 |      6785199 |      6785199 |      6785199 |      6785199 |      6785199 |      6785199 |      6785199 |     13828472 |     13828472 |     13828472 |     13828472 |     13828472 |     13828472 |     13828472 |     30273580 |     30273580 |     30273580 |     30273580 |     30273580 |     30273580 |     30273580 |     61601709 |     61601709 |     61601709 |     61601709 |     61601709 |     61601709 |     61601709 |    133682034 |    133682034 |    133682034 |    133682034 |    133682034 |    133682034 |    133682034 |    271552419 |    271552419 |    271552419 |    271552419 |    271552419 |    271552419 |    271552419 |
sim_elapsed_time                                 1 |            1 |            1 |            1 |            1 |            1 |            1 |            1 |            1 |            1 |            1 |            1 |            1 |            1 |            1 |            1 |            1 |            1 |            1 |            1 |            1 |            1 |            1 |            1 |            1 |            1 |            1 |            1 |            2 |            2 |            1 |            2 |            2 |            2 |            2 |            3 |            4 |            4 |            4 |            4 |            4 |            3 |            8 |            8 |            8 |            8 |            8 |            8 |            8 |           17 |           17 |           17 |           17 |           18 |           17 |           17 |           35 |           35 |           35 |           36 |           35 |           37 |           36 |           80 |           75 |           75 |           77 |           75 |           76 |           75 |          157 |          156 |          154 |          157 |          158 |          157 |          158 |
sim_inst_rate                          766374.0000 |  766374.0000 |  766374.0000 |  766374.0000 |  766374.0000 |  766374.0000 |  766374.0000 | 1669688.0000 | 1669688.0000 | 1669688.0000 | 1669688.0000 | 1669688.0000 | 1669688.0000 | 1669688.0000 | 3536869.0000 | 3536869.0000 | 3536869.0000 | 3536869.0000 | 3536869.0000 | 3536869.0000 | 3536869.0000 | 7640014.0000 | 7640014.0000 | 7640014.0000 | 7640014.0000 | 7640014.0000 | 7640014.0000 | 7640014.0000 | 8046411.5000 | 8046411.5000 |16092823.0000 | 8046411.5000 | 8046411.5000 | 8046411.5000 | 8046411.5000 |11490855.6667 | 8618141.7500 | 8618141.7500 | 8618141.7500 | 8618141.7500 | 8618141.7500 |11490855.6667 | 9026736.0000 | 9026736.0000 | 9026736.0000 | 9026736.0000 | 9026736.0000 | 9026736.0000 | 9026736.0000 | 9034836.8824 | 9034836.8824 | 9034836.8824 | 9034836.8824 | 8532901.5000 | 9034836.8824 | 9034836.8824 | 9151383.4571 | 9151383.4571 | 9151383.4571 | 8897178.3611 | 9151383.4571 | 8656714.0811 | 8897178.3611 | 8466085.0250 | 9030490.6933 | 9030490.6933 | 8795932.4935 | 9030490.6933 | 8911668.4474 | 9030490.6933 | 8961753.1783 | 9019200.3141 | 9136332.7857 | 8961753.1783 | 8905033.2215 | 8961753.1783 | 8905033.2215 |
sim_num_branches                            109317 |       109317 |       109317 |       109317 |       109317 |       109317 |       109317 |       235322 |       235322 |       235322 |       235322 |       235322 |       235322 |       235322 |       500564 |       500564 |       500564 |       500564 |       500564 |       500564 |       500564 |      1069997 |      1069997 |      1069997 |      1069997 |      1069997 |      1069997 |      1069997 |      2261765 |      2261765 |      2261765 |      2261765 |      2261765 |      2261765 |      2261765 |      4801425 |      4801425 |      4801425 |      4801425 |      4801425 |      4801425 |      4801425 |     10093413 |     10093413 |     10093413 |     10093413 |     10093413 |     10093413 |     10093413 |     21300397 |     21300397 |     21300397 |     21300397 |     21300397 |     21300397 |     21300397 |     44565951 |     44565951 |     44565951 |     44565951 |     44565951 |     44565951 |     44565951 |     93588344 |     93588344 |     93588344 |     93588344 |     93588344 |     93588344 |     93588344 |    195039293 |    195039293 |    195039293 |    195039293 |    195039293 |    195039293 |    195039293 |
sim_IPB                                     7.0106 |       7.0106 |       7.0106 |       7.0106 |       7.0106 |       7.0106 |       7.0106 |       7.0953 |       7.0953 |       7.0953 |       7.0953 |       7.0953 |       7.0953 |       7.0953 |       7.0658 |       7.0658 |       7.0658 |       7.0658 |       7.0658 |       7.0658 |       7.0658 |       7.1402 |       7.1402 |       7.1402 |       7.1402 |       7.1402 |       7.1402 |       7.1402 |       7.1152 |       7.1152 |       7.1152 |       7.1152 |       7.1152 |       7.1152 |       7.1152 |       7.1797 |       7.1797 |       7.1797 |       7.1797 |       7.1797 |       7.1797 |       7.1797 |       7.1546 |       7.1546 |       7.1546 |       7.1546 |       7.1546 |       7.1546 |       7.1546 |       7.2108 |       7.2108 |       7.2108 |       7.2108 |       7.2108 |       7.2108 |       7.2108 |       7.1871 |       7.1871 |       7.1871 |       7.1871 |       7.1871 |       7.1871 |       7.1871 |       7.2369 |       7.2369 |       7.2369 |       7.2369 |       7.2369 |       7.2369 |       7.2369 |       7.2139 |       7.2139 |       7.2139 |       7.2139 |       7.2139 |       7.2139 |       7.2139 |
bpred_bimod.lookups                         109317 |       109317 |       109317 |xxxxxxxxxxxxx |xxxxxxxxxxxxx |xxxxxxxxxxxxx |xxxxxxxxxxxxx |       235322 |       235322 |       235322 |xxxxxxxxxxxxx |xxxxxxxxxxxxx |xxxxxxxxxxxxx |xxxxxxxxxxxxx |       500564 |       500564 |       500564 |xxxxxxxxxxxxx |xxxxxxxxxxxxx |xxxxxxxxxxxxx |xxxxxxxxxxxxx |      1069997 |      1069997 |      1069997 |xxxxxxxxxxxxx |xxxxxxxxxxxxx |xxxxxxxxxxxxx |xxxxxxxxxxxxx |      2261765 |      2261765 |      2261765 |xxxxxxxxxxxxx |xxxxxxxxxxxxx |xxxxxxxxxxxxx |xxxxxxxxxxxxx |      4801425 |      4801425 |      4801425 |xxxxxxxxxxxxx |xxxxxxxxxxxxx |xxxxxxxxxxxxx |xxxxxxxxxxxxx |     10093413 |     10093413 |     10093413 |xxxxxxxxxxxxx |xxxxxxxxxxxxx |xxxxxxxxxxxxx |xxxxxxxxxxxxx |     21300397 |     21300397 |     21300397 |xxxxxxxxxxxxx |xxxxxxxxxxxxx |xxxxxxxxxxxxx |xxxxxxxxxxxxx |     44565951 |     44565951 |     44565951 |xxxxxxxxxxxxx |xxxxxxxxxxxxx |xxxxxxxxxxxxx |xxxxxxxxxxxxx |     93588344 |     93588344 |     93588344 |xxxxxxxxxxxxx |xxxxxxxxxxxxx |xxxxxxxxxxxxx |xxxxxxxxxxxxx |    195039293 |    195039293 |    195039293 |
bpred_bimod.updates                         109317 |       109317 |       109317 |xxxxxxxxxxxxx |xxxxxxxxxxxxx |xxxxxxxxxxxxx |xxxxxxxxxxxxx |       235322 |       235322 |       235322 |xxxxxxxxxxxxx |xxxxxxxxxxxxx |xxxxxxxxxxxxx |xxxxxxxxxxxxx |       500564 |       500564 |       500564 |xxxxxxxxxxxxx |xxxxxxxxxxxxx |xxxxxxxxxxxxx |xxxxxxxxxxxxx |      1069997 |      1069997 |      1069997 |xxxxxxxxxxxxx |xxxxxxxxxxxxx |xxxxxxxxxxxxx |xxxxxxxxxxxxx |      2261765 |      2261765 |      2261765 |xxxxxxxxxxxxx |xxxxxxxxxxxxx |xxxxxxxxxxxxx |xxxxxxxxxxxxx |      4801425 |      4801425 |      4801425 |xxxxxxxxxxxxx |xxxxxxxxxxxxx |xxxxxxxxxxxxx |xxxxxxxxxxxxx |     10093413 |     10093413 |     10093413 |xxxxxxxxxxxxx |xxxxxxxxxxxxx |xxxxxxxxxxxxx |xxxxxxxxxxxxx |     21300397 |     21300397 |     21300397 |xxxxxxxxxxxxx |xxxxxxxxxxxxx |xxxxxxxxxxxxx |xxxxxxxxxxxxx |     44565951 |     44565951 |     44565951 |xxxxxxxxxxxxx |xxxxxxxxxxxxx |xxxxxxxxxxxxx |xxxxxxxxxxxxx |     93588344 |     93588344 |     93588344 |xxxxxxxxxxxxx |xxxxxxxxxxxxx |xxxxxxxxxxxxx |xxxxxxxxxxxxx |    195039293 |    195039293 |    195039293 |
bpred_bimod.addr_hits                        83102 |        83104 |        83109 |xxxxxxxxxxxxx |xxxxxxxxxxxxx |xxxxxxxxxxxxx |xxxxxxxxxxxxx |       179107 |       179110 |       179115 |xxxxxxxxxxxxx |xxxxxxxxxxxxx |xxxxxxxxxxxxx |xxxxxxxxxxxxx |       379978 |       379980 |       379986 |xxxxxxxxxxxxx |xxxxxxxxxxxxx |xxxxxxxxxxxxx |xxxxxxxxxxxxx |       813229 |       813232 |       813237 |xxxxxxxxxxxxx |xxxxxxxxxxxxx |xxxxxxxxxxxxx |xxxxxxxxxxxxx |      1715649 |      1715651 |      1715658 |xxxxxxxxxxxxx |xxxxxxxxxxxxx |xxxxxxxxxxxxx |xxxxxxxxxxxxx |      3642405 |      3642408 |      3642413 |xxxxxxxxxxxxx |xxxxxxxxxxxxx |xxxxxxxxxxxxx |xxxxxxxxxxxxx |      7646062 |      7646064 |      7646071 |xxxxxxxxxxxxx |xxxxxxxxxxxxx |xxxxxxxxxxxxx |xxxxxxxxxxxxx |     16145066 |     16145069 |     16145075 |xxxxxxxxxxxxx |xxxxxxxxxxxxx |xxxxxxxxxxxxx |xxxxxxxxxxxxx |     33728796 |     33728799 |     33728804 |xxxxxxxxxxxxx |xxxxxxxxxxxxx |xxxxxxxxxxxxx |xxxxxxxxxxxxx |     70866060 |     70866063 |     70866068 |xxxxxxxxxxxxx |xxxxxxxxxxxxx |xxxxxxxxxxxxx |xxxxxxxxxxxxx |    147502356 |    147502359 |    147502365 |
bpred_bimod.dir_hits                         83201 |        83203 |        83207 |xxxxxxxxxxxxx |xxxxxxxxxxxxx |xxxxxxxxxxxxx |xxxxxxxxxxxxx |       179216 |       179218 |       179223 |xxxxxxxxxxxxx |xxxxxxxxxxxxx |xxxxxxxxxxxxx |xxxxxxxxxxxxx |       380083 |       380084 |       380088 |xxxxxxxxxxxxx |xxxxxxxxxxxxx |xxxxxxxxxxxxx |xxxxxxxxxxxxx |       813337 |       813339 |       813344 |xxxxxxxxxxxxx |xxxxxxxxxxxxx |xxxxxxxxxxxxx |xxxxxxxxxxxxx |      1715751 |      1715752 |      1715759 |xxxxxxxxxxxxx |xxxxxxxxxxxxx |xxxxxxxxxxxxx |xxxxxxxxxxxxx |      3642514 |      3642516 |      3642521 |xxxxxxxxxxxxx |xxxxxxxxxxxxx |xxxxxxxxxxxxx |xxxxxxxxxxxxx |      7646165 |      7646166 |      7646173 |xxxxxxxxxxxxx |xxxxxxxxxxxxx |xxxxxxxxxxxxx |xxxxxxxxxxxxx |     16145175 |     16145177 |     16145183 |xxxxxxxxxxxxx |xxxxxxxxxxxxx |xxxxxxxxxxxxx |xxxxxxxxxxxxx |     33728910 |     33728912 |     33728917 |xxxxxxxxxxxxx |xxxxxxxxxxxxx |xxxxxxxxxxxxx |xxxxxxxxxxxxx |     70866175 |     70866177 |     70866182 |xxxxxxxxxxxxx |xxxxxxxxxxxxx |xxxxxxxxxxxxx |xxxxxxxxxxxxx |    147502470 |    147502472 |    147502478 |
bpred_bimod.misses                           26116 |        26114 |        26110 |xxxxxxxxxxxxx |xxxxxxxxxxxxx |xxxxxxxxxxxxx |xxxxxxxxxxxxx |        56106 |        56104 |        56099 |xxxxxxxxxxxxx |xxxxxxxxxxxxx |xxxxxxxxxxxxx |xxxxxxxxxxxxx |       120481 |       120480 |       120476 |xxxxxxxxxxxxx |xxxxxxxxxxxxx |xxxxxxxxxxxxx |xxxxxxxxxxxxx |       256660 |       256658 |       256653 |xxxxxxxxxxxxx |xxxxxxxxxxxxx |xxxxxxxxxxxxx |xxxxxxxxxxxxx |       546014 |       546013 |       546006 |xxxxxxxxxxxxx |xxxxxxxxxxxxx |xxxxxxxxxxxxx |xxxxxxxxxxxxx |      1158911 |      1158909 |      1158904 |xxxxxxxxxxxxx |xxxxxxxxxxxxx |xxxxxxxxxxxxx |xxxxxxxxxxxxx |      2447248 |      2447247 |      2447240 |xxxxxxxxxxxxx |xxxxxxxxxxxxx |xxxxxxxxxxxxx |xxxxxxxxxxxxx |      5155222 |      5155220 |      5155214 |xxxxxxxxxxxxx |xxxxxxxxxxxxx |xxxxxxxxxxxxx |xxxxxxxxxxxxx |     10837041 |     10837039 |     10837034 |xxxxxxxxxxxxx |xxxxxxxxxxxxx |xxxxxxxxxxxxx |xxxxxxxxxxxxx |     22722169 |     22722167 |     22722162 |xxxxxxxxxxxxx |xxxxxxxxxxxxx |xxxxxxxxxxxxx |xxxxxxxxxxxxx |     47536823 |     47536821 |     47536815 |
bpred_bimod.jr_hits                             61 |           61 |           61 |xxxxxxxxxxxxx |xxxxxxxxxxxxx |xxxxxxxxxxxxx |xxxxxxxxxxxxx |           71 |           71 |           71 |xxxxxxxxxxxxx |xxxxxxxxxxxxx |xxxxxxxxxxxxx |xxxxxxxxxxxxx |           69 |           69 |           69 |xxxxxxxxxxxxx |xxxxxxxxxxxxx |xxxxxxxxxxxxx |xxxxxxxxxxxxx |           71 |           71 |           71 |xxxxxxxxxxxxx |xxxxxxxxxxxxx |xxxxxxxxxxxxx |xxxxxxxxxxxxx |           69 |           69 |           69 |xxxxxxxxxxxxx |xxxxxxxxxxxxx |xxxxxxxxxxxxx |xxxxxxxxxxxxx |           71 |           71 |           71 |xxxxxxxxxxxxx |xxxxxxxxxxxxx |xxxxxxxxxxxxx |xxxxxxxxxxxxx |           69 |           69 |           69 |xxxxxxxxxxxxx |xxxxxxxxxxxxx |xxxxxxxxxxxxx |xxxxxxxxxxxxx |           71 |           71 |           71 |xxxxxxxxxxxxx |xxxxxxxxxxxxx |xxxxxxxxxxxxx |xxxxxxxxxxxxx |           72 |           72 |           72 |xxxxxxxxxxxxx |xxxxxxxxxxxxx |xxxxxxxxxxxxx |xxxxxxxxxxxxx |           75 |           75 |           75 |xxxxxxxxxxxxx |xxxxxxxxxxxxx |xxxxxxxxxxxxx |xxxxxxxxxxxxx |           72 |           72 |           72 |
bpred_bimod.jr_seen                             61 |           61 |           61 |xxxxxxxxxxxxx |xxxxxxxxxxxxx |xxxxxxxxxxxxx |xxxxxxxxxxxxx |           73 |           73 |           73 |xxxxxxxxxxxxx |xxxxxxxxxxxxx |xxxxxxxxxxxxx |xxxxxxxxxxxxx |           70 |           70 |           70 |xxxxxxxxxxxxx |xxxxxxxxxxxxx |xxxxxxxxxxxxx |xxxxxxxxxxxxx |           73 |           73 |           73 |xxxxxxxxxxxxx |xxxxxxxxxxxxx |xxxxxxxxxxxxx |xxxxxxxxxxxxx |           70 |           70 |           70 |xxxxxxxxxxxxx |xxxxxxxxxxxxx |xxxxxxxxxxxxx |xxxxxxxxxxxxx |           73 |           73 |           73 |xxxxxxxxxxxxx |xxxxxxxxxxxxx |xxxxxxxxxxxxx |xxxxxxxxxxxxx |           70 |           70 |           70 |xxxxxxxxxxxxx |xxxxxxxxxxxxx |xxxxxxxxxxxxx |xxxxxxxxxxxxx |           73 |           73 |           73 |xxxxxxxxxxxxx |xxxxxxxxxxxxx |xxxxxxxxxxxxx |xxxxxxxxxxxxx |           73 |           73 |           73 |xxxxxxxxxxxxx |xxxxxxxxxxxxx |xxxxxxxxxxxxx |xxxxxxxxxxxxx |           76 |           76 |           76 |xxxxxxxxxxxxx |xxxxxxxxxxxxx |xxxxxxxxxxxxx |xxxxxxxxxxxxx |           73 |           73 |           73 |
bpred_bimod.jr_non_ras_hits.PP                   0 |            0 |            0 |xxxxxxxxxxxxx |xxxxxxxxxxxxx |xxxxxxxxxxxxx |xxxxxxxxxxxxx |            0 |            0 |            0 |xxxxxxxxxxxxx |xxxxxxxxxxxxx |xxxxxxxxxxxxx |xxxxxxxxxxxxx |            0 |            0 |            0 |xxxxxxxxxxxxx |xxxxxxxxxxxxx |xxxxxxxxxxxxx |xxxxxxxxxxxxx |            0 |            0 |            0 |xxxxxxxxxxxxx |xxxxxxxxxxxxx |xxxxxxxxxxxxx |xxxxxxxxxxxxx |            0 |            0 |            0 |xxxxxxxxxxxxx |xxxxxxxxxxxxx |xxxxxxxxxxxxx |xxxxxxxxxxxxx |            0 |            0 |            0 |xxxxxxxxxxxxx |xxxxxxxxxxxxx |xxxxxxxxxxxxx |xxxxxxxxxxxxx |            0 |            0 |            0 |xxxxxxxxxxxxx |xxxxxxxxxxxxx |xxxxxxxxxxxxx |xxxxxxxxxxxxx |            0 |            0 |            0 |xxxxxxxxxxxxx |xxxxxxxxxxxxx |xxxxxxxxxxxxx |xxxxxxxxxxxxx |            0 |            0 |            0 |xxxxxxxxxxxxx |xxxxxxxxxxxxx |xxxxxxxxxxxxx |xxxxxxxxxxxxx |            1 |            1 |            1 |xxxxxxxxxxxxx |xxxxxxxxxxxxx |xxxxxxxxxxxxx |xxxxxxxxxxxxx |            0 |            0 |            0 |
bpred_bimod.jr_non_ras_seen.PP                   0 |            0 |            0 |xxxxxxxxxxxxx |xxxxxxxxxxxxx |xxxxxxxxxxxxx |xxxxxxxxxxxxx |            1 |            1 |            1 |xxxxxxxxxxxxx |xxxxxxxxxxxxx |xxxxxxxxxxxxx |xxxxxxxxxxxxx |            0 |            0 |            0 |xxxxxxxxxxxxx |xxxxxxxxxxxxx |xxxxxxxxxxxxx |xxxxxxxxxxxxx |            1 |            1 |            1 |xxxxxxxxxxxxx |xxxxxxxxxxxxx |xxxxxxxxxxxxx |xxxxxxxxxxxxx |            0 |            0 |            0 |xxxxxxxxxxxxx |xxxxxxxxxxxxx |xxxxxxxxxxxxx |xxxxxxxxxxxxx |            1 |            1 |            1 |xxxxxxxxxxxxx |xxxxxxxxxxxxx |xxxxxxxxxxxxx |xxxxxxxxxxxxx |            0 |            0 |            0 |xxxxxxxxxxxxx |xxxxxxxxxxxxx |xxxxxxxxxxxxx |xxxxxxxxxxxxx |            1 |            1 |            1 |xxxxxxxxxxxxx |xxxxxxxxxxxxx |xxxxxxxxxxxxx |xxxxxxxxxxxxx |            1 |            1 |            1 |xxxxxxxxxxxxx |xxxxxxxxxxxxx |xxxxxxxxxxxxx |xxxxxxxxxxxxx |            2 |            2 |            2 |xxxxxxxxxxxxx |xxxxxxxxxxxxx |xxxxxxxxxxxxx |xxxxxxxxxxxxx |            1 |            1 |            1 |
bpred_bimod.bpred_addr_rate                 0.7602 |       0.7602 |       0.7603 |xxxxxxxxxxxxx |xxxxxxxxxxxxx |xxxxxxxxxxxxx |xxxxxxxxxxxxx |       0.7611 |       0.7611 |       0.7611 |xxxxxxxxxxxxx |xxxxxxxxxxxxx |xxxxxxxxxxxxx |xxxxxxxxxxxxx |       0.7591 |       0.7591 |       0.7591 |xxxxxxxxxxxxx |xxxxxxxxxxxxx |xxxxxxxxxxxxx |xxxxxxxxxxxxx |       0.7600 |       0.7600 |       0.7600 |xxxxxxxxxxxxx |xxxxxxxxxxxxx |xxxxxxxxxxxxx |xxxxxxxxxxxxx |       0.7585 |       0.7585 |       0.7585 |xxxxxxxxxxxxx |xxxxxxxxxxxxx |xxxxxxxxxxxxx |xxxxxxxxxxxxx |       0.7586 |       0.7586 |       0.7586 |xxxxxxxxxxxxx |xxxxxxxxxxxxx |xxxxxxxxxxxxx |xxxxxxxxxxxxx |       0.7575 |       0.7575 |       0.7575 |xxxxxxxxxxxxx |xxxxxxxxxxxxx |xxxxxxxxxxxxx |xxxxxxxxxxxxx |       0.7580 |       0.7580 |       0.7580 |xxxxxxxxxxxxx |xxxxxxxxxxxxx |xxxxxxxxxxxxx |xxxxxxxxxxxxx |       0.7568 |       0.7568 |       0.7568 |xxxxxxxxxxxxx |xxxxxxxxxxxxx |xxxxxxxxxxxxx |xxxxxxxxxxxxx |       0.7572 |       0.7572 |       0.7572 |xxxxxxxxxxxxx |xxxxxxxxxxxxx |xxxxxxxxxxxxx |xxxxxxxxxxxxx |       0.7563 |       0.7563 |       0.7563 |
bpred_bimod.bpred_dir_rate                  0.7611 |       0.7611 |       0.7612 |xxxxxxxxxxxxx |xxxxxxxxxxxxx |xxxxxxxxxxxxx |xxxxxxxxxxxxx |       0.7616 |       0.7616 |       0.7616 |xxxxxxxxxxxxx |xxxxxxxxxxxxx |xxxxxxxxxxxxx |xxxxxxxxxxxxx |       0.7593 |       0.7593 |       0.7593 |xxxxxxxxxxxxx |xxxxxxxxxxxxx |xxxxxxxxxxxxx |xxxxxxxxxxxxx |       0.7601 |       0.7601 |       0.7601 |xxxxxxxxxxxxx |xxxxxxxxxxxxx |xxxxxxxxxxxxx |xxxxxxxxxxxxx |       0.7586 |       0.7586 |       0.7586 |xxxxxxxxxxxxx |xxxxxxxxxxxxx |xxxxxxxxxxxxx |xxxxxxxxxxxxx |       0.7586 |       0.7586 |       0.7586 |xxxxxxxxxxxxx |xxxxxxxxxxxxx |xxxxxxxxxxxxx |xxxxxxxxxxxxx |       0.7575 |       0.7575 |       0.7575 |xxxxxxxxxxxxx |xxxxxxxxxxxxx |xxxxxxxxxxxxx |xxxxxxxxxxxxx |       0.7580 |       0.7580 |       0.7580 |xxxxxxxxxxxxx |xxxxxxxxxxxxx |xxxxxxxxxxxxx |xxxxxxxxxxxxx |       0.7568 |       0.7568 |       0.7568 |xxxxxxxxxxxxx |xxxxxxxxxxxxx |xxxxxxxxxxxxx |xxxxxxxxxxxxx |       0.7572 |       0.7572 |       0.7572 |xxxxxxxxxxxxx |xxxxxxxxxxxxx |xxxxxxxxxxxxx |xxxxxxxxxxxxx |       0.7563 |       0.7563 |       0.7563 |
bpred_bimod.bpred_jr_rate                   1.0000 |       1.0000 |       1.0000 |xxxxxxxxxxxxx |xxxxxxxxxxxxx |xxxxxxxxxxxxx |xxxxxxxxxxxxx |       0.9726 |       0.9726 |       0.9726 |xxxxxxxxxxxxx |xxxxxxxxxxxxx |xxxxxxxxxxxxx |xxxxxxxxxxxxx |       0.9857 |       0.9857 |       0.9857 |xxxxxxxxxxxxx |xxxxxxxxxxxxx |xxxxxxxxxxxxx |xxxxxxxxxxxxx |       0.9726 |       0.9726 |       0.9726 |xxxxxxxxxxxxx |xxxxxxxxxxxxx |xxxxxxxxxxxxx |xxxxxxxxxxxxx |       0.9857 |       0.9857 |       0.9857 |xxxxxxxxxxxxx |xxxxxxxxxxxxx |xxxxxxxxxxxxx |xxxxxxxxxxxxx |       0.9726 |       0.9726 |       0.9726 |xxxxxxxxxxxxx |xxxxxxxxxxxxx |xxxxxxxxxxxxx |xxxxxxxxxxxxx |       0.9857 |       0.9857 |       0.9857 |xxxxxxxxxxxxx |xxxxxxxxxxxxx |xxxxxxxxxxxxx |xxxxxxxxxxxxx |       0.9726 |       0.9726 |       0.9726 |xxxxxxxxxxxxx |xxxxxxxxxxxxx |xxxxxxxxxxxxx |xxxxxxxxxxxxx |       0.9863 |       0.9863 |       0.9863 |xxxxxxxxxxxxx |xxxxxxxxxxxxx |xxxxxxxxxxxxx |xxxxxxxxxxxxx |       0.9868 |       0.9868 |       0.9868 |xxxxxxxxxxxxx |xxxxxxxxxxxxx |xxxxxxxxxxxxx |xxxxxxxxxxxxx |       0.9863 |       0.9863 |       0.9863 |
bpred_bimod.bpred_jr_non_ras_rate.PP       <error: |      <error: |      <error: |xxxxxxxxxxxxx |xxxxxxxxxxxxx |xxxxxxxxxxxxx |xxxxxxxxxxxxx |       0.0000 |       0.0000 |       0.0000 |xxxxxxxxxxxxx |xxxxxxxxxxxxx |xxxxxxxxxxxxx |xxxxxxxxxxxxx |      <error: |      <error: |      <error: |xxxxxxxxxxxxx |xxxxxxxxxxxxx |xxxxxxxxxxxxx |xxxxxxxxxxxxx |       0.0000 |       0.0000 |       0.0000 |xxxxxxxxxxxxx |xxxxxxxxxxxxx |xxxxxxxxxxxxx |xxxxxxxxxxxxx |      <error: |      <error: |      <error: |xxxxxxxxxxxxx |xxxxxxxxxxxxx |xxxxxxxxxxxxx |xxxxxxxxxxxxx |       0.0000 |       0.0000 |       0.0000 |xxxxxxxxxxxxx |xxxxxxxxxxxxx |xxxxxxxxxxxxx |xxxxxxxxxxxxx |      <error: |      <error: |      <error: |xxxxxxxxxxxxx |xxxxxxxxxxxxx |xxxxxxxxxxxxx |xxxxxxxxxxxxx |       0.0000 |       0.0000 |       0.0000 |xxxxxxxxxxxxx |xxxxxxxxxxxxx |xxxxxxxxxxxxx |xxxxxxxxxxxxx |       0.0000 |       0.0000 |       0.0000 |xxxxxxxxxxxxx |xxxxxxxxxxxxx |xxxxxxxxxxxxx |xxxxxxxxxxxxx |       0.5000 |       0.5000 |       0.5000 |xxxxxxxxxxxxx |xxxxxxxxxxxxx |xxxxxxxxxxxxx |xxxxxxxxxxxxx |       0.0000 |       0.0000 |       0.0000 |
bpred_bimod.retstack_pushes                     63 |           63 |           63 |xxxxxxxxxxxxx |xxxxxxxxxxxxx |xxxxxxxxxxxxx |xxxxxxxxxxxxx |           74 |           74 |           74 |xxxxxxxxxxxxx |xxxxxxxxxxxxx |xxxxxxxxxxxxx |xxxxxxxxxxxxx |           72 |           72 |           72 |xxxxxxxxxxxxx |xxxxxxxxxxxxx |xxxxxxxxxxxxx |xxxxxxxxxxxxx |           74 |           74 |           74 |xxxxxxxxxxxxx |xxxxxxxxxxxxx |xxxxxxxxxxxxx |xxxxxxxxxxxxx |           72 |           72 |           72 |xxxxxxxxxxxxx |xxxxxxxxxxxxx |xxxxxxxxxxxxx |xxxxxxxxxxxxx |           74 |           74 |           74 |xxxxxxxxxxxxx |xxxxxxxxxxxxx |xxxxxxxxxxxxx |xxxxxxxxxxxxx |           72 |           72 |           72 |xxxxxxxxxxxxx |xxxxxxxxxxxxx |xxxxxxxxxxxxx |xxxxxxxxxxxxx |           74 |           74 |           74 |xxxxxxxxxxxxx |xxxxxxxxxxxxx |xxxxxxxxxxxxx |xxxxxxxxxxxxx |           74 |           74 |           74 |xxxxxxxxxxxxx |xxxxxxxxxxxxx |xxxxxxxxxxxxx |xxxxxxxxxxxxx |           76 |           76 |           76 |xxxxxxxxxxxxx |xxxxxxxxxxxxx |xxxxxxxxxxxxx |xxxxxxxxxxxxx |           74 |           74 |           74 |
bpred_bimod.retstack_pops                       61 |           61 |           61 |xxxxxxxxxxxxx |xxxxxxxxxxxxx |xxxxxxxxxxxxx |xxxxxxxxxxxxx |           72 |           72 |           72 |xxxxxxxxxxxxx |xxxxxxxxxxxxx |xxxxxxxxxxxxx |xxxxxxxxxxxxx |           70 |           70 |           70 |xxxxxxxxxxxxx |xxxxxxxxxxxxx |xxxxxxxxxxxxx |xxxxxxxxxxxxx |           72 |           72 |           72 |xxxxxxxxxxxxx |xxxxxxxxxxxxx |xxxxxxxxxxxxx |xxxxxxxxxxxxx |           70 |           70 |           70 |xxxxxxxxxxxxx |xxxxxxxxxxxxx |xxxxxxxxxxxxx |xxxxxxxxxxxxx |           72 |           72 |           72 |xxxxxxxxxxxxx |xxxxxxxxxxxxx |xxxxxxxxxxxxx |xxxxxxxxxxxxx |           70 |           70 |           70 |xxxxxxxxxxxxx |xxxxxxxxxxxxx |xxxxxxxxxxxxx |xxxxxxxxxxxxx |           72 |           72 |           72 |xxxxxxxxxxxxx |xxxxxxxxxxxxx |xxxxxxxxxxxxx |xxxxxxxxxxxxx |           72 |           72 |           72 |xxxxxxxxxxxxx |xxxxxxxxxxxxx |xxxxxxxxxxxxx |xxxxxxxxxxxxx |           74 |           74 |           74 |xxxxxxxxxxxxx |xxxxxxxxxxxxx |xxxxxxxxxxxxx |xxxxxxxxxxxxx |           72 |           72 |           72 |
bpred_bimod.used_ras.PP                         61 |           61 |           61 |xxxxxxxxxxxxx |xxxxxxxxxxxxx |xxxxxxxxxxxxx |xxxxxxxxxxxxx |           72 |           72 |           72 |xxxxxxxxxxxxx |xxxxxxxxxxxxx |xxxxxxxxxxxxx |xxxxxxxxxxxxx |           70 |           70 |           70 |xxxxxxxxxxxxx |xxxxxxxxxxxxx |xxxxxxxxxxxxx |xxxxxxxxxxxxx |           72 |           72 |           72 |xxxxxxxxxxxxx |xxxxxxxxxxxxx |xxxxxxxxxxxxx |xxxxxxxxxxxxx |           70 |           70 |           70 |xxxxxxxxxxxxx |xxxxxxxxxxxxx |xxxxxxxxxxxxx |xxxxxxxxxxxxx |           72 |           72 |           72 |xxxxxxxxxxxxx |xxxxxxxxxxxxx |xxxxxxxxxxxxx |xxxxxxxxxxxxx |           70 |           70 |           70 |xxxxxxxxxxxxx |xxxxxxxxxxxxx |xxxxxxxxxxxxx |xxxxxxxxxxxxx |           72 |           72 |           72 |xxxxxxxxxxxxx |xxxxxxxxxxxxx |xxxxxxxxxxxxx |xxxxxxxxxxxxx |           72 |           72 |           72 |xxxxxxxxxxxxx |xxxxxxxxxxxxx |xxxxxxxxxxxxx |xxxxxxxxxxxxx |           74 |           74 |           74 |xxxxxxxxxxxxx |xxxxxxxxxxxxx |xxxxxxxxxxxxx |xxxxxxxxxxxxx |           72 |           72 |           72 |
bpred_bimod.ras_hits.PP                         61 |           61 |           61 |xxxxxxxxxxxxx |xxxxxxxxxxxxx |xxxxxxxxxxxxx |xxxxxxxxxxxxx |           71 |           71 |           71 |xxxxxxxxxxxxx |xxxxxxxxxxxxx |xxxxxxxxxxxxx |xxxxxxxxxxxxx |           69 |           69 |           69 |xxxxxxxxxxxxx |xxxxxxxxxxxxx |xxxxxxxxxxxxx |xxxxxxxxxxxxx |           71 |           71 |           71 |xxxxxxxxxxxxx |xxxxxxxxxxxxx |xxxxxxxxxxxxx |xxxxxxxxxxxxx |           69 |           69 |           69 |xxxxxxxxxxxxx |xxxxxxxxxxxxx |xxxxxxxxxxxxx |xxxxxxxxxxxxx |           71 |           71 |           71 |xxxxxxxxxxxxx |xxxxxxxxxxxxx |xxxxxxxxxxxxx |xxxxxxxxxxxxx |           69 |           69 |           69 |xxxxxxxxxxxxx |xxxxxxxxxxxxx |xxxxxxxxxxxxx |xxxxxxxxxxxxx |           71 |           71 |           71 |xxxxxxxxxxxxx |xxxxxxxxxxxxx |xxxxxxxxxxxxx |xxxxxxxxxxxxx |           72 |           72 |           72 |xxxxxxxxxxxxx |xxxxxxxxxxxxx |xxxxxxxxxxxxx |xxxxxxxxxxxxx |           74 |           74 |           74 |xxxxxxxxxxxxx |xxxxxxxxxxxxx |xxxxxxxxxxxxx |xxxxxxxxxxxxx |           72 |           72 |           72 |
bpred_bimod.ras_rate.PP                     1.0000 |       1.0000 |       1.0000 |xxxxxxxxxxxxx |xxxxxxxxxxxxx |xxxxxxxxxxxxx |xxxxxxxxxxxxx |       0.9861 |       0.9861 |       0.9861 |xxxxxxxxxxxxx |xxxxxxxxxxxxx |xxxxxxxxxxxxx |xxxxxxxxxxxxx |       0.9857 |       0.9857 |       0.9857 |xxxxxxxxxxxxx |xxxxxxxxxxxxx |xxxxxxxxxxxxx |xxxxxxxxxxxxx |       0.9861 |       0.9861 |       0.9861 |xxxxxxxxxxxxx |xxxxxxxxxxxxx |xxxxxxxxxxxxx |xxxxxxxxxxxxx |       0.9857 |       0.9857 |       0.9857 |xxxxxxxxxxxxx |xxxxxxxxxxxxx |xxxxxxxxxxxxx |xxxxxxxxxxxxx |       0.9861 |       0.9861 |       0.9861 |xxxxxxxxxxxxx |xxxxxxxxxxxxx |xxxxxxxxxxxxx |xxxxxxxxxxxxx |       0.9857 |       0.9857 |       0.9857 |xxxxxxxxxxxxx |xxxxxxxxxxxxx |xxxxxxxxxxxxx |xxxxxxxxxxxxx |       0.9861 |       0.9861 |       0.9861 |xxxxxxxxxxxxx |xxxxxxxxxxxxx |xxxxxxxxxxxxx |xxxxxxxxxxxxx |       1.0000 |       1.0000 |       1.0000 |xxxxxxxxxxxxx |xxxxxxxxxxxxx |xxxxxxxxxxxxx |xxxxxxxxxxxxx |       1.0000 |       1.0000 |       1.0000 |xxxxxxxxxxxxx |xxxxxxxxxxxxx |xxxxxxxxxxxxx |xxxxxxxxxxxxx |       1.0000 |       1.0000 |       1.0000 |
bpred_2lev.lookups                   xxxxxxxxxxxxx |xxxxxxxxxxxxx |xxxxxxxxxxxxx |       109317 |       109317 |       109317 |       109317 |xxxxxxxxxxxxx |xxxxxxxxxxxxx |xxxxxxxxxxxxx |       235322 |       235322 |       235322 |       235322 |xxxxxxxxxxxxx |xxxxxxxxxxxxx |xxxxxxxxxxxxx |       500564 |       500564 |       500564 |       500564 |xxxxxxxxxxxxx |xxxxxxxxxxxxx |xxxxxxxxxxxxx |      1069997 |      1069997 |      1069997 |      1069997 |xxxxxxxxxxxxx |xxxxxxxxxxxxx |xxxxxxxxxxxxx |      2261765 |      2261765 |      2261765 |      2261765 |xxxxxxxxxxxxx |xxxxxxxxxxxxx |xxxxxxxxxxxxx |      4801425 |      4801425 |      4801425 |      4801425 |xxxxxxxxxxxxx |xxxxxxxxxxxxx |xxxxxxxxxxxxx |     10093413 |     10093413 |     10093413 |     10093413 |xxxxxxxxxxxxx |xxxxxxxxxxxxx |xxxxxxxxxxxxx |     21300397 |     21300397 |     21300397 |     21300397 |xxxxxxxxxxxxx |xxxxxxxxxxxxx |xxxxxxxxxxxxx |     44565951 |     44565951 |     44565951 |     44565951 |xxxxxxxxxxxxx |xxxxxxxxxxxxx |xxxxxxxxxxxxx |     93588344 |     93588344 |     93588344 |     93588344 |xxxxxxxxxxxxx |xxxxxxxxxxxxx |xxxxxxxxxxxxx |    195039293 |    195039293 |    195039293 |    195039293 |
[...]
bpred_2lev.retstack_pushes           xxxxxxxxxxxxx |xxxxxxxxxxxxx |xxxxxxxxxxxxx |           63 |           63 |           63 |           63 |xxxxxxxxxxxxx |xxxxxxxxxxxxx |xxxxxxxxxxxxx |           74 |           74 |           74 |           74 |xxxxxxxxxxxxx |xxxxxxxxxxxxx |xxxxxxxxxxxxx |           72 |           72 |           72 |           72 |xxxxxxxxxxxxx |xxxxxxxxxxxxx |xxxxxxxxxxxxx |           74 |           74 |           74 |           74 |xxxxxxxxxxxxx |xxxxxxxxxxxxx |xxxxxxxxxxxxx |           72 |           72 |           72 |           72 |xxxxxxxxxxxxx |xxxxxxxxxxxxx |xxxxxxxxxxxxx |           74 |           74 |           74 |           74 |xxxxxxxxxxxxx |xxxxxxxxxxxxx |xxxxxxxxxxxxx |           72 |           72 |           72 |           72 |xxxxxxxxxxxxx |xxxxxxxxxxxxx |xxxxxxxxxxxxx |           74 |           74 |           74 |           74 |xxxxxxxxxxxxx |xxxxxxxxxxxxx |xxxxxxxxxxxxx |           74 |           74 |           74 |           74 |xxxxxxxxxxxxx |xxxxxxxxxxxxx |xxxxxxxxxxxxx |           76 |           76 |           76 |           76 |xxxxxxxxxxxxx |xxxxxxxxxxxxx |xxxxxxxxxxxxx |           74 |           74 |           74 |           74 |
bpred_2lev.retstack_pops             xxxxxxxxxxxxx |xxxxxxxxxxxxx |xxxxxxxxxxxxx |           61 |           61 |           61 |           61 |xxxxxxxxxxxxx |xxxxxxxxxxxxx |xxxxxxxxxxxxx |           72 |           72 |           72 |           72 |xxxxxxxxxxxxx |xxxxxxxxxxxxx |xxxxxxxxxxxxx |           70 |           70 |           70 |           70 |xxxxxxxxxxxxx |xxxxxxxxxxxxx |xxxxxxxxxxxxx |           72 |           72 |           72 |           72 |xxxxxxxxxxxxx |xxxxxxxxxxxxx |xxxxxxxxxxxxx |           70 |           70 |           70 |           70 |xxxxxxxxxxxxx |xxxxxxxxxxxxx |xxxxxxxxxxxxx |           72 |           72 |           72 |           72 |xxxxxxxxxxxxx |xxxxxxxxxxxxx |xxxxxxxxxxxxx |           70 |           70 |           70 |           70 |xxxxxxxxxxxxx |xxxxxxxxxxxxx |xxxxxxxxxxxxx |           72 |           72 |           72 |           72 |xxxxxxxxxxxxx |xxxxxxxxxxxxx |xxxxxxxxxxxxx |           72 |           72 |           72 |           72 |xxxxxxxxxxxxx |xxxxxxxxxxxxx |xxxxxxxxxxxxx |           74 |           74 |           74 |           74 |xxxxxxxxxxxxx |xxxxxxxxxxxxx |xxxxxxxxxxxxx |           72 |           72 |           72 |           72 |
bpred_2lev.used_ras.PP               xxxxxxxxxxxxx |xxxxxxxxxxxxx |xxxxxxxxxxxxx |           61 |           61 |           61 |           61 |xxxxxxxxxxxxx |xxxxxxxxxxxxx |xxxxxxxxxxxxx |           72 |           72 |           72 |           72 |xxxxxxxxxxxxx |xxxxxxxxxxxxx |xxxxxxxxxxxxx |           70 |           70 |           70 |           70 |xxxxxxxxxxxxx |xxxxxxxxxxxxx |xxxxxxxxxxxxx |           72 |           72 |           72 |           72 |xxxxxxxxxxxxx |xxxxxxxxxxxxx |xxxxxxxxxxxxx |           70 |           70 |           70 |           70 |xxxxxxxxxxxxx |xxxxxxxxxxxxx |xxxxxxxxxxxxx |           72 |           72 |           72 |           72 |xxxxxxxxxxxxx |xxxxxxxxxxxxx |xxxxxxxxxxxxx |           70 |           70 |           70 |           70 |xxxxxxxxxxxxx |xxxxxxxxxxxxx |xxxxxxxxxxxxx |           72 |           72 |           72 |           72 |xxxxxxxxxxxxx |xxxxxxxxxxxxx |xxxxxxxxxxxxx |           72 |           72 |           72 |           72 |xxxxxxxxxxxxx |xxxxxxxxxxxxx |xxxxxxxxxxxxx |           74 |           74 |           74 |           74 |xxxxxxxxxxxxx |xxxxxxxxxxxxx |xxxxxxxxxxxxx |           72 |           72 |           72 |           72 |
bpred_2lev.ras_hits.PP               xxxxxxxxxxxxx |xxxxxxxxxxxxx |xxxxxxxxxxxxx |           61 |           61 |           61 |           61 |xxxxxxxxxxxxx |xxxxxxxxxxxxx |xxxxxxxxxxxxx |           71 |           71 |           71 |           71 |xxxxxxxxxxxxx |xxxxxxxxxxxxx |xxxxxxxxxxxxx |           69 |           69 |           69 |           69 |xxxxxxxxxxxxx |xxxxxxxxxxxxx |xxxxxxxxxxxxx |           71 |           71 |           71 |           71 |xxxxxxxxxxxxx |xxxxxxxxxxxxx |xxxxxxxxxxxxx |           69 |           69 |           69 |           69 |xxxxxxxxxxxxx |xxxxxxxxxxxxx |xxxxxxxxxxxxx |           71 |           71 |           71 |           71 |xxxxxxxxxxxxx |xxxxxxxxxxxxx |xxxxxxxxxxxxx |           69 |           69 |           69 |           69 |xxxxxxxxxxxxx |xxxxxxxxxxxxx |xxxxxxxxxxxxx |           71 |           71 |           71 |           71 |xxxxxxxxxxxxx |xxxxxxxxxxxxx |xxxxxxxxxxxxx |           72 |           72 |           72 |           72 |xxxxxxxxxxxxx |xxxxxxxxxxxxx |xxxxxxxxxxxxx |           74 |           74 |           74 |           74 |xxxxxxxxxxxxx |xxxxxxxxxxxxx |xxxxxxxxxxxxx |           72 |           72 |           72 |           72 |
bpred_2lev.ras_rate.PP               xxxxxxxxxxxxx |xxxxxxxxxxxxx |xxxxxxxxxxxxx |       1.0000 |       1.0000 |       1.0000 |       1.0000 |xxxxxxxxxxxxx |xxxxxxxxxxxxx |xxxxxxxxxxxxx |       0.9861 |       0.9861 |       0.9861 |       0.9861 |xxxxxxxxxxxxx |xxxxxxxxxxxxx |xxxxxxxxxxxxx |       0.9857 |       0.9857 |       0.9857 |       0.9857 |xxxxxxxxxxxxx |xxxxxxxxxxxxx |xxxxxxxxxxxxx |       0.9861 |       0.9861 |       0.9861 |       0.9861 |xxxxxxxxxxxxx |xxxxxxxxxxxxx |xxxxxxxxxxxxx |       0.9857 |       0.9857 |       0.9857 |       0.9857 |xxxxxxxxxxxxx |xxxxxxxxxxxxx |xxxxxxxxxxxxx |       0.9861 |       0.9861 |       0.9861 |       0.9861 |xxxxxxxxxxxxx |xxxxxxxxxxxxx |xxxxxxxxxxxxx |       0.9857 |       0.9857 |       0.9857 |       0.9857 |xxxxxxxxxxxxx |xxxxxxxxxxxxx |xxxxxxxxxxxxx |       0.9861 |       0.9861 |       0.9861 |       0.9861 |xxxxxxxxxxxxx |xxxxxxxxxxxxx |xxxxxxxxxxxxx |       1.0000 |       1.0000 |       1.0000 |       1.0000 |xxxxxxxxxxxxx |xxxxxxxxxxxxx |xxxxxxxxxxxxx |       1.0000 |       1.0000 |       1.0000 |       1.0000 |xxxxxxxxxxxxx |xxxxxxxxxxxxx |xxxxxxxxxxxxx |       1.0000 |       1.0000 |       1.0000 |       1.0000 |

Command list: 
	sslittle-na-sstrix-gcc -Wall -O3 -funroll-loops -finline-functions  -DRANDOM_SIZE=4096 -DOFFSET=4 -DSORT=algorithm_s sorts/algorithm_s718210562.c simpleMain.c -o algorithm_s1831519428
	sim-cache -cache:dl1 dl1:256:32:1:l -cache:dl2 dl2:131072:32:1:l -cache:il1 il1:256:32:1:l -cache:il2 dl2 algorithm_s1831519428
	sim-cache -cache:dl1 dl1:256:32:1:l -cache:dl2 dl2:65536:32:1:l -cache:il1 il1:256:32:1:l -cache:il2 dl2 algorithm_s1831519428
	sim-cache -cache:dl1 dl1:1:32:256:l -cache:dl2 dl2:1:32:131072:l -cache:il1 il1:1:32:256:l -cache:il2 dl2 algorithm_s1831519428
	sim-cache -cache:dl1 dl1:1:32:256:l -cache:dl2 dl2:1:32:65536:l -cache:il1 il1:1:32:256:l -cache:il2 dl2 algorithm_s1831519428
	sim-bpred -bpred bimod -bpred:bimod 512 algorithm_s1831519428
	sim-bpred -bpred bimod -bpred:bimod 1024 algorithm_s1831519428
	sim-bpred -bpred bimod -bpred:bimod 2048 algorithm_s1831519428
	sim-bpred -bpred 2lev -bpred:2lev 1 512 10 1 algorithm_s1831519428
	sim-bpred -bpred 2lev -bpred:2lev 1 1024 10 1 algorithm_s1831519428
	sim-bpred -bpred 2lev -bpred:2lev 1 2048 10 1 algorithm_s1831519428
	sim-bpred -bpred 2lev -bpred:2lev 1 4096 10 1 algorithm_s1831519428
	sslittle-na-sstrix-gcc -Wall -O3 -funroll-loops -finline-functions  -DRANDOM_SIZE=8192 -DOFFSET=4 -DSORT=algorithm_s sorts/algorithm_s718210562.c simpleMain.c -o algorithm_s1831519428
	sim-cache -cache:dl1 dl1:256:32:1:l -cache:dl2 dl2:131072:32:1:l -cache:il1 il1:256:32:1:l -cache:il2 dl2 algorithm_s1831519428
	sim-cache -cache:dl1 dl1:256:32:1:l -cache:dl2 dl2:65536:32:1:l -cache:il1 il1:256:32:1:l -cache:il2 dl2 algorithm_s1831519428
	sim-cache -cache:dl1 dl1:1:32:256:l -cache:dl2 dl2:1:32:131072:l -cache:il1 il1:1:32:256:l -cache:il2 dl2 algorithm_s1831519428
	sim-cache -cache:dl1 dl1:1:32:256:l -cache:dl2 dl2:1:32:65536:l -cache:il1 il1:1:32:256:l -cache:il2 dl2 algorithm_s1831519428
	sim-bpred -bpred bimod -bpred:bimod 512 algorithm_s1831519428
	sim-bpred -bpred bimod -bpred:bimod 1024 algorithm_s1831519428
	sim-bpred -bpred bimod -bpred:bimod 2048 algorithm_s1831519428
	sim-bpred -bpred 2lev -bpred:2lev 1 512 10 1 algorithm_s1831519428
	sim-bpred -bpred 2lev -bpred:2lev 1 1024 10 1 algorithm_s1831519428
	sim-bpred -bpred 2lev -bpred:2lev 1 2048 10 1 algorithm_s1831519428
	sim-bpred -bpred 2lev -bpred:2lev 1 4096 10 1 algorithm_s1831519428
	sslittle-na-sstrix-gcc -Wall -O3 -funroll-loops -finline-functions  -DRANDOM_SIZE=16384 -DOFFSET=4 -DSORT=algorithm_s sorts/algorithm_s718210562.c simpleMain.c -o algorithm_s1831519428
	sim-cache -cache:dl1 dl1:256:32:1:l -cache:dl2 dl2:131072:32:1:l -cache:il1 il1:256:32:1:l -cache:il2 dl2 algorithm_s1831519428
	sim-cache -cache:dl1 dl1:256:32:1:l -cache:dl2 dl2:65536:32:1:l -cache:il1 il1:256:32:1:l -cache:il2 dl2 algorithm_s1831519428
	sim-cache -cache:dl1 dl1:1:32:256:l -cache:dl2 dl2:1:32:131072:l -cache:il1 il1:1:32:256:l -cache:il2 dl2 algorithm_s1831519428
	sim-cache -cache:dl1 dl1:1:32:256:l -cache:dl2 dl2:1:32:65536:l -cache:il1 il1:1:32:256:l -cache:il2 dl2 algorithm_s1831519428
	sim-bpred -bpred bimod -bpred:bimod 512 algorithm_s1831519428
	sim-bpred -bpred bimod -bpred:bimod 1024 algorithm_s1831519428
	sim-bpred -bpred bimod -bpred:bimod 2048 algorithm_s1831519428
	sim-bpred -bpred 2lev -bpred:2lev 1 512 10 1 algorithm_s1831519428
	sim-bpred -bpred 2lev -bpred:2lev 1 1024 10 1 algorithm_s1831519428
	sim-bpred -bpred 2lev -bpred:2lev 1 2048 10 1 algorithm_s1831519428
	sim-bpred -bpred 2lev -bpred:2lev 1 4096 10 1 algorithm_s1831519428
	sslittle-na-sstrix-gcc -Wall -O3 -funroll-loops -finline-functions  -DRANDOM_SIZE=32768 -DOFFSET=4 -DSORT=algorithm_s sorts/algorithm_s718210562.c simpleMain.c -o algorithm_s1831519428
	sim-cache -cache:dl1 dl1:256:32:1:l -cache:dl2 dl2:131072:32:1:l -cache:il1 il1:256:32:1:l -cache:il2 dl2 algorithm_s1831519428
	sim-cache -cache:dl1 dl1:256:32:1:l -cache:dl2 dl2:65536:32:1:l -cache:il1 il1:256:32:1:l -cache:il2 dl2 algorithm_s1831519428
	sim-cache -cache:dl1 dl1:1:32:256:l -cache:dl2 dl2:1:32:131072:l -cache:il1 il1:1:32:256:l -cache:il2 dl2 algorithm_s1831519428
	sim-cache -cache:dl1 dl1:1:32:256:l -cache:dl2 dl2:1:32:65536:l -cache:il1 il1:1:32:256:l -cache:il2 dl2 algorithm_s1831519428
	sim-bpred -bpred bimod -bpred:bimod 512 algorithm_s1831519428
	sim-bpred -bpred bimod -bpred:bimod 1024 algorithm_s1831519428
	sim-bpred -bpred bimod -bpred:bimod 2048 algorithm_s1831519428
	sim-bpred -bpred 2lev -bpred:2lev 1 512 10 1 algorithm_s1831519428
	sim-bpred -bpred 2lev -bpred:2lev 1 1024 10 1 algorithm_s1831519428
	sim-bpred -bpred 2lev -bpred:2lev 1 2048 10 1 algorithm_s1831519428
	sim-bpred -bpred 2lev -bpred:2lev 1 4096 10 1 algorithm_s1831519428
	sslittle-na-sstrix-gcc -Wall -O3 -funroll-loops -finline-functions  -DRANDOM_SIZE=65536 -DOFFSET=4 -DSORT=algorithm_s sorts/algorithm_s718210562.c simpleMain.c -o algorithm_s1831519428
	sim-cache -cache:dl1 dl1:256:32:1:l -cache:dl2 dl2:131072:32:1:l -cache:il1 il1:256:32:1:l -cache:il2 dl2 algorithm_s1831519428
	sim-cache -cache:dl1 dl1:256:32:1:l -cache:dl2 dl2:65536:32:1:l -cache:il1 il1:256:32:1:l -cache:il2 dl2 algorithm_s1831519428
	sim-cache -cache:dl1 dl1:1:32:256:l -cache:dl2 dl2:1:32:131072:l -cache:il1 il1:1:32:256:l -cache:il2 dl2 algorithm_s1831519428
	sim-cache -cache:dl1 dl1:1:32:256:l -cache:dl2 dl2:1:32:65536:l -cache:il1 il1:1:32:256:l -cache:il2 dl2 algorithm_s1831519428
	sim-bpred -bpred bimod -bpred:bimod 512 algorithm_s1831519428
	sim-bpred -bpred bimod -bpred:bimod 1024 algorithm_s1831519428
	sim-bpred -bpred bimod -bpred:bimod 2048 algorithm_s1831519428
	sim-bpred -bpred 2lev -bpred:2lev 1 512 10 1 algorithm_s1831519428
	sim-bpred -bpred 2lev -bpred:2lev 1 1024 10 1 algorithm_s1831519428
	sim-bpred -bpred 2lev -bpred:2lev 1 2048 10 1 algorithm_s1831519428
	sim-bpred -bpred 2lev -bpred:2lev 1 4096 10 1 algorithm_s1831519428
	sslittle-na-sstrix-gcc -Wall -O3 -funroll-loops -finline-functions  -DRANDOM_SIZE=131072 -DOFFSET=4 -DSORT=algorithm_s sorts/algorithm_s718210562.c simpleMain.c -o algorithm_s1831519428
	sim-cache -cache:dl1 dl1:256:32:1:l -cache:dl2 dl2:131072:32:1:l -cache:il1 il1:256:32:1:l -cache:il2 dl2 algorithm_s1831519428
	sim-cache -cache:dl1 dl1:256:32:1:l -cache:dl2 dl2:65536:32:1:l -cache:il1 il1:256:32:1:l -cache:il2 dl2 algorithm_s1831519428
	sim-cache -cache:dl1 dl1:1:32:256:l -cache:dl2 dl2:1:32:131072:l -cache:il1 il1:1:32:256:l -cache:il2 dl2 algorithm_s1831519428
	sim-cache -cache:dl1 dl1:1:32:256:l -cache:dl2 dl2:1:32:65536:l -cache:il1 il1:1:32:256:l -cache:il2 dl2 algorithm_s1831519428
	sim-bpred -bpred bimod -bpred:bimod 512 algorithm_s1831519428
	sim-bpred -bpred bimod -bpred:bimod 1024 algorithm_s1831519428
	sim-bpred -bpred bimod -bpred:bimod 2048 algorithm_s1831519428
	sim-bpred -bpred 2lev -bpred:2lev 1 512 10 1 algorithm_s1831519428
	sim-bpred -bpred 2lev -bpred:2lev 1 1024 10 1 algorithm_s1831519428
	sim-bpred -bpred 2lev -bpred:2lev 1 2048 10 1 algorithm_s1831519428
	sim-bpred -bpred 2lev -bpred:2lev 1 4096 10 1 algorithm_s1831519428
	sslittle-na-sstrix-gcc -Wall -O3 -funroll-loops -finline-functions  -DRANDOM_SIZE=262144 -DOFFSET=4 -DSORT=algorithm_s sorts/algorithm_s718210562.c simpleMain.c -o algorithm_s1831519428
	sim-cache -cache:dl1 dl1:256:32:1:l -cache:dl2 dl2:131072:32:1:l -cache:il1 il1:256:32:1:l -cache:il2 dl2 algorithm_s1831519428
	sim-cache -cache:dl1 dl1:256:32:1:l -cache:dl2 dl2:65536:32:1:l -cache:il1 il1:256:32:1:l -cache:il2 dl2 algorithm_s1831519428
	sim-cache -cache:dl1 dl1:1:32:256:l -cache:dl2 dl2:1:32:131072:l -cache:il1 il1:1:32:256:l -cache:il2 dl2 algorithm_s1831519428
	sim-cache -cache:dl1 dl1:1:32:256:l -cache:dl2 dl2:1:32:65536:l -cache:il1 il1:1:32:256:l -cache:il2 dl2 algorithm_s1831519428
	sim-bpred -bpred bimod -bpred:bimod 512 algorithm_s1831519428
	sim-bpred -bpred bimod -bpred:bimod 1024 algorithm_s1831519428
	sim-bpred -bpred bimod -bpred:bimod 2048 algorithm_s1831519428
	sim-bpred -bpred 2lev -bpred:2lev 1 512 10 1 algorithm_s1831519428
	sim-bpred -bpred 2lev -bpred:2lev 1 1024 10 1 algorithm_s1831519428
	sim-bpred -bpred 2lev -bpred:2lev 1 2048 10 1 algorithm_s1831519428
	sim-bpred -bpred 2lev -bpred:2lev 1 4096 10 1 algorithm_s1831519428
	sslittle-na-sstrix-gcc -Wall -O3 -funroll-loops -finline-functions  -DRANDOM_SIZE=524288 -DOFFSET=4 -DSORT=algorithm_s sorts/algorithm_s718210562.c simpleMain.c -o algorithm_s1831519428
	sim-cache -cache:dl1 dl1:256:32:1:l -cache:dl2 dl2:131072:32:1:l -cache:il1 il1:256:32:1:l -cache:il2 dl2 algorithm_s1831519428
	sim-cache -cache:dl1 dl1:256:32:1:l -cache:dl2 dl2:65536:32:1:l -cache:il1 il1:256:32:1:l -cache:il2 dl2 algorithm_s1831519428
	sim-cache -cache:dl1 dl1:1:32:256:l -cache:dl2 dl2:1:32:131072:l -cache:il1 il1:1:32:256:l -cache:il2 dl2 algorithm_s1831519428
	sim-cache -cache:dl1 dl1:1:32:256:l -cache:dl2 dl2:1:32:65536:l -cache:il1 il1:1:32:256:l -cache:il2 dl2 algorithm_s1831519428
	sim-bpred -bpred bimod -bpred:bimod 512 algorithm_s1831519428
	sim-bpred -bpred bimod -bpred:bimod 1024 algorithm_s1831519428
	sim-bpred -bpred bimod -bpred:bimod 2048 algorithm_s1831519428
	sim-bpred -bpred 2lev -bpred:2lev 1 512 10 1 algorithm_s1831519428
	sim-bpred -bpred 2lev -bpred:2lev 1 1024 10 1 algorithm_s1831519428
	sim-bpred -bpred 2lev -bpred:2lev 1 2048 10 1 algorithm_s1831519428
	sim-bpred -bpred 2lev -bpred:2lev 1 4096 10 1 algorithm_s1831519428
	sslittle-na-sstrix-gcc -Wall -O3 -funroll-loops -finline-functions  -DRANDOM_SIZE=1048576 -DOFFSET=4 -DSORT=algorithm_s sorts/algorithm_s718210562.c simpleMain.c -o algorithm_s1831519428
	sim-cache -cache:dl1 dl1:256:32:1:l -cache:dl2 dl2:131072:32:1:l -cache:il1 il1:256:32:1:l -cache:il2 dl2 algorithm_s1831519428
	sim-cache -cache:dl1 dl1:256:32:1:l -cache:dl2 dl2:65536:32:1:l -cache:il1 il1:256:32:1:l -cache:il2 dl2 algorithm_s1831519428
	sim-cache -cache:dl1 dl1:1:32:256:l -cache:dl2 dl2:1:32:131072:l -cache:il1 il1:1:32:256:l -cache:il2 dl2 algorithm_s1831519428
	sim-cache -cache:dl1 dl1:1:32:256:l -cache:dl2 dl2:1:32:65536:l -cache:il1 il1:1:32:256:l -cache:il2 dl2 algorithm_s1831519428
	sim-bpred -bpred bimod -bpred:bimod 512 algorithm_s1831519428
	sim-bpred -bpred bimod -bpred:bimod 1024 algorithm_s1831519428
	sim-bpred -bpred bimod -bpred:bimod 2048 algorithm_s1831519428
	sim-bpred -bpred 2lev -bpred:2lev 1 512 10 1 algorithm_s1831519428
	sim-bpred -bpred 2lev -bpred:2lev 1 1024 10 1 algorithm_s1831519428
	sim-bpred -bpred 2lev -bpred:2lev 1 2048 10 1 algorithm_s1831519428
	sim-bpred -bpred 2lev -bpred:2lev 1 4096 10 1 algorithm_s1831519428
	sslittle-na-sstrix-gcc -Wall -O3 -funroll-loops -finline-functions  -DRANDOM_SIZE=2097152 -DOFFSET=4 -DSORT=algorithm_s sorts/algorithm_s718210562.c simpleMain.c -o algorithm_s1831519428
	sim-cache -cache:dl1 dl1:256:32:1:l -cache:dl2 dl2:131072:32:1:l -cache:il1 il1:256:32:1:l -cache:il2 dl2 algorithm_s1831519428
	sim-cache -cache:dl1 dl1:256:32:1:l -cache:dl2 dl2:65536:32:1:l -cache:il1 il1:256:32:1:l -cache:il2 dl2 algorithm_s1831519428
	sim-cache -cache:dl1 dl1:1:32:256:l -cache:dl2 dl2:1:32:131072:l -cache:il1 il1:1:32:256:l -cache:il2 dl2 algorithm_s1831519428
	sim-cache -cache:dl1 dl1:1:32:256:l -cache:dl2 dl2:1:32:65536:l -cache:il1 il1:1:32:256:l -cache:il2 dl2 algorithm_s1831519428
	sim-bpred -bpred bimod -bpred:bimod 512 algorithm_s1831519428
	sim-bpred -bpred bimod -bpred:bimod 1024 algorithm_s1831519428
	sim-bpred -bpred bimod -bpred:bimod 2048 algorithm_s1831519428
	sim-bpred -bpred 2lev -bpred:2lev 1 512 10 1 algorithm_s1831519428
	sim-bpred -bpred 2lev -bpred:2lev 1 1024 10 1 algorithm_s1831519428
	sim-bpred -bpred 2lev -bpred:2lev 1 2048 10 1 algorithm_s1831519428
	sim-bpred -bpred 2lev -bpred:2lev 1 4096 10 1 algorithm_s1831519428
	sslittle-na-sstrix-gcc -Wall -O3 -funroll-loops -finline-functions  -DRANDOM_SIZE=4194304 -DOFFSET=4 -DSORT=algorithm_s sorts/algorithm_s718210562.c simpleMain.c -o algorithm_s1831519428
	sim-cache -cache:dl1 dl1:256:32:1:l -cache:dl2 dl2:131072:32:1:l -cache:il1 il1:256:32:1:l -cache:il2 dl2 algorithm_s1831519428
	sim-cache -cache:dl1 dl1:256:32:1:l -cache:dl2 dl2:65536:32:1:l -cache:il1 il1:256:32:1:l -cache:il2 dl2 algorithm_s1831519428
	sim-cache -cache:dl1 dl1:1:32:256:l -cache:dl2 dl2:1:32:131072:l -cache:il1 il1:1:32:256:l -cache:il2 dl2 algorithm_s1831519428
	sim-cache -cache:dl1 dl1:1:32:256:l -cache:dl2 dl2:1:32:65536:l -cache:il1 il1:1:32:256:l -cache:il2 dl2 algorithm_s1831519428
	sim-bpred -bpred bimod -bpred:bimod 512 algorithm_s1831519428
	sim-bpred -bpred bimod -bpred:bimod 1024 algorithm_s1831519428
	sim-bpred -bpred bimod -bpred:bimod 2048 algorithm_s1831519428
	sim-bpred -bpred 2lev -bpred:2lev 1 512 10 1 algorithm_s1831519428
	sim-bpred -bpred 2lev -bpred:2lev 1 1024 10 1 algorithm_s1831519428
	sim-bpred -bpred 2lev -bpred:2lev 1 2048 10 1 algorithm_s1831519428
	sim-bpred -bpred 2lev -bpred:2lev 1 4096 10 1 algorithm_s1831519428
