Wed Jun 22 13:14:42 2005
Run as: "./do_simple -c random.org1 -o 1 knuth_base_mergesort"
-------------------------------------------------------------------------------------------------
sim-cache                                     4096 |         4096 |         4096 |         4096 |         8192 |         8192 |         8192 |         8192 |        16384 |        16384 |        16384 |        16384 |        32768 |        32768 |        32768 |        32768 |        65536 |        65536 |        65536 |        65536 |       131072 |       131072 |       131072 |       131072 |       262144 |       262144 |       262144 |       262144 |       524288 |       524288 |       524288 |       524288 |      1048576 |      1048576 |      1048576 |      1048576 |      2097152 |      2097152 |      2097152 |      2097152 |      4194304 |      4194304 |      4194304 |      4194304 |
-cache:dl1 dl1:256:32:1:l -cache:dl2 dl2:131072:32:1:l -cache:il1 il1:256:32:1:l -cache:il2 dl2
-cache:dl1 dl1:256:32:1:l -cache:dl2 dl2:65536:32:1:l -cache:il1 il1:256:32:1:l -cache:il2 dl2
-cache:dl1 dl1:1:32:256:l -cache:dl2 dl2:1:32:131072:l -cache:il1 il1:1:32:256:l -cache:il2 dl2
-cache:dl1 dl1:1:32:256:l -cache:dl2 dl2:1:32:65536:l -cache:il1 il1:1:32:256:l -cache:il2 dl2
-------------------------------------------------------------------------------------------------
sim_num_insn                                891931 |       891931 |       891931 |       891931 |      1916804 |      1916804 |      1916804 |      1916804 |      4187270 |      4187270 |      4187270 |      4187270 |      8922662 |      8922662 |      8922662 |      8922662 |     19282587 |     19282587 |     19282587 |     19282587 |     40784171 |     40784171 |     40784171 |     40784171 |     87331142 |     87331142 |     87331142 |     87331142 |    183563588 |    183563588 |    183563588 |    183563588 |    390207076 |    390207076 |    390207076 |    390207076 |    816066137 |    816066137 |    816066137 |    816066137 |   1724405681 |   1724405681 |   1724405681 |   1724405681 |
sim_num_refs                                234156 |       234156 |       234156 |       234156 |       489162 |       489162 |       489162 |       489162 |      1089254 |      1089254 |      1089254 |      1089254 |      2272628 |      2272628 |      2272628 |      2272628 |      5000609 |      5000609 |      5000609 |      5000609 |     10390380 |     10390380 |     10390380 |     10390380 |     22612228 |     22612228 |     22612228 |     22612228 |     46792874 |     46792874 |     46792874 |     46792874 |    100932390 |    100932390 |    100932390 |    100932390 |    208149707 |    208149707 |    208149707 |    208149707 |    445655188 |    445655188 |    445655188 |    445655188 |
sim_elapsed_time                                 1 |            1 |            9 |            4 |            1 |            1 |           14 |            7 |            1 |            1 |           24 |           13 |            2 |            2 |           45 |           23 |            5 |            5 |           84 |           42 |           11 |           10 |          154 |           72 |           23 |           22 |          266 |          104 |           46 |           46 |          371 |          131 |           99 |           99 |          431 |          191 |          206 |          206 |          552 |          312 |          436 |          436 |          815 |          574 |
sim_inst_rate                          891931.0000 |  891931.0000 |   99103.4444 |  222982.7500 | 1916804.0000 | 1916804.0000 |  136914.5714 |  273829.1429 | 4187270.0000 | 4187270.0000 |  174469.5833 |  322097.6923 | 4461331.0000 | 4461331.0000 |  198281.3778 |  387941.8261 | 3856517.4000 | 3856517.4000 |  229554.6071 |  459109.2143 | 3707651.9091 | 4078417.1000 |  264832.2792 |  566446.8194 | 3797006.1739 | 3969597.3636 |  328312.5639 |  839722.5192 | 3990512.7826 | 3990512.7826 |  494780.5606 | 1401248.7634 | 3941485.6162 | 3941485.6162 |  905352.8445 | 2042968.9843 | 3961486.1019 | 3961486.1019 | 1478380.6830 | 2615596.5929 | 3955058.9014 | 3955058.9014 | 2115835.1914 | 3004191.0819 |
il1.accesses                                891931 |       891931 |       891931 |       891931 |      1916804 |      1916804 |      1916804 |      1916804 |      4187270 |      4187270 |      4187270 |      4187270 |      8922662 |      8922662 |      8922662 |      8922662 |     19282587 |     19282587 |     19282587 |     19282587 |     40784171 |     40784171 |     40784171 |     40784171 |     87331142 |     87331142 |     87331142 |     87331142 |    183563588 |    183563588 |    183563588 |    183563588 |    390207076 |    390207076 |    390207076 |    390207076 |    816066137 |    816066137 |    816066137 |    816066137 |   1724405681 |   1724405681 |   1724405681 |   1724405681 |
il1.hits                                    891497 |       891497 |       891562 |       891562 |      1916359 |      1916359 |      1916468 |      1916468 |      4186812 |      4186812 |      4186909 |      4186909 |      8922214 |      8922214 |      8922324 |      8922324 |     19282116 |     19282116 |     19282226 |     19282226 |     40783724 |     40783724 |     40783833 |     40783833 |     87330672 |     87330672 |     87330781 |     87330781 |    183563141 |    183563141 |    183563250 |    183563250 |    390206598 |    390206598 |    390206675 |    390206675 |    816065666 |    816065666 |    816065740 |    816065740 |   1724405203 |   1724405203 |   1724405280 |   1724405280 |
il1.misses                                     434 |          434 |          369 |          369 |          445 |          445 |          336 |          336 |          458 |          458 |          361 |          361 |          448 |          448 |          338 |          338 |          471 |          471 |          361 |          361 |          447 |          447 |          338 |          338 |          470 |          470 |          361 |          361 |          447 |          447 |          338 |          338 |          478 |          478 |          401 |          401 |          471 |          471 |          397 |          397 |          478 |          478 |          401 |          401 |
il1.replacements                               227 |          227 |          113 |          113 |          263 |          263 |           80 |           80 |          257 |          257 |          105 |          105 |          266 |          266 |           82 |           82 |          270 |          270 |          105 |          105 |          265 |          265 |           82 |           82 |          269 |          269 |          105 |          105 |          265 |          265 |           82 |           82 |          257 |          257 |          145 |          145 |          250 |          250 |          141 |          141 |          257 |          257 |          145 |          145 |
il1.writebacks                                   0 |            0 |            0 |            0 |            0 |            0 |            0 |            0 |            0 |            0 |            0 |            0 |            0 |            0 |            0 |            0 |            0 |            0 |            0 |            0 |            0 |            0 |            0 |            0 |            0 |            0 |            0 |            0 |            0 |            0 |            0 |            0 |            0 |            0 |            0 |            0 |            0 |            0 |            0 |            0 |            0 |            0 |            0 |            0 |
il1.invalidations                                0 |            0 |            0 |            0 |            0 |            0 |            0 |            0 |            0 |            0 |            0 |            0 |            0 |            0 |            0 |            0 |            0 |            0 |            0 |            0 |            0 |            0 |            0 |            0 |            0 |            0 |            0 |            0 |            0 |            0 |            0 |            0 |            0 |            0 |            0 |            0 |            0 |            0 |            0 |            0 |            0 |            0 |            0 |            0 |
il1.miss_rate                               0.0005 |       0.0005 |       0.0004 |       0.0004 |       0.0002 |       0.0002 |       0.0002 |       0.0002 |       0.0001 |       0.0001 |       0.0001 |       0.0001 |       0.0001 |       0.0001 |       0.0000 |       0.0000 |       0.0000 |       0.0000 |       0.0000 |       0.0000 |       0.0000 |       0.0000 |       0.0000 |       0.0000 |       0.0000 |       0.0000 |       0.0000 |       0.0000 |       0.0000 |       0.0000 |       0.0000 |       0.0000 |       0.0000 |       0.0000 |       0.0000 |       0.0000 |       0.0000 |       0.0000 |       0.0000 |       0.0000 |       0.0000 |       0.0000 |       0.0000 |       0.0000 |
il1.repl_rate                               0.0003 |       0.0003 |       0.0001 |       0.0001 |       0.0001 |       0.0001 |       0.0000 |       0.0000 |       0.0001 |       0.0001 |       0.0000 |       0.0000 |       0.0000 |       0.0000 |       0.0000 |       0.0000 |       0.0000 |       0.0000 |       0.0000 |       0.0000 |       0.0000 |       0.0000 |       0.0000 |       0.0000 |       0.0000 |       0.0000 |       0.0000 |       0.0000 |       0.0000 |       0.0000 |       0.0000 |       0.0000 |       0.0000 |       0.0000 |       0.0000 |       0.0000 |       0.0000 |       0.0000 |       0.0000 |       0.0000 |       0.0000 |       0.0000 |       0.0000 |       0.0000 |
il1.wb_rate                                 0.0000 |       0.0000 |       0.0000 |       0.0000 |       0.0000 |       0.0000 |       0.0000 |       0.0000 |       0.0000 |       0.0000 |       0.0000 |       0.0000 |       0.0000 |       0.0000 |       0.0000 |       0.0000 |       0.0000 |       0.0000 |       0.0000 |       0.0000 |       0.0000 |       0.0000 |       0.0000 |       0.0000 |       0.0000 |       0.0000 |       0.0000 |       0.0000 |       0.0000 |       0.0000 |       0.0000 |       0.0000 |       0.0000 |       0.0000 |       0.0000 |       0.0000 |       0.0000 |       0.0000 |       0.0000 |       0.0000 |       0.0000 |       0.0000 |       0.0000 |       0.0000 |
il1.inv_rate                                0.0000 |       0.0000 |       0.0000 |       0.0000 |       0.0000 |       0.0000 |       0.0000 |       0.0000 |       0.0000 |       0.0000 |       0.0000 |       0.0000 |       0.0000 |       0.0000 |       0.0000 |       0.0000 |       0.0000 |       0.0000 |       0.0000 |       0.0000 |       0.0000 |       0.0000 |       0.0000 |       0.0000 |       0.0000 |       0.0000 |       0.0000 |       0.0000 |       0.0000 |       0.0000 |       0.0000 |       0.0000 |       0.0000 |       0.0000 |       0.0000 |       0.0000 |       0.0000 |       0.0000 |       0.0000 |       0.0000 |       0.0000 |       0.0000 |       0.0000 |       0.0000 |
dl1.accesses                                250622 |       250622 |       250622 |       250622 |       522012 |       522012 |       522012 |       522012 |      1154872 |      1154872 |      1154872 |      1154872 |      2403782 |      2403782 |      2403782 |      2403782 |      5262835 |      5262835 |      5262835 |      5262835 |     10914750 |     10914750 |     10914750 |     10914750 |     23660886 |     23660886 |     23660886 |     23660886 |     48890108 |     48890108 |     48890108 |     48890108 |    105126776 |    105126776 |    105126776 |    105126776 |    216538397 |    216538397 |    216538397 |    216538397 |    462432486 |    462432486 |    462432486 |    462432486 |
dl1.hits                                    236777 |       236777 |       237356 |       237356 |       494452 |       494452 |       495941 |       495941 |      1091349 |      1091349 |      1094991 |      1094991 |      2276319 |      2276319 |      2284489 |      2284489 |      4973394 |      4973394 |      4991926 |      4991926 |     10333547 |     10333547 |     10373408 |     10373408 |     22363249 |     22363249 |     22447583 |     22447583 |     46276512 |     46276512 |     46463962 |     46463962 |     99353143 |     99353143 |     99749515 |     99749515 |    204942933 |    204942933 |    205784679 |    205784679 |    436817694 |    436817694 |    438828827 |    438828827 |
dl1.misses                                   13845 |        13845 |        13266 |        13266 |        27560 |        27560 |        26071 |        26071 |        63523 |        63523 |        59881 |        59881 |       127463 |       127463 |       119293 |       119293 |       289441 |       289441 |       270909 |       270909 |       581203 |       581203 |       541342 |       541342 |      1297637 |      1297637 |      1213303 |      1213303 |      2613596 |      2613596 |      2426146 |      2426146 |      5773633 |      5773633 |      5377261 |      5377261 |     11595464 |     11595464 |     10753718 |     10753718 |     25614792 |     25614792 |     23603659 |     23603659 |
dl1.replacements                             13589 |        13589 |        13010 |        13010 |        27304 |        27304 |        25815 |        25815 |        63267 |        63267 |        59625 |        59625 |       127207 |       127207 |       119037 |       119037 |       289185 |       289185 |       270653 |       270653 |       580947 |       580947 |       541086 |       541086 |      1297381 |      1297381 |      1213047 |      1213047 |      2613340 |      2613340 |      2425890 |      2425890 |      5773377 |      5773377 |      5377005 |      5377005 |     11595208 |     11595208 |     10753462 |     10753462 |     25614536 |     25614536 |     23603403 |     23603403 |
dl1.writebacks                                7155 |         7155 |         6963 |         6963 |        14144 |        14144 |        13624 |        13624 |        32148 |        32148 |        31048 |        31048 |        64156 |        64156 |        61789 |        61789 |       144995 |       144995 |       139675 |       139675 |       290449 |       290449 |       279037 |       279037 |       647618 |       647618 |       623316 |       623316 |      1301848 |      1301848 |      1246336 |      1246336 |      2871824 |      2871824 |      2755270 |      2755270 |      5759298 |      5759298 |      5510288 |      5510288 |     12708044 |     12708044 |     12068771 |     12068771 |
dl1.invalidations                                0 |            0 |            0 |            0 |            0 |            0 |            0 |            0 |            0 |            0 |            0 |            0 |            0 |            0 |            0 |            0 |            0 |            0 |            0 |            0 |            0 |            0 |            0 |            0 |            0 |            0 |            0 |            0 |            0 |            0 |            0 |            0 |            0 |            0 |            0 |            0 |            0 |            0 |            0 |            0 |            0 |            0 |            0 |            0 |
dl1.miss_rate                               0.0552 |       0.0552 |       0.0529 |       0.0529 |       0.0528 |       0.0528 |       0.0499 |       0.0499 |       0.0550 |       0.0550 |       0.0519 |       0.0519 |       0.0530 |       0.0530 |       0.0496 |       0.0496 |       0.0550 |       0.0550 |       0.0515 |       0.0515 |       0.0532 |       0.0532 |       0.0496 |       0.0496 |       0.0548 |       0.0548 |       0.0513 |       0.0513 |       0.0535 |       0.0535 |       0.0496 |       0.0496 |       0.0549 |       0.0549 |       0.0512 |       0.0512 |       0.0535 |       0.0535 |       0.0497 |       0.0497 |       0.0554 |       0.0554 |       0.0510 |       0.0510 |
dl1.repl_rate                               0.0542 |       0.0542 |       0.0519 |       0.0519 |       0.0523 |       0.0523 |       0.0495 |       0.0495 |       0.0548 |       0.0548 |       0.0516 |       0.0516 |       0.0529 |       0.0529 |       0.0495 |       0.0495 |       0.0549 |       0.0549 |       0.0514 |       0.0514 |       0.0532 |       0.0532 |       0.0496 |       0.0496 |       0.0548 |       0.0548 |       0.0513 |       0.0513 |       0.0535 |       0.0535 |       0.0496 |       0.0496 |       0.0549 |       0.0549 |       0.0511 |       0.0511 |       0.0535 |       0.0535 |       0.0497 |       0.0497 |       0.0554 |       0.0554 |       0.0510 |       0.0510 |
dl1.wb_rate                                 0.0285 |       0.0285 |       0.0278 |       0.0278 |       0.0271 |       0.0271 |       0.0261 |       0.0261 |       0.0278 |       0.0278 |       0.0269 |       0.0269 |       0.0267 |       0.0267 |       0.0257 |       0.0257 |       0.0276 |       0.0276 |       0.0265 |       0.0265 |       0.0266 |       0.0266 |       0.0256 |       0.0256 |       0.0274 |       0.0274 |       0.0263 |       0.0263 |       0.0266 |       0.0266 |       0.0255 |       0.0255 |       0.0273 |       0.0273 |       0.0262 |       0.0262 |       0.0266 |       0.0266 |       0.0254 |       0.0254 |       0.0275 |       0.0275 |       0.0261 |       0.0261 |
dl1.inv_rate                                0.0000 |       0.0000 |       0.0000 |       0.0000 |       0.0000 |       0.0000 |       0.0000 |       0.0000 |       0.0000 |       0.0000 |       0.0000 |       0.0000 |       0.0000 |       0.0000 |       0.0000 |       0.0000 |       0.0000 |       0.0000 |       0.0000 |       0.0000 |       0.0000 |       0.0000 |       0.0000 |       0.0000 |       0.0000 |       0.0000 |       0.0000 |       0.0000 |       0.0000 |       0.0000 |       0.0000 |       0.0000 |       0.0000 |       0.0000 |       0.0000 |       0.0000 |       0.0000 |       0.0000 |       0.0000 |       0.0000 |       0.0000 |       0.0000 |       0.0000 |       0.0000 |
dl2.accesses                                 21434 |        21434 |        20598 |        20598 |        42149 |        42149 |        40031 |        40031 |        96129 |        96129 |        91290 |        91290 |       192067 |       192067 |       181420 |       181420 |       434907 |       434907 |       410945 |       410945 |       872099 |       872099 |       820717 |       820717 |      1945725 |      1945725 |      1836980 |      1836980 |      3915891 |      3915891 |      3672820 |      3672820 |      8645935 |      8645935 |      8132932 |      8132932 |     17355233 |     17355233 |     16264403 |     16264403 |     38323314 |     38323314 |     35672831 |     35672831 |
dl2.hits                                     19610 |        19610 |        18792 |        18792 |        39328 |        39328 |        37235 |        37235 |        91231 |        91231 |        86419 |        86419 |       183100 |       183100 |       172478 |       172478 |       417725 |       417725 |       393787 |       393787 |       838557 |       838557 |       787199 |       787199 |      1879390 |      1824031 |      1770670 |      1535007 |      3729250 |      1710813 |      3043320 |      1263876 |      3875504 |      3311690 |      2790717 |      2773420 |      6684397 |      6631726 |      5546393 |      5529990 |     14783253 |     14747424 |     12107795 |     12091418 |
dl2.misses                                    1824 |         1824 |         1806 |         1806 |         2821 |         2821 |         2796 |         2796 |         4898 |         4898 |         4871 |         4871 |         8967 |         8967 |         8942 |         8942 |        17182 |        17182 |        17158 |        17158 |        33542 |        33542 |        33518 |        33518 |        66335 |       121694 |        66310 |       301973 |       186641 |      2205078 |       629500 |      2408944 |      4770431 |      5334245 |      5342215 |      5359512 |     10670836 |     10723507 |     10718010 |     10734413 |     23540061 |     23575890 |     23565036 |     23581413 |
dl2.replacements                               196 |          196 |            0 |            0 |          205 |          205 |            0 |            0 |          240 |          240 |            0 |            0 |          225 |          225 |            0 |            0 |          233 |          233 |            0 |            0 |          224 |          224 |            0 |            0 |          234 |        57264 |            0 |       236437 |        56690 |      2139542 |       498428 |      2343408 |      4639359 |      5268709 |      5211143 |      5293976 |     10539764 |     10657971 |     10586938 |     10668877 |     23408989 |     23510354 |     23433964 |     23515877 |
dl2.writebacks                                 122 |          122 |            0 |            0 |          128 |          128 |            0 |            0 |          160 |          160 |            0 |            0 |          147 |          147 |            0 |            0 |          156 |          156 |            0 |            0 |          147 |          147 |            0 |            0 |          156 |        31886 |            0 |       236050 |        31318 |      1223444 |       497208 |      1212863 |      2625153 |      2690845 |      2688190 |      2720961 |      5423244 |      5467488 |      5441468 |      5474244 |     11936097 |     12002444 |     11996615 |     12029396 |
dl2.invalidations                                0 |            0 |            0 |            0 |            0 |            0 |            0 |            0 |            0 |            0 |            0 |            0 |            0 |            0 |            0 |            0 |            0 |            0 |            0 |            0 |            0 |            0 |            0 |            0 |            0 |            0 |            0 |            0 |            0 |            0 |            0 |            0 |            0 |            0 |            0 |            0 |            0 |            0 |            0 |            0 |            0 |            0 |            0 |            0 |
dl2.miss_rate                               0.0851 |       0.0851 |       0.0877 |       0.0877 |       0.0669 |       0.0669 |       0.0698 |       0.0698 |       0.0510 |       0.0510 |       0.0534 |       0.0534 |       0.0467 |       0.0467 |       0.0493 |       0.0493 |       0.0395 |       0.0395 |       0.0418 |       0.0418 |       0.0385 |       0.0385 |       0.0408 |       0.0408 |       0.0341 |       0.0625 |       0.0361 |       0.1644 |       0.0477 |       0.5631 |       0.1714 |       0.6559 |       0.5518 |       0.6170 |       0.6569 |       0.6590 |       0.6148 |       0.6179 |       0.6590 |       0.6600 |       0.6142 |       0.6152 |       0.6606 |       0.6610 |
dl2.repl_rate                               0.0091 |       0.0091 |       0.0000 |       0.0000 |       0.0049 |       0.0049 |       0.0000 |       0.0000 |       0.0025 |       0.0025 |       0.0000 |       0.0000 |       0.0012 |       0.0012 |       0.0000 |       0.0000 |       0.0005 |       0.0005 |       0.0000 |       0.0000 |       0.0003 |       0.0003 |       0.0000 |       0.0000 |       0.0001 |       0.0294 |       0.0000 |       0.1287 |       0.0145 |       0.5464 |       0.1357 |       0.6380 |       0.5366 |       0.6094 |       0.6407 |       0.6509 |       0.6073 |       0.6141 |       0.6509 |       0.6560 |       0.6108 |       0.6135 |       0.6569 |       0.6592 |
dl2.wb_rate                                 0.0057 |       0.0057 |       0.0000 |       0.0000 |       0.0030 |       0.0030 |       0.0000 |       0.0000 |       0.0017 |       0.0017 |       0.0000 |       0.0000 |       0.0008 |       0.0008 |       0.0000 |       0.0000 |       0.0004 |       0.0004 |       0.0000 |       0.0000 |       0.0002 |       0.0002 |       0.0000 |       0.0000 |       0.0001 |       0.0164 |       0.0000 |       0.1285 |       0.0080 |       0.3124 |       0.1354 |       0.3302 |       0.3036 |       0.3112 |       0.3305 |       0.3346 |       0.3125 |       0.3150 |       0.3346 |       0.3366 |       0.3115 |       0.3132 |       0.3363 |       0.3372 |
dl2.inv_rate                                0.0000 |       0.0000 |       0.0000 |       0.0000 |       0.0000 |       0.0000 |       0.0000 |       0.0000 |       0.0000 |       0.0000 |       0.0000 |       0.0000 |       0.0000 |       0.0000 |       0.0000 |       0.0000 |       0.0000 |       0.0000 |       0.0000 |       0.0000 |       0.0000 |       0.0000 |       0.0000 |       0.0000 |       0.0000 |       0.0000 |       0.0000 |       0.0000 |       0.0000 |       0.0000 |       0.0000 |       0.0000 |       0.0000 |       0.0000 |       0.0000 |       0.0000 |       0.0000 |       0.0000 |       0.0000 |       0.0000 |       0.0000 |       0.0000 |       0.0000 |       0.0000 |
itlb.accesses                               891931 |       891931 |       891931 |       891931 |      1916804 |      1916804 |      1916804 |      1916804 |      4187270 |      4187270 |      4187270 |      4187270 |      8922662 |      8922662 |      8922662 |      8922662 |     19282587 |     19282587 |     19282587 |     19282587 |     40784171 |     40784171 |     40784171 |     40784171 |     87331142 |     87331142 |     87331142 |     87331142 |    183563588 |    183563588 |    183563588 |    183563588 |    390207076 |    390207076 |    390207076 |    390207076 |    816066137 |    816066137 |    816066137 |    816066137 |   1724405681 |   1724405681 |   1724405681 |   1724405681 |
itlb.hits                                   891922 |       891922 |       891922 |       891922 |      1916795 |      1916795 |      1916795 |      1916795 |      4187261 |      4187261 |      4187261 |      4187261 |      8922653 |      8922653 |      8922653 |      8922653 |     19282578 |     19282578 |     19282578 |     19282578 |     40784162 |     40784162 |     40784162 |     40784162 |     87331133 |     87331133 |     87331133 |     87331133 |    183563579 |    183563579 |    183563579 |    183563579 |    390207067 |    390207067 |    390207067 |    390207067 |    816066128 |    816066128 |    816066128 |    816066128 |   1724405672 |   1724405672 |   1724405672 |   1724405672 |
itlb.misses                                      9 |            9 |            9 |            9 |            9 |            9 |            9 |            9 |            9 |            9 |            9 |            9 |            9 |            9 |            9 |            9 |            9 |            9 |            9 |            9 |            9 |            9 |            9 |            9 |            9 |            9 |            9 |            9 |            9 |            9 |            9 |            9 |            9 |            9 |            9 |            9 |            9 |            9 |            9 |            9 |            9 |            9 |            9 |            9 |
itlb.replacements                                0 |            0 |            0 |            0 |            0 |            0 |            0 |            0 |            0 |            0 |            0 |            0 |            0 |            0 |            0 |            0 |            0 |            0 |            0 |            0 |            0 |            0 |            0 |            0 |            0 |            0 |            0 |            0 |            0 |            0 |            0 |            0 |            0 |            0 |            0 |            0 |            0 |            0 |            0 |            0 |            0 |            0 |            0 |            0 |
itlb.writebacks                                  0 |            0 |            0 |            0 |            0 |            0 |            0 |            0 |            0 |            0 |            0 |            0 |            0 |            0 |            0 |            0 |            0 |            0 |            0 |            0 |            0 |            0 |            0 |            0 |            0 |            0 |            0 |            0 |            0 |            0 |            0 |            0 |            0 |            0 |            0 |            0 |            0 |            0 |            0 |            0 |            0 |            0 |            0 |            0 |
itlb.invalidations                               0 |            0 |            0 |            0 |            0 |            0 |            0 |            0 |            0 |            0 |            0 |            0 |            0 |            0 |            0 |            0 |            0 |            0 |            0 |            0 |            0 |            0 |            0 |            0 |            0 |            0 |            0 |            0 |            0 |            0 |            0 |            0 |            0 |            0 |            0 |            0 |            0 |            0 |            0 |            0 |            0 |            0 |            0 |            0 |
itlb.miss_rate                              0.0000 |       0.0000 |       0.0000 |       0.0000 |       0.0000 |       0.0000 |       0.0000 |       0.0000 |       0.0000 |       0.0000 |       0.0000 |       0.0000 |       0.0000 |       0.0000 |       0.0000 |       0.0000 |       0.0000 |       0.0000 |       0.0000 |       0.0000 |       0.0000 |       0.0000 |       0.0000 |       0.0000 |       0.0000 |       0.0000 |       0.0000 |       0.0000 |       0.0000 |       0.0000 |       0.0000 |       0.0000 |       0.0000 |       0.0000 |       0.0000 |       0.0000 |       0.0000 |       0.0000 |       0.0000 |       0.0000 |       0.0000 |       0.0000 |       0.0000 |       0.0000 |
itlb.repl_rate                              0.0000 |       0.0000 |       0.0000 |       0.0000 |       0.0000 |       0.0000 |       0.0000 |       0.0000 |       0.0000 |       0.0000 |       0.0000 |       0.0000 |       0.0000 |       0.0000 |       0.0000 |       0.0000 |       0.0000 |       0.0000 |       0.0000 |       0.0000 |       0.0000 |       0.0000 |       0.0000 |       0.0000 |       0.0000 |       0.0000 |       0.0000 |       0.0000 |       0.0000 |       0.0000 |       0.0000 |       0.0000 |       0.0000 |       0.0000 |       0.0000 |       0.0000 |       0.0000 |       0.0000 |       0.0000 |       0.0000 |       0.0000 |       0.0000 |       0.0000 |       0.0000 |
itlb.wb_rate                                0.0000 |       0.0000 |       0.0000 |       0.0000 |       0.0000 |       0.0000 |       0.0000 |       0.0000 |       0.0000 |       0.0000 |       0.0000 |       0.0000 |       0.0000 |       0.0000 |       0.0000 |       0.0000 |       0.0000 |       0.0000 |       0.0000 |       0.0000 |       0.0000 |       0.0000 |       0.0000 |       0.0000 |       0.0000 |       0.0000 |       0.0000 |       0.0000 |       0.0000 |       0.0000 |       0.0000 |       0.0000 |       0.0000 |       0.0000 |       0.0000 |       0.0000 |       0.0000 |       0.0000 |       0.0000 |       0.0000 |       0.0000 |       0.0000 |       0.0000 |       0.0000 |
itlb.inv_rate                               0.0000 |       0.0000 |       0.0000 |       0.0000 |       0.0000 |       0.0000 |       0.0000 |       0.0000 |       0.0000 |       0.0000 |       0.0000 |       0.0000 |       0.0000 |       0.0000 |       0.0000 |       0.0000 |       0.0000 |       0.0000 |       0.0000 |       0.0000 |       0.0000 |       0.0000 |       0.0000 |       0.0000 |       0.0000 |       0.0000 |       0.0000 |       0.0000 |       0.0000 |       0.0000 |       0.0000 |       0.0000 |       0.0000 |       0.0000 |       0.0000 |       0.0000 |       0.0000 |       0.0000 |       0.0000 |       0.0000 |       0.0000 |       0.0000 |       0.0000 |       0.0000 |
dtlb.accesses                               250622 |       250622 |       250622 |       250622 |       522012 |       522012 |       522012 |       522012 |      1154872 |      1154872 |      1154872 |      1154872 |      2403782 |      2403782 |      2403782 |      2403782 |      5262835 |      5262835 |      5262835 |      5262835 |     10914750 |     10914750 |     10914750 |     10914750 |     23660886 |     23660886 |     23660886 |     23660886 |     48890108 |     48890108 |     48890108 |     48890108 |    105126776 |    105126776 |    105126776 |    105126776 |    216538397 |    216538397 |    216538397 |    216538397 |    462432486 |    462432486 |    462432486 |    462432486 |
dtlb.hits                                   250607 |       250607 |       250607 |       250607 |       521989 |       521989 |       521989 |       521989 |      1154833 |      1154833 |      1154833 |      1154833 |      2403711 |      2403711 |      2403711 |      2403711 |      5262622 |      5262622 |      5262622 |      5262622 |     10910565 |     10910565 |     10910565 |     10910565 |     23651411 |     23651411 |     23651411 |     23651411 |     48871154 |     48871154 |     48871154 |     48871154 |    105084758 |    105084758 |    105084758 |    105084758 |    216454359 |    216454359 |    216454359 |    216454359 |    462248013 |    462248013 |    462248013 |    462248013 |
dtlb.misses                                     15 |           15 |           15 |           15 |           23 |           23 |           23 |           23 |           39 |           39 |           39 |           39 |           71 |           71 |           71 |           71 |          213 |          213 |          213 |          213 |         4185 |         4185 |         4185 |         4185 |         9475 |         9475 |         9475 |         9475 |        18954 |        18954 |        18954 |        18954 |        42018 |        42018 |        42018 |        42018 |        84038 |        84038 |        84038 |        84038 |       184473 |       184473 |       184473 |       184473 |
dtlb.replacements                                0 |            0 |            0 |            0 |            0 |            0 |            0 |            0 |            0 |            0 |            0 |            0 |            0 |            0 |            0 |            0 |           85 |           85 |           85 |           85 |         4057 |         4057 |         4057 |         4057 |         9347 |         9347 |         9347 |         9347 |        18826 |        18826 |        18826 |        18826 |        41890 |        41890 |        41890 |        41890 |        83910 |        83910 |        83910 |        83910 |       184345 |       184345 |       184345 |       184345 |
dtlb.writebacks                                  0 |            0 |            0 |            0 |            0 |            0 |            0 |            0 |            0 |            0 |            0 |            0 |            0 |            0 |            0 |            0 |           51 |           51 |           51 |           51 |         2129 |         2129 |         2129 |         2129 |         4823 |         4823 |         4823 |         4823 |         9694 |         9694 |         9694 |         9694 |        21491 |        21491 |        21491 |        21491 |        43033 |        43033 |        43033 |        43033 |        94308 |        94308 |        94308 |        94308 |
dtlb.invalidations                               0 |            0 |            0 |            0 |            0 |            0 |            0 |            0 |            0 |            0 |            0 |            0 |            0 |            0 |            0 |            0 |            0 |            0 |            0 |            0 |            0 |            0 |            0 |            0 |            0 |            0 |            0 |            0 |            0 |            0 |            0 |            0 |            0 |            0 |            0 |            0 |            0 |            0 |            0 |            0 |            0 |            0 |            0 |            0 |
dtlb.miss_rate                              0.0001 |       0.0001 |       0.0001 |       0.0001 |       0.0000 |       0.0000 |       0.0000 |       0.0000 |       0.0000 |       0.0000 |       0.0000 |       0.0000 |       0.0000 |       0.0000 |       0.0000 |       0.0000 |       0.0000 |       0.0000 |       0.0000 |       0.0000 |       0.0004 |       0.0004 |       0.0004 |       0.0004 |       0.0004 |       0.0004 |       0.0004 |       0.0004 |       0.0004 |       0.0004 |       0.0004 |       0.0004 |       0.0004 |       0.0004 |       0.0004 |       0.0004 |       0.0004 |       0.0004 |       0.0004 |       0.0004 |       0.0004 |       0.0004 |       0.0004 |       0.0004 |
dtlb.repl_rate                              0.0000 |       0.0000 |       0.0000 |       0.0000 |       0.0000 |       0.0000 |       0.0000 |       0.0000 |       0.0000 |       0.0000 |       0.0000 |       0.0000 |       0.0000 |       0.0000 |       0.0000 |       0.0000 |       0.0000 |       0.0000 |       0.0000 |       0.0000 |       0.0004 |       0.0004 |       0.0004 |       0.0004 |       0.0004 |       0.0004 |       0.0004 |       0.0004 |       0.0004 |       0.0004 |       0.0004 |       0.0004 |       0.0004 |       0.0004 |       0.0004 |       0.0004 |       0.0004 |       0.0004 |       0.0004 |       0.0004 |       0.0004 |       0.0004 |       0.0004 |       0.0004 |
dtlb.wb_rate                                0.0000 |       0.0000 |       0.0000 |       0.0000 |       0.0000 |       0.0000 |       0.0000 |       0.0000 |       0.0000 |       0.0000 |       0.0000 |       0.0000 |       0.0000 |       0.0000 |       0.0000 |       0.0000 |       0.0000 |       0.0000 |       0.0000 |       0.0000 |       0.0002 |       0.0002 |       0.0002 |       0.0002 |       0.0002 |       0.0002 |       0.0002 |       0.0002 |       0.0002 |       0.0002 |       0.0002 |       0.0002 |       0.0002 |       0.0002 |       0.0002 |       0.0002 |       0.0002 |       0.0002 |       0.0002 |       0.0002 |       0.0002 |       0.0002 |       0.0002 |       0.0002 |
dtlb.inv_rate                               0.0000 |       0.0000 |       0.0000 |       0.0000 |       0.0000 |       0.0000 |       0.0000 |       0.0000 |       0.0000 |       0.0000 |       0.0000 |       0.0000 |       0.0000 |       0.0000 |       0.0000 |       0.0000 |       0.0000 |       0.0000 |       0.0000 |       0.0000 |       0.0000 |       0.0000 |       0.0000 |       0.0000 |       0.0000 |       0.0000 |       0.0000 |       0.0000 |       0.0000 |       0.0000 |       0.0000 |       0.0000 |       0.0000 |       0.0000 |       0.0000 |       0.0000 |       0.0000 |       0.0000 |       0.0000 |       0.0000 |       0.0000 |       0.0000 |       0.0000 |       0.0000 |
ld_text_base                            0x00400000 |   0x00400000 |   0x00400000 |   0x00400000 |   0x00400000 |   0x00400000 |   0x00400000 |   0x00400000 |   0x00400000 |   0x00400000 |   0x00400000 |   0x00400000 |   0x00400000 |   0x00400000 |   0x00400000 |   0x00400000 |   0x00400000 |   0x00400000 |   0x00400000 |   0x00400000 |   0x00400000 |   0x00400000 |   0x00400000 |   0x00400000 |   0x00400000 |   0x00400000 |   0x00400000 |   0x00400000 |   0x00400000 |   0x00400000 |   0x00400000 |   0x00400000 |   0x00400000 |   0x00400000 |   0x00400000 |   0x00400000 |   0x00400000 |   0x00400000 |   0x00400000 |   0x00400000 |   0x00400000 |   0x00400000 |   0x00400000 |   0x00400000 |
ld_text_size                                 71552 |        71552 |        71552 |        71552 |        71584 |        71584 |        71584 |        71584 |        71600 |        71600 |        71600 |        71600 |        71616 |        71616 |        71616 |        71616 |        71616 |        71616 |        71616 |        71616 |        71616 |        71616 |        71616 |        71616 |        71616 |        71616 |        71616 |        71616 |        71616 |        71616 |        71616 |        71616 |        71616 |        71616 |        71616 |        71616 |        71616 |        71616 |        71616 |        71616 |        71616 |        71616 |        71616 |        71616 |
ld_data_base                            0x10000000 |   0x10000000 |   0x10000000 |   0x10000000 |   0x10000000 |   0x10000000 |   0x10000000 |   0x10000000 |   0x10000000 |   0x10000000 |   0x10000000 |   0x10000000 |   0x10000000 |   0x10000000 |   0x10000000 |   0x10000000 |   0x10000000 |   0x10000000 |   0x10000000 |   0x10000000 |   0x10000000 |   0x10000000 |   0x10000000 |   0x10000000 |   0x10000000 |   0x10000000 |   0x10000000 |   0x10000000 |   0x10000000 |   0x10000000 |   0x10000000 |   0x10000000 |   0x10000000 |   0x10000000 |   0x10000000 |   0x10000000 |   0x10000000 |   0x10000000 |   0x10000000 |   0x10000000 |   0x10000000 |   0x10000000 |   0x10000000 |   0x10000000 |
ld_data_size                                  8192 |         8192 |         8192 |         8192 |         8192 |         8192 |         8192 |         8192 |         8192 |         8192 |         8192 |         8192 |         8192 |         8192 |         8192 |         8192 |         8192 |         8192 |         8192 |         8192 |         8192 |         8192 |         8192 |         8192 |         8192 |         8192 |         8192 |         8192 |         8192 |         8192 |         8192 |         8192 |         8192 |         8192 |         8192 |         8192 |         8192 |         8192 |         8192 |         8192 |         8192 |         8192 |         8192 |         8192 |
ld_stack_base                           0x7fffc000 |   0x7fffc000 |   0x7fffc000 |   0x7fffc000 |   0x7fffc000 |   0x7fffc000 |   0x7fffc000 |   0x7fffc000 |   0x7fffc000 |   0x7fffc000 |   0x7fffc000 |   0x7fffc000 |   0x7fffc000 |   0x7fffc000 |   0x7fffc000 |   0x7fffc000 |   0x7fffc000 |   0x7fffc000 |   0x7fffc000 |   0x7fffc000 |   0x7fffc000 |   0x7fffc000 |   0x7fffc000 |   0x7fffc000 |   0x7fffc000 |   0x7fffc000 |   0x7fffc000 |   0x7fffc000 |   0x7fffc000 |   0x7fffc000 |   0x7fffc000 |   0x7fffc000 |   0x7fffc000 |   0x7fffc000 |   0x7fffc000 |   0x7fffc000 |   0x7fffc000 |   0x7fffc000 |   0x7fffc000 |   0x7fffc000 |   0x7fffc000 |   0x7fffc000 |   0x7fffc000 |   0x7fffc000 |
ld_stack_size                                16384 |        16384 |        16384 |        16384 |        16384 |        16384 |        16384 |        16384 |        16384 |        16384 |        16384 |        16384 |        16384 |        16384 |        16384 |        16384 |        16384 |        16384 |        16384 |        16384 |        16384 |        16384 |        16384 |        16384 |        16384 |        16384 |        16384 |        16384 |        16384 |        16384 |        16384 |        16384 |        16384 |        16384 |        16384 |        16384 |        16384 |        16384 |        16384 |        16384 |        16384 |        16384 |        16384 |        16384 |
ld_prog_entry                           0x00400140 |   0x00400140 |   0x00400140 |   0x00400140 |   0x00400140 |   0x00400140 |   0x00400140 |   0x00400140 |   0x00400140 |   0x00400140 |   0x00400140 |   0x00400140 |   0x00400140 |   0x00400140 |   0x00400140 |   0x00400140 |   0x00400140 |   0x00400140 |   0x00400140 |   0x00400140 |   0x00400140 |   0x00400140 |   0x00400140 |   0x00400140 |   0x00400140 |   0x00400140 |   0x00400140 |   0x00400140 |   0x00400140 |   0x00400140 |   0x00400140 |   0x00400140 |   0x00400140 |   0x00400140 |   0x00400140 |   0x00400140 |   0x00400140 |   0x00400140 |   0x00400140 |   0x00400140 |   0x00400140 |   0x00400140 |   0x00400140 |   0x00400140 |
ld_environ_base                         0x7fff8000 |   0x7fff8000 |   0x7fff8000 |   0x7fff8000 |   0x7fff8000 |   0x7fff8000 |   0x7fff8000 |   0x7fff8000 |   0x7fff8000 |   0x7fff8000 |   0x7fff8000 |   0x7fff8000 |   0x7fff8000 |   0x7fff8000 |   0x7fff8000 |   0x7fff8000 |   0x7fff8000 |   0x7fff8000 |   0x7fff8000 |   0x7fff8000 |   0x7fff8000 |   0x7fff8000 |   0x7fff8000 |   0x7fff8000 |   0x7fff8000 |   0x7fff8000 |   0x7fff8000 |   0x7fff8000 |   0x7fff8000 |   0x7fff8000 |   0x7fff8000 |   0x7fff8000 |   0x7fff8000 |   0x7fff8000 |   0x7fff8000 |   0x7fff8000 |   0x7fff8000 |   0x7fff8000 |   0x7fff8000 |   0x7fff8000 |   0x7fff8000 |   0x7fff8000 |   0x7fff8000 |   0x7fff8000 |
ld_target_big_endian                             0 |            0 |            0 |            0 |            0 |            0 |            0 |            0 |            0 |            0 |            0 |            0 |            0 |            0 |            0 |            0 |            0 |            0 |            0 |            0 |            0 |            0 |            0 |            0 |            0 |            0 |            0 |            0 |            0 |            0 |            0 |            0 |            0 |            0 |            0 |            0 |            0 |            0 |            0 |            0 |            0 |            0 |            0 |            0 |
mem.page_count                                  33 |           33 |           33 |           33 |           41 |           41 |           41 |           41 |           57 |           57 |           57 |           57 |           89 |           89 |           89 |           89 |          153 |          153 |          153 |          153 |          281 |          281 |          281 |          281 |          537 |          537 |          537 |          537 |         1049 |         1049 |         1049 |         1049 |         2079 |         2079 |         2079 |         2079 |         4133 |         4133 |         4133 |         4133 |         8241 |         8241 |         8241 |         8241 |
mem.page_mem                                  132k |         132k |         132k |         132k |         164k |         164k |         164k |         164k |         228k |         228k |         228k |         228k |         356k |         356k |         356k |         356k |         612k |         612k |         612k |         612k |        1124k |        1124k |        1124k |        1124k |        2148k |        2148k |        2148k |        2148k |        4196k |        4196k |        4196k |        4196k |        8316k |        8316k |        8316k |        8316k |       16532k |       16532k |       16532k |       16532k |       32964k |       32964k |       32964k |       32964k |
mem.ptab_misses                                 33 |           33 |           33 |           33 |           41 |           41 |           41 |           41 |           57 |           57 |           57 |           57 |           89 |           89 |           89 |           89 |          153 |          153 |          153 |          153 |          281 |          281 |          281 |          281 |          537 |          537 |          537 |          537 |         1049 |         1049 |         1049 |         1049 |        97766 |        97766 |        97766 |        97766 |       105409 |       105409 |       105409 |       105409 |       115060 |       115060 |       115060 |       115060 |
mem.ptab_accesses                          4512872 |      4512872 |      4512872 |      4512872 |      9155336 |      9155336 |      9155336 |      9155336 |     19503016 |     19503016 |     19503016 |     19503016 |     40942500 |     40942500 |     40942500 |     40942500 |     88100306 |     88100306 |     88100306 |     88100306 |    185410472 |    185410472 |    185410472 |    185410472 |    397090628 |    397090628 |    397090628 |    397090628 |    832478856 |    832478856 |    832478856 |    832478856 |   1771526144 |   1771526144 |   1771526144 |   1771526144 |   3697785630 |   3697785630 |   3697785630 |   3697785630 |   7822931984 |   7822931984 |   7822931984 |   7822931984 |
mem.ptab_miss_rate                          0.0000 |       0.0000 |       0.0000 |       0.0000 |       0.0000 |       0.0000 |       0.0000 |       0.0000 |       0.0000 |       0.0000 |       0.0000 |       0.0000 |       0.0000 |       0.0000 |       0.0000 |       0.0000 |       0.0000 |       0.0000 |       0.0000 |       0.0000 |       0.0000 |       0.0000 |       0.0000 |       0.0000 |       0.0000 |       0.0000 |       0.0000 |       0.0000 |       0.0000 |       0.0000 |       0.0000 |       0.0000 |       0.0001 |       0.0001 |       0.0001 |       0.0001 |       0.0000 |       0.0000 |       0.0000 |       0.0000 |       0.0000 |       0.0000 |       0.0000 |       0.0000 |
-------------------------------------------------------------------------------------------------
sim-bpred                                     4096 |         4096 |         4096 |         4096 |         4096 |         4096 |         4096 |         8192 |         8192 |         8192 |         8192 |         8192 |         8192 |         8192 |        16384 |        16384 |        16384 |        16384 |        16384 |        16384 |        16384 |        32768 |        32768 |        32768 |        32768 |        32768 |        32768 |        32768 |        65536 |        65536 |        65536 |        65536 |        65536 |        65536 |        65536 |       131072 |       131072 |       131072 |       131072 |       131072 |       131072 |       131072 |       262144 |       262144 |       262144 |       262144 |       262144 |       262144 |       262144 |       524288 |       524288 |       524288 |       524288 |       524288 |       524288 |       524288 |      1048576 |      1048576 |      1048576 |      1048576 |      1048576 |      1048576 |      1048576 |      2097152 |      2097152 |      2097152 |      2097152 |      2097152 |      2097152 |      2097152 |      4194304 |      4194304 |      4194304 |      4194304 |      4194304 |      4194304 |      4194304 |
-bpred bimod -bpred:bimod 512
-bpred bimod -bpred:bimod 1024
-bpred bimod -bpred:bimod 2048
-bpred 2lev -bpred:2lev 1 512 10 1
-bpred 2lev -bpred:2lev 1 1024 10 1
-bpred 2lev -bpred:2lev 1 2048 10 1
-bpred 2lev -bpred:2lev 1 4096 10 1
-------------------------------------------------------------------------------------------------
sim_num_insn                                891931 |       891931 |       891931 |       891931 |       891931 |       891931 |       891931 |      1916804 |      1916804 |      1916804 |      1916804 |      1916804 |      1916804 |      1916804 |      4187270 |      4187270 |      4187270 |      4187270 |      4187270 |      4187270 |      4187270 |      8922662 |      8922662 |      8922662 |      8922662 |      8922662 |      8922662 |      8922662 |     19282587 |     19282587 |     19282587 |     19282587 |     19282587 |     19282587 |     19282587 |     40784171 |     40784171 |     40784171 |     40784171 |     40784171 |     40784171 |     40784171 |     87331142 |     87331142 |     87331142 |     87331142 |     87331142 |     87331142 |     87331142 |    183563588 |    183563588 |    183563588 |    183563588 |    183563588 |    183563588 |    183563588 |    390207076 |    390207076 |    390207076 |    390207076 |    390207076 |    390207076 |    390207076 |    816066137 |    816066137 |    816066137 |    816066137 |    816066137 |    816066137 |    816066137 |   1724405681 |   1724405681 |   1724405681 |   1724405681 |   1724405681 |   1724405681 |   1724405681 |
sim_num_refs                                234156 |       234156 |       234156 |       234156 |       234156 |       234156 |       234156 |       489162 |       489162 |       489162 |       489162 |       489162 |       489162 |       489162 |      1089254 |      1089254 |      1089254 |      1089254 |      1089254 |      1089254 |      1089254 |      2272628 |      2272628 |      2272628 |      2272628 |      2272628 |      2272628 |      2272628 |      5000609 |      5000609 |      5000609 |      5000609 |      5000609 |      5000609 |      5000609 |     10390380 |     10390380 |     10390380 |     10390380 |     10390380 |     10390380 |     10390380 |     22612228 |     22612228 |     22612228 |     22612228 |     22612228 |     22612228 |     22612228 |     46792874 |     46792874 |     46792874 |     46792874 |     46792874 |     46792874 |     46792874 |    100932390 |    100932390 |    100932390 |    100932390 |    100932390 |    100932390 |    100932390 |    208149707 |    208149707 |    208149707 |    208149707 |    208149707 |    208149707 |    208149707 |    445655188 |    445655188 |    445655188 |    445655188 |    445655188 |    445655188 |    445655188 |
sim_elapsed_time                                 1 |            1 |            1 |            1 |            1 |            1 |            1 |            1 |            1 |            1 |            1 |            1 |            1 |            1 |            1 |            1 |            1 |            1 |            1 |            1 |            1 |            1 |            1 |            1 |            1 |            1 |            1 |            1 |            2 |            2 |            2 |            2 |            2 |            2 |            2 |            5 |            4 |            4 |            4 |            4 |            5 |            4 |           10 |            9 |            9 |           10 |            9 |            9 |           10 |           20 |           19 |           19 |           20 |           20 |           20 |           19 |           42 |           40 |           41 |           43 |           41 |           42 |           41 |           88 |           85 |           85 |           90 |           87 |           87 |           86 |          186 |          179 |          180 |          189 |          182 |          183 |          183 |
sim_inst_rate                          891931.0000 |  891931.0000 |  891931.0000 |  891931.0000 |  891931.0000 |  891931.0000 |  891931.0000 | 1916804.0000 | 1916804.0000 | 1916804.0000 | 1916804.0000 | 1916804.0000 | 1916804.0000 | 1916804.0000 | 4187270.0000 | 4187270.0000 | 4187270.0000 | 4187270.0000 | 4187270.0000 | 4187270.0000 | 4187270.0000 | 8922662.0000 | 8922662.0000 | 8922662.0000 | 8922662.0000 | 8922662.0000 | 8922662.0000 | 8922662.0000 | 9641293.5000 | 9641293.5000 | 9641293.5000 | 9641293.5000 | 9641293.5000 | 9641293.5000 | 9641293.5000 | 8156834.2000 |10196042.7500 |10196042.7500 |10196042.7500 |10196042.7500 | 8156834.2000 |10196042.7500 | 8733114.2000 | 9703460.2222 | 9703460.2222 | 8733114.2000 | 9703460.2222 | 9703460.2222 | 8733114.2000 | 9178179.4000 | 9661241.4737 | 9661241.4737 | 9178179.4000 | 9178179.4000 | 9178179.4000 | 9661241.4737 | 9290644.6667 | 9755176.9000 | 9517245.7561 | 9074583.1628 | 9517245.7561 | 9290644.6667 | 9517245.7561 | 9273478.8295 | 9600778.0824 | 9600778.0824 | 9067401.5222 | 9380070.5402 | 9380070.5402 | 9489141.1279 | 9270998.2849 | 9633551.2905 | 9580031.5611 | 9123839.5820 | 9474756.4890 | 9422981.8634 | 9422981.8634 |
sim_num_branches                            112635 |       112635 |       112635 |       112635 |       112635 |       112635 |       112635 |       244078 |       244078 |       244078 |       244078 |       244078 |       244078 |       244078 |       530080 |       530080 |       530080 |       530080 |       530080 |       530080 |       530080 |      1136141 |      1136141 |      1136141 |      1136141 |      1136141 |      1136141 |      1136141 |      2444513 |      2444513 |      2444513 |      2444513 |      2444513 |      2444513 |      2444513 |      5197054 |      5197054 |      5197054 |      5197054 |      5197054 |      5197054 |      5197054 |     11083153 |     11083153 |     11083153 |     11083153 |     11083153 |     11083153 |     11083153 |     23409544 |     23409544 |     23409544 |     23409544 |     23409544 |     23409544 |     23409544 |     49576365 |     49576365 |     49576365 |     49576365 |     49576365 |     49576365 |     49576365 |    104140830 |    104140830 |    104140830 |    104140830 |    104140830 |    104140830 |    104140830 |    219282390 |    219282390 |    219282390 |    219282390 |    219282390 |    219282390 |    219282390 |
sim_IPB                                     7.9188 |       7.9188 |       7.9188 |       7.9188 |       7.9188 |       7.9188 |       7.9188 |       7.8532 |       7.8532 |       7.8532 |       7.8532 |       7.8532 |       7.8532 |       7.8532 |       7.8993 |       7.8993 |       7.8993 |       7.8993 |       7.8993 |       7.8993 |       7.8993 |       7.8535 |       7.8535 |       7.8535 |       7.8535 |       7.8535 |       7.8535 |       7.8535 |       7.8881 |       7.8881 |       7.8881 |       7.8881 |       7.8881 |       7.8881 |       7.8881 |       7.8476 |       7.8476 |       7.8476 |       7.8476 |       7.8476 |       7.8476 |       7.8476 |       7.8796 |       7.8796 |       7.8796 |       7.8796 |       7.8796 |       7.8796 |       7.8796 |       7.8414 |       7.8414 |       7.8414 |       7.8414 |       7.8414 |       7.8414 |       7.8414 |       7.8708 |       7.8708 |       7.8708 |       7.8708 |       7.8708 |       7.8708 |       7.8708 |       7.8362 |       7.8362 |       7.8362 |       7.8362 |       7.8362 |       7.8362 |       7.8362 |       7.8639 |       7.8639 |       7.8639 |       7.8639 |       7.8639 |       7.8639 |       7.8639 |
bpred_bimod.lookups                         112635 |       112635 |       112635 |xxxxxxxxxxxxx |xxxxxxxxxxxxx |xxxxxxxxxxxxx |xxxxxxxxxxxxx |       244078 |       244078 |       244078 |xxxxxxxxxxxxx |xxxxxxxxxxxxx |xxxxxxxxxxxxx |xxxxxxxxxxxxx |       530080 |       530080 |       530080 |xxxxxxxxxxxxx |xxxxxxxxxxxxx |xxxxxxxxxxxxx |xxxxxxxxxxxxx |      1136141 |      1136141 |      1136141 |xxxxxxxxxxxxx |xxxxxxxxxxxxx |xxxxxxxxxxxxx |xxxxxxxxxxxxx |      2444513 |      2444513 |      2444513 |xxxxxxxxxxxxx |xxxxxxxxxxxxx |xxxxxxxxxxxxx |xxxxxxxxxxxxx |      5197054 |      5197054 |      5197054 |xxxxxxxxxxxxx |xxxxxxxxxxxxx |xxxxxxxxxxxxx |xxxxxxxxxxxxx |     11083153 |     11083153 |     11083153 |xxxxxxxxxxxxx |xxxxxxxxxxxxx |xxxxxxxxxxxxx |xxxxxxxxxxxxx |     23409544 |     23409544 |     23409544 |xxxxxxxxxxxxx |xxxxxxxxxxxxx |xxxxxxxxxxxxx |xxxxxxxxxxxxx |     49576365 |     49576365 |     49576365 |xxxxxxxxxxxxx |xxxxxxxxxxxxx |xxxxxxxxxxxxx |xxxxxxxxxxxxx |    104140830 |    104140830 |    104140830 |xxxxxxxxxxxxx |xxxxxxxxxxxxx |xxxxxxxxxxxxx |xxxxxxxxxxxxx |    219282390 |    219282390 |    219282390 |
bpred_bimod.updates                         112635 |       112635 |       112635 |xxxxxxxxxxxxx |xxxxxxxxxxxxx |xxxxxxxxxxxxx |xxxxxxxxxxxxx |       244078 |       244078 |       244078 |xxxxxxxxxxxxx |xxxxxxxxxxxxx |xxxxxxxxxxxxx |xxxxxxxxxxxxx |       530080 |       530080 |       530080 |xxxxxxxxxxxxx |xxxxxxxxxxxxx |xxxxxxxxxxxxx |xxxxxxxxxxxxx |      1136141 |      1136141 |      1136141 |xxxxxxxxxxxxx |xxxxxxxxxxxxx |xxxxxxxxxxxxx |xxxxxxxxxxxxx |      2444513 |      2444513 |      2444513 |xxxxxxxxxxxxx |xxxxxxxxxxxxx |xxxxxxxxxxxxx |xxxxxxxxxxxxx |      5197054 |      5197054 |      5197054 |xxxxxxxxxxxxx |xxxxxxxxxxxxx |xxxxxxxxxxxxx |xxxxxxxxxxxxx |     11083153 |     11083153 |     11083153 |xxxxxxxxxxxxx |xxxxxxxxxxxxx |xxxxxxxxxxxxx |xxxxxxxxxxxxx |     23409544 |     23409544 |     23409544 |xxxxxxxxxxxxx |xxxxxxxxxxxxx |xxxxxxxxxxxxx |xxxxxxxxxxxxx |     49576365 |     49576365 |     49576365 |xxxxxxxxxxxxx |xxxxxxxxxxxxx |xxxxxxxxxxxxx |xxxxxxxxxxxxx |    104140830 |    104140830 |    104140830 |xxxxxxxxxxxxx |xxxxxxxxxxxxx |xxxxxxxxxxxxx |xxxxxxxxxxxxx |    219282390 |    219282390 |    219282390 |
bpred_bimod.addr_hits                        87387 |        87390 |        87395 |xxxxxxxxxxxxx |xxxxxxxxxxxxx |xxxxxxxxxxxxx |xxxxxxxxxxxxx |       189856 |       189858 |       189864 |xxxxxxxxxxxxx |xxxxxxxxxxxxx |xxxxxxxxxxxxx |xxxxxxxxxxxxx |       413976 |       413979 |       413985 |xxxxxxxxxxxxx |xxxxxxxxxxxxx |xxxxxxxxxxxxx |xxxxxxxxxxxxx |       886062 |       886064 |       886069 |xxxxxxxxxxxxx |xxxxxxxxxxxxx |xxxxxxxxxxxxx |xxxxxxxxxxxxx |      1912773 |      1912776 |      1912781 |xxxxxxxxxxxxx |xxxxxxxxxxxxx |xxxxxxxxxxxxx |xxxxxxxxxxxxx |      4068088 |      4068090 |      4068095 |xxxxxxxxxxxxx |xxxxxxxxxxxxx |xxxxxxxxxxxxx |xxxxxxxxxxxxx |      8695322 |      8695325 |      8695330 |xxxxxxxxxxxxx |xxxxxxxxxxxxx |xxxxxxxxxxxxx |xxxxxxxxxxxxx |     18370372 |     18370374 |     18370379 |xxxxxxxxxxxxx |xxxxxxxxxxxxx |xxxxxxxxxxxxx |xxxxxxxxxxxxx |     38983086 |     38983089 |     38983093 |xxxxxxxxxxxxx |xxxxxxxxxxxxx |xxxxxxxxxxxxx |xxxxxxxxxxxxx |     81898289 |     81898292 |     81898296 |xxxxxxxxxxxxx |xxxxxxxxxxxxx |xxxxxxxxxxxxx |xxxxxxxxxxxxx |    172710579 |    172710582 |    172710586 |
bpred_bimod.dir_hits                         87493 |        87496 |        87501 |xxxxxxxxxxxxx |xxxxxxxxxxxxx |xxxxxxxxxxxxx |xxxxxxxxxxxxx |       189962 |       189963 |       189969 |xxxxxxxxxxxxx |xxxxxxxxxxxxx |xxxxxxxxxxxxx |xxxxxxxxxxxxx |       414089 |       414091 |       414095 |xxxxxxxxxxxxx |xxxxxxxxxxxxx |xxxxxxxxxxxxx |xxxxxxxxxxxxx |       886167 |       886168 |       886173 |xxxxxxxxxxxxx |xxxxxxxxxxxxx |xxxxxxxxxxxxx |xxxxxxxxxxxxx |      1912883 |      1912885 |      1912890 |xxxxxxxxxxxxx |xxxxxxxxxxxxx |xxxxxxxxxxxxx |xxxxxxxxxxxxx |      4068194 |      4068195 |      4068200 |xxxxxxxxxxxxx |xxxxxxxxxxxxx |xxxxxxxxxxxxx |xxxxxxxxxxxxx |      8695433 |      8695435 |      8695440 |xxxxxxxxxxxxx |xxxxxxxxxxxxx |xxxxxxxxxxxxx |xxxxxxxxxxxxx |     18370478 |     18370479 |     18370484 |xxxxxxxxxxxxx |xxxxxxxxxxxxx |xxxxxxxxxxxxx |xxxxxxxxxxxxx |     38983203 |     38983205 |     38983209 |xxxxxxxxxxxxx |xxxxxxxxxxxxx |xxxxxxxxxxxxx |xxxxxxxxxxxxx |     81898406 |     81898408 |     81898412 |xxxxxxxxxxxxx |xxxxxxxxxxxxx |xxxxxxxxxxxxx |xxxxxxxxxxxxx |    172710696 |    172710698 |    172710702 |
bpred_bimod.misses                           25142 |        25139 |        25134 |xxxxxxxxxxxxx |xxxxxxxxxxxxx |xxxxxxxxxxxxx |xxxxxxxxxxxxx |        54116 |        54115 |        54109 |xxxxxxxxxxxxx |xxxxxxxxxxxxx |xxxxxxxxxxxxx |xxxxxxxxxxxxx |       115991 |       115989 |       115985 |xxxxxxxxxxxxx |xxxxxxxxxxxxx |xxxxxxxxxxxxx |xxxxxxxxxxxxx |       249974 |       249973 |       249968 |xxxxxxxxxxxxx |xxxxxxxxxxxxx |xxxxxxxxxxxxx |xxxxxxxxxxxxx |       531630 |       531628 |       531623 |xxxxxxxxxxxxx |xxxxxxxxxxxxx |xxxxxxxxxxxxx |xxxxxxxxxxxxx |      1128860 |      1128859 |      1128854 |xxxxxxxxxxxxx |xxxxxxxxxxxxx |xxxxxxxxxxxxx |xxxxxxxxxxxxx |      2387720 |      2387718 |      2387713 |xxxxxxxxxxxxx |xxxxxxxxxxxxx |xxxxxxxxxxxxx |xxxxxxxxxxxxx |      5039066 |      5039065 |      5039060 |xxxxxxxxxxxxx |xxxxxxxxxxxxx |xxxxxxxxxxxxx |xxxxxxxxxxxxx |     10593162 |     10593160 |     10593156 |xxxxxxxxxxxxx |xxxxxxxxxxxxx |xxxxxxxxxxxxx |xxxxxxxxxxxxx |     22242424 |     22242422 |     22242418 |xxxxxxxxxxxxx |xxxxxxxxxxxxx |xxxxxxxxxxxxx |xxxxxxxxxxxxx |     46571694 |     46571692 |     46571688 |
bpred_bimod.jr_hits                             63 |           63 |           63 |xxxxxxxxxxxxx |xxxxxxxxxxxxx |xxxxxxxxxxxxx |xxxxxxxxxxxxx |           69 |           69 |           69 |xxxxxxxxxxxxx |xxxxxxxxxxxxx |xxxxxxxxxxxxx |xxxxxxxxxxxxx |           71 |           71 |           71 |xxxxxxxxxxxxx |xxxxxxxxxxxxx |xxxxxxxxxxxxx |xxxxxxxxxxxxx |           69 |           69 |           69 |xxxxxxxxxxxxx |xxxxxxxxxxxxx |xxxxxxxxxxxxx |xxxxxxxxxxxxx |           71 |           71 |           71 |xxxxxxxxxxxxx |xxxxxxxxxxxxx |xxxxxxxxxxxxx |xxxxxxxxxxxxx |           69 |           69 |           69 |xxxxxxxxxxxxx |xxxxxxxxxxxxx |xxxxxxxxxxxxx |xxxxxxxxxxxxx |           71 |           71 |           71 |xxxxxxxxxxxxx |xxxxxxxxxxxxx |xxxxxxxxxxxxx |xxxxxxxxxxxxx |           69 |           69 |           69 |xxxxxxxxxxxxx |xxxxxxxxxxxxx |xxxxxxxxxxxxx |xxxxxxxxxxxxx |           75 |           75 |           75 |xxxxxxxxxxxxx |xxxxxxxxxxxxx |xxxxxxxxxxxxx |xxxxxxxxxxxxx |           72 |           72 |           72 |xxxxxxxxxxxxx |xxxxxxxxxxxxx |xxxxxxxxxxxxx |xxxxxxxxxxxxx |           75 |           75 |           75 |
bpred_bimod.jr_seen                             64 |           64 |           64 |xxxxxxxxxxxxx |xxxxxxxxxxxxx |xxxxxxxxxxxxx |xxxxxxxxxxxxx |           70 |           70 |           70 |xxxxxxxxxxxxx |xxxxxxxxxxxxx |xxxxxxxxxxxxx |xxxxxxxxxxxxx |           73 |           73 |           73 |xxxxxxxxxxxxx |xxxxxxxxxxxxx |xxxxxxxxxxxxx |xxxxxxxxxxxxx |           70 |           70 |           70 |xxxxxxxxxxxxx |xxxxxxxxxxxxx |xxxxxxxxxxxxx |xxxxxxxxxxxxx |           73 |           73 |           73 |xxxxxxxxxxxxx |xxxxxxxxxxxxx |xxxxxxxxxxxxx |xxxxxxxxxxxxx |           70 |           70 |           70 |xxxxxxxxxxxxx |xxxxxxxxxxxxx |xxxxxxxxxxxxx |xxxxxxxxxxxxx |           73 |           73 |           73 |xxxxxxxxxxxxx |xxxxxxxxxxxxx |xxxxxxxxxxxxx |xxxxxxxxxxxxx |           70 |           70 |           70 |xxxxxxxxxxxxx |xxxxxxxxxxxxx |xxxxxxxxxxxxx |xxxxxxxxxxxxx |           76 |           76 |           76 |xxxxxxxxxxxxx |xxxxxxxxxxxxx |xxxxxxxxxxxxx |xxxxxxxxxxxxx |           73 |           73 |           73 |xxxxxxxxxxxxx |xxxxxxxxxxxxx |xxxxxxxxxxxxx |xxxxxxxxxxxxx |           76 |           76 |           76 |
bpred_bimod.jr_non_ras_hits.PP                   0 |            0 |            0 |xxxxxxxxxxxxx |xxxxxxxxxxxxx |xxxxxxxxxxxxx |xxxxxxxxxxxxx |            0 |            0 |            0 |xxxxxxxxxxxxx |xxxxxxxxxxxxx |xxxxxxxxxxxxx |xxxxxxxxxxxxx |            0 |            0 |            0 |xxxxxxxxxxxxx |xxxxxxxxxxxxx |xxxxxxxxxxxxx |xxxxxxxxxxxxx |            0 |            0 |            0 |xxxxxxxxxxxxx |xxxxxxxxxxxxx |xxxxxxxxxxxxx |xxxxxxxxxxxxx |            0 |            0 |            0 |xxxxxxxxxxxxx |xxxxxxxxxxxxx |xxxxxxxxxxxxx |xxxxxxxxxxxxx |            0 |            0 |            0 |xxxxxxxxxxxxx |xxxxxxxxxxxxx |xxxxxxxxxxxxx |xxxxxxxxxxxxx |            0 |            0 |            0 |xxxxxxxxxxxxx |xxxxxxxxxxxxx |xxxxxxxxxxxxx |xxxxxxxxxxxxx |            0 |            0 |            0 |xxxxxxxxxxxxx |xxxxxxxxxxxxx |xxxxxxxxxxxxx |xxxxxxxxxxxxx |            1 |            1 |            1 |xxxxxxxxxxxxx |xxxxxxxxxxxxx |xxxxxxxxxxxxx |xxxxxxxxxxxxx |            0 |            0 |            0 |xxxxxxxxxxxxx |xxxxxxxxxxxxx |xxxxxxxxxxxxx |xxxxxxxxxxxxx |            1 |            1 |            1 |
bpred_bimod.jr_non_ras_seen.PP                   1 |            1 |            1 |xxxxxxxxxxxxx |xxxxxxxxxxxxx |xxxxxxxxxxxxx |xxxxxxxxxxxxx |            0 |            0 |            0 |xxxxxxxxxxxxx |xxxxxxxxxxxxx |xxxxxxxxxxxxx |xxxxxxxxxxxxx |            1 |            1 |            1 |xxxxxxxxxxxxx |xxxxxxxxxxxxx |xxxxxxxxxxxxx |xxxxxxxxxxxxx |            0 |            0 |            0 |xxxxxxxxxxxxx |xxxxxxxxxxxxx |xxxxxxxxxxxxx |xxxxxxxxxxxxx |            1 |            1 |            1 |xxxxxxxxxxxxx |xxxxxxxxxxxxx |xxxxxxxxxxxxx |xxxxxxxxxxxxx |            0 |            0 |            0 |xxxxxxxxxxxxx |xxxxxxxxxxxxx |xxxxxxxxxxxxx |xxxxxxxxxxxxx |            1 |            1 |            1 |xxxxxxxxxxxxx |xxxxxxxxxxxxx |xxxxxxxxxxxxx |xxxxxxxxxxxxx |            0 |            0 |            0 |xxxxxxxxxxxxx |xxxxxxxxxxxxx |xxxxxxxxxxxxx |xxxxxxxxxxxxx |            2 |            2 |            2 |xxxxxxxxxxxxx |xxxxxxxxxxxxx |xxxxxxxxxxxxx |xxxxxxxxxxxxx |            1 |            1 |            1 |xxxxxxxxxxxxx |xxxxxxxxxxxxx |xxxxxxxxxxxxx |xxxxxxxxxxxxx |            2 |            2 |            2 |
bpred_bimod.bpred_addr_rate                 0.7758 |       0.7759 |       0.7759 |xxxxxxxxxxxxx |xxxxxxxxxxxxx |xxxxxxxxxxxxx |xxxxxxxxxxxxx |       0.7778 |       0.7779 |       0.7779 |xxxxxxxxxxxxx |xxxxxxxxxxxxx |xxxxxxxxxxxxx |xxxxxxxxxxxxx |       0.7810 |       0.7810 |       0.7810 |xxxxxxxxxxxxx |xxxxxxxxxxxxx |xxxxxxxxxxxxx |xxxxxxxxxxxxx |       0.7799 |       0.7799 |       0.7799 |xxxxxxxxxxxxx |xxxxxxxxxxxxx |xxxxxxxxxxxxx |xxxxxxxxxxxxx |       0.7825 |       0.7825 |       0.7825 |xxxxxxxxxxxxx |xxxxxxxxxxxxx |xxxxxxxxxxxxx |xxxxxxxxxxxxx |       0.7828 |       0.7828 |       0.7828 |xxxxxxxxxxxxx |xxxxxxxxxxxxx |xxxxxxxxxxxxx |xxxxxxxxxxxxx |       0.7846 |       0.7846 |       0.7846 |xxxxxxxxxxxxx |xxxxxxxxxxxxx |xxxxxxxxxxxxx |xxxxxxxxxxxxx |       0.7847 |       0.7847 |       0.7847 |xxxxxxxxxxxxx |xxxxxxxxxxxxx |xxxxxxxxxxxxx |xxxxxxxxxxxxx |       0.7863 |       0.7863 |       0.7863 |xxxxxxxxxxxxx |xxxxxxxxxxxxx |xxxxxxxxxxxxx |xxxxxxxxxxxxx |       0.7864 |       0.7864 |       0.7864 |xxxxxxxxxxxxx |xxxxxxxxxxxxx |xxxxxxxxxxxxx |xxxxxxxxxxxxx |       0.7876 |       0.7876 |       0.7876 |
bpred_bimod.bpred_dir_rate                  0.7768 |       0.7768 |       0.7769 |xxxxxxxxxxxxx |xxxxxxxxxxxxx |xxxxxxxxxxxxx |xxxxxxxxxxxxx |       0.7783 |       0.7783 |       0.7783 |xxxxxxxxxxxxx |xxxxxxxxxxxxx |xxxxxxxxxxxxx |xxxxxxxxxxxxx |       0.7812 |       0.7812 |       0.7812 |xxxxxxxxxxxxx |xxxxxxxxxxxxx |xxxxxxxxxxxxx |xxxxxxxxxxxxx |       0.7800 |       0.7800 |       0.7800 |xxxxxxxxxxxxx |xxxxxxxxxxxxx |xxxxxxxxxxxxx |xxxxxxxxxxxxx |       0.7825 |       0.7825 |       0.7825 |xxxxxxxxxxxxx |xxxxxxxxxxxxx |xxxxxxxxxxxxx |xxxxxxxxxxxxx |       0.7828 |       0.7828 |       0.7828 |xxxxxxxxxxxxx |xxxxxxxxxxxxx |xxxxxxxxxxxxx |xxxxxxxxxxxxx |       0.7846 |       0.7846 |       0.7846 |xxxxxxxxxxxxx |xxxxxxxxxxxxx |xxxxxxxxxxxxx |xxxxxxxxxxxxx |       0.7847 |       0.7847 |       0.7847 |xxxxxxxxxxxxx |xxxxxxxxxxxxx |xxxxxxxxxxxxx |xxxxxxxxxxxxx |       0.7863 |       0.7863 |       0.7863 |xxxxxxxxxxxxx |xxxxxxxxxxxxx |xxxxxxxxxxxxx |xxxxxxxxxxxxx |       0.7864 |       0.7864 |       0.7864 |xxxxxxxxxxxxx |xxxxxxxxxxxxx |xxxxxxxxxxxxx |xxxxxxxxxxxxx |       0.7876 |       0.7876 |       0.7876 |
bpred_bimod.bpred_jr_rate                   0.9844 |       0.9844 |       0.9844 |xxxxxxxxxxxxx |xxxxxxxxxxxxx |xxxxxxxxxxxxx |xxxxxxxxxxxxx |       0.9857 |       0.9857 |       0.9857 |xxxxxxxxxxxxx |xxxxxxxxxxxxx |xxxxxxxxxxxxx |xxxxxxxxxxxxx |       0.9726 |       0.9726 |       0.9726 |xxxxxxxxxxxxx |xxxxxxxxxxxxx |xxxxxxxxxxxxx |xxxxxxxxxxxxx |       0.9857 |       0.9857 |       0.9857 |xxxxxxxxxxxxx |xxxxxxxxxxxxx |xxxxxxxxxxxxx |xxxxxxxxxxxxx |       0.9726 |       0.9726 |       0.9726 |xxxxxxxxxxxxx |xxxxxxxxxxxxx |xxxxxxxxxxxxx |xxxxxxxxxxxxx |       0.9857 |       0.9857 |       0.9857 |xxxxxxxxxxxxx |xxxxxxxxxxxxx |xxxxxxxxxxxxx |xxxxxxxxxxxxx |       0.9726 |       0.9726 |       0.9726 |xxxxxxxxxxxxx |xxxxxxxxxxxxx |xxxxxxxxxxxxx |xxxxxxxxxxxxx |       0.9857 |       0.9857 |       0.9857 |xxxxxxxxxxxxx |xxxxxxxxxxxxx |xxxxxxxxxxxxx |xxxxxxxxxxxxx |       0.9868 |       0.9868 |       0.9868 |xxxxxxxxxxxxx |xxxxxxxxxxxxx |xxxxxxxxxxxxx |xxxxxxxxxxxxx |       0.9863 |       0.9863 |       0.9863 |xxxxxxxxxxxxx |xxxxxxxxxxxxx |xxxxxxxxxxxxx |xxxxxxxxxxxxx |       0.9868 |       0.9868 |       0.9868 |
bpred_bimod.bpred_jr_non_ras_rate.PP        0.0000 |       0.0000 |       0.0000 |xxxxxxxxxxxxx |xxxxxxxxxxxxx |xxxxxxxxxxxxx |xxxxxxxxxxxxx |      <error: |      <error: |      <error: |xxxxxxxxxxxxx |xxxxxxxxxxxxx |xxxxxxxxxxxxx |xxxxxxxxxxxxx |       0.0000 |       0.0000 |       0.0000 |xxxxxxxxxxxxx |xxxxxxxxxxxxx |xxxxxxxxxxxxx |xxxxxxxxxxxxx |      <error: |      <error: |      <error: |xxxxxxxxxxxxx |xxxxxxxxxxxxx |xxxxxxxxxxxxx |xxxxxxxxxxxxx |       0.0000 |       0.0000 |       0.0000 |xxxxxxxxxxxxx |xxxxxxxxxxxxx |xxxxxxxxxxxxx |xxxxxxxxxxxxx |      <error: |      <error: |      <error: |xxxxxxxxxxxxx |xxxxxxxxxxxxx |xxxxxxxxxxxxx |xxxxxxxxxxxxx |       0.0000 |       0.0000 |       0.0000 |xxxxxxxxxxxxx |xxxxxxxxxxxxx |xxxxxxxxxxxxx |xxxxxxxxxxxxx |      <error: |      <error: |      <error: |xxxxxxxxxxxxx |xxxxxxxxxxxxx |xxxxxxxxxxxxx |xxxxxxxxxxxxx |       0.5000 |       0.5000 |       0.5000 |xxxxxxxxxxxxx |xxxxxxxxxxxxx |xxxxxxxxxxxxx |xxxxxxxxxxxxx |       0.0000 |       0.0000 |       0.0000 |xxxxxxxxxxxxx |xxxxxxxxxxxxx |xxxxxxxxxxxxx |xxxxxxxxxxxxx |       0.5000 |       0.5000 |       0.5000 |
bpred_bimod.retstack_pushes                     65 |           65 |           65 |xxxxxxxxxxxxx |xxxxxxxxxxxxx |xxxxxxxxxxxxx |xxxxxxxxxxxxx |           72 |           72 |           72 |xxxxxxxxxxxxx |xxxxxxxxxxxxx |xxxxxxxxxxxxx |xxxxxxxxxxxxx |           74 |           74 |           74 |xxxxxxxxxxxxx |xxxxxxxxxxxxx |xxxxxxxxxxxxx |xxxxxxxxxxxxx |           72 |           72 |           72 |xxxxxxxxxxxxx |xxxxxxxxxxxxx |xxxxxxxxxxxxx |xxxxxxxxxxxxx |           74 |           74 |           74 |xxxxxxxxxxxxx |xxxxxxxxxxxxx |xxxxxxxxxxxxx |xxxxxxxxxxxxx |           72 |           72 |           72 |xxxxxxxxxxxxx |xxxxxxxxxxxxx |xxxxxxxxxxxxx |xxxxxxxxxxxxx |           74 |           74 |           74 |xxxxxxxxxxxxx |xxxxxxxxxxxxx |xxxxxxxxxxxxx |xxxxxxxxxxxxx |           72 |           72 |           72 |xxxxxxxxxxxxx |xxxxxxxxxxxxx |xxxxxxxxxxxxx |xxxxxxxxxxxxx |           76 |           76 |           76 |xxxxxxxxxxxxx |xxxxxxxxxxxxx |xxxxxxxxxxxxx |xxxxxxxxxxxxx |           74 |           74 |           74 |xxxxxxxxxxxxx |xxxxxxxxxxxxx |xxxxxxxxxxxxx |xxxxxxxxxxxxx |           76 |           76 |           76 |
bpred_bimod.retstack_pops                       63 |           63 |           63 |xxxxxxxxxxxxx |xxxxxxxxxxxxx |xxxxxxxxxxxxx |xxxxxxxxxxxxx |           70 |           70 |           70 |xxxxxxxxxxxxx |xxxxxxxxxxxxx |xxxxxxxxxxxxx |xxxxxxxxxxxxx |           72 |           72 |           72 |xxxxxxxxxxxxx |xxxxxxxxxxxxx |xxxxxxxxxxxxx |xxxxxxxxxxxxx |           70 |           70 |           70 |xxxxxxxxxxxxx |xxxxxxxxxxxxx |xxxxxxxxxxxxx |xxxxxxxxxxxxx |           72 |           72 |           72 |xxxxxxxxxxxxx |xxxxxxxxxxxxx |xxxxxxxxxxxxx |xxxxxxxxxxxxx |           70 |           70 |           70 |xxxxxxxxxxxxx |xxxxxxxxxxxxx |xxxxxxxxxxxxx |xxxxxxxxxxxxx |           72 |           72 |           72 |xxxxxxxxxxxxx |xxxxxxxxxxxxx |xxxxxxxxxxxxx |xxxxxxxxxxxxx |           70 |           70 |           70 |xxxxxxxxxxxxx |xxxxxxxxxxxxx |xxxxxxxxxxxxx |xxxxxxxxxxxxx |           74 |           74 |           74 |xxxxxxxxxxxxx |xxxxxxxxxxxxx |xxxxxxxxxxxxx |xxxxxxxxxxxxx |           72 |           72 |           72 |xxxxxxxxxxxxx |xxxxxxxxxxxxx |xxxxxxxxxxxxx |xxxxxxxxxxxxx |           74 |           74 |           74 |
bpred_bimod.used_ras.PP                         63 |           63 |           63 |xxxxxxxxxxxxx |xxxxxxxxxxxxx |xxxxxxxxxxxxx |xxxxxxxxxxxxx |           70 |           70 |           70 |xxxxxxxxxxxxx |xxxxxxxxxxxxx |xxxxxxxxxxxxx |xxxxxxxxxxxxx |           72 |           72 |           72 |xxxxxxxxxxxxx |xxxxxxxxxxxxx |xxxxxxxxxxxxx |xxxxxxxxxxxxx |           70 |           70 |           70 |xxxxxxxxxxxxx |xxxxxxxxxxxxx |xxxxxxxxxxxxx |xxxxxxxxxxxxx |           72 |           72 |           72 |xxxxxxxxxxxxx |xxxxxxxxxxxxx |xxxxxxxxxxxxx |xxxxxxxxxxxxx |           70 |           70 |           70 |xxxxxxxxxxxxx |xxxxxxxxxxxxx |xxxxxxxxxxxxx |xxxxxxxxxxxxx |           72 |           72 |           72 |xxxxxxxxxxxxx |xxxxxxxxxxxxx |xxxxxxxxxxxxx |xxxxxxxxxxxxx |           70 |           70 |           70 |xxxxxxxxxxxxx |xxxxxxxxxxxxx |xxxxxxxxxxxxx |xxxxxxxxxxxxx |           74 |           74 |           74 |xxxxxxxxxxxxx |xxxxxxxxxxxxx |xxxxxxxxxxxxx |xxxxxxxxxxxxx |           72 |           72 |           72 |xxxxxxxxxxxxx |xxxxxxxxxxxxx |xxxxxxxxxxxxx |xxxxxxxxxxxxx |           74 |           74 |           74 |
bpred_bimod.ras_hits.PP                         63 |           63 |           63 |xxxxxxxxxxxxx |xxxxxxxxxxxxx |xxxxxxxxxxxxx |xxxxxxxxxxxxx |           69 |           69 |           69 |xxxxxxxxxxxxx |xxxxxxxxxxxxx |xxxxxxxxxxxxx |xxxxxxxxxxxxx |           71 |           71 |           71 |xxxxxxxxxxxxx |xxxxxxxxxxxxx |xxxxxxxxxxxxx |xxxxxxxxxxxxx |           69 |           69 |           69 |xxxxxxxxxxxxx |xxxxxxxxxxxxx |xxxxxxxxxxxxx |xxxxxxxxxxxxx |           71 |           71 |           71 |xxxxxxxxxxxxx |xxxxxxxxxxxxx |xxxxxxxxxxxxx |xxxxxxxxxxxxx |           69 |           69 |           69 |xxxxxxxxxxxxx |xxxxxxxxxxxxx |xxxxxxxxxxxxx |xxxxxxxxxxxxx |           71 |           71 |           71 |xxxxxxxxxxxxx |xxxxxxxxxxxxx |xxxxxxxxxxxxx |xxxxxxxxxxxxx |           69 |           69 |           69 |xxxxxxxxxxxxx |xxxxxxxxxxxxx |xxxxxxxxxxxxx |xxxxxxxxxxxxx |           74 |           74 |           74 |xxxxxxxxxxxxx |xxxxxxxxxxxxx |xxxxxxxxxxxxx |xxxxxxxxxxxxx |           72 |           72 |           72 |xxxxxxxxxxxxx |xxxxxxxxxxxxx |xxxxxxxxxxxxx |xxxxxxxxxxxxx |           74 |           74 |           74 |
bpred_bimod.ras_rate.PP                     1.0000 |       1.0000 |       1.0000 |xxxxxxxxxxxxx |xxxxxxxxxxxxx |xxxxxxxxxxxxx |xxxxxxxxxxxxx |       0.9857 |       0.9857 |       0.9857 |xxxxxxxxxxxxx |xxxxxxxxxxxxx |xxxxxxxxxxxxx |xxxxxxxxxxxxx |       0.9861 |       0.9861 |       0.9861 |xxxxxxxxxxxxx |xxxxxxxxxxxxx |xxxxxxxxxxxxx |xxxxxxxxxxxxx |       0.9857 |       0.9857 |       0.9857 |xxxxxxxxxxxxx |xxxxxxxxxxxxx |xxxxxxxxxxxxx |xxxxxxxxxxxxx |       0.9861 |       0.9861 |       0.9861 |xxxxxxxxxxxxx |xxxxxxxxxxxxx |xxxxxxxxxxxxx |xxxxxxxxxxxxx |       0.9857 |       0.9857 |       0.9857 |xxxxxxxxxxxxx |xxxxxxxxxxxxx |xxxxxxxxxxxxx |xxxxxxxxxxxxx |       0.9861 |       0.9861 |       0.9861 |xxxxxxxxxxxxx |xxxxxxxxxxxxx |xxxxxxxxxxxxx |xxxxxxxxxxxxx |       0.9857 |       0.9857 |       0.9857 |xxxxxxxxxxxxx |xxxxxxxxxxxxx |xxxxxxxxxxxxx |xxxxxxxxxxxxx |       1.0000 |       1.0000 |       1.0000 |xxxxxxxxxxxxx |xxxxxxxxxxxxx |xxxxxxxxxxxxx |xxxxxxxxxxxxx |       1.0000 |       1.0000 |       1.0000 |xxxxxxxxxxxxx |xxxxxxxxxxxxx |xxxxxxxxxxxxx |xxxxxxxxxxxxx |       1.0000 |       1.0000 |       1.0000 |
bpred_2lev.lookups                   xxxxxxxxxxxxx |xxxxxxxxxxxxx |xxxxxxxxxxxxx |       112635 |       112635 |       112635 |       112635 |xxxxxxxxxxxxx |xxxxxxxxxxxxx |xxxxxxxxxxxxx |       244078 |       244078 |       244078 |       244078 |xxxxxxxxxxxxx |xxxxxxxxxxxxx |xxxxxxxxxxxxx |       530080 |       530080 |       530080 |       530080 |xxxxxxxxxxxxx |xxxxxxxxxxxxx |xxxxxxxxxxxxx |      1136141 |      1136141 |      1136141 |      1136141 |xxxxxxxxxxxxx |xxxxxxxxxxxxx |xxxxxxxxxxxxx |      2444513 |      2444513 |      2444513 |      2444513 |xxxxxxxxxxxxx |xxxxxxxxxxxxx |xxxxxxxxxxxxx |      5197054 |      5197054 |      5197054 |      5197054 |xxxxxxxxxxxxx |xxxxxxxxxxxxx |xxxxxxxxxxxxx |     11083153 |     11083153 |     11083153 |     11083153 |xxxxxxxxxxxxx |xxxxxxxxxxxxx |xxxxxxxxxxxxx |     23409544 |     23409544 |     23409544 |     23409544 |xxxxxxxxxxxxx |xxxxxxxxxxxxx |xxxxxxxxxxxxx |     49576365 |     49576365 |     49576365 |     49576365 |xxxxxxxxxxxxx |xxxxxxxxxxxxx |xxxxxxxxxxxxx |    104140830 |    104140830 |    104140830 |    104140830 |xxxxxxxxxxxxx |xxxxxxxxxxxxx |xxxxxxxxxxxxx |    219282390 |    219282390 |    219282390 |    219282390 |
[...]
bpred_2lev.retstack_pops             xxxxxxxxxxxxx |xxxxxxxxxxxxx |xxxxxxxxxxxxx |           63 |           63 |           63 |           63 |xxxxxxxxxxxxx |xxxxxxxxxxxxx |xxxxxxxxxxxxx |           70 |           70 |           70 |           70 |xxxxxxxxxxxxx |xxxxxxxxxxxxx |xxxxxxxxxxxxx |           72 |           72 |           72 |           72 |xxxxxxxxxxxxx |xxxxxxxxxxxxx |xxxxxxxxxxxxx |           70 |           70 |           70 |           70 |xxxxxxxxxxxxx |xxxxxxxxxxxxx |xxxxxxxxxxxxx |           72 |           72 |           72 |           72 |xxxxxxxxxxxxx |xxxxxxxxxxxxx |xxxxxxxxxxxxx |           70 |           70 |           70 |           70 |xxxxxxxxxxxxx |xxxxxxxxxxxxx |xxxxxxxxxxxxx |           72 |           72 |           72 |           72 |xxxxxxxxxxxxx |xxxxxxxxxxxxx |xxxxxxxxxxxxx |           70 |           70 |           70 |           70 |xxxxxxxxxxxxx |xxxxxxxxxxxxx |xxxxxxxxxxxxx |           74 |           74 |           74 |           74 |xxxxxxxxxxxxx |xxxxxxxxxxxxx |xxxxxxxxxxxxx |           72 |           72 |           72 |           72 |xxxxxxxxxxxxx |xxxxxxxxxxxxx |xxxxxxxxxxxxx |           74 |           74 |           74 |           74 |
bpred_2lev.used_ras.PP               xxxxxxxxxxxxx |xxxxxxxxxxxxx |xxxxxxxxxxxxx |           63 |           63 |           63 |           63 |xxxxxxxxxxxxx |xxxxxxxxxxxxx |xxxxxxxxxxxxx |           70 |           70 |           70 |           70 |xxxxxxxxxxxxx |xxxxxxxxxxxxx |xxxxxxxxxxxxx |           72 |           72 |           72 |           72 |xxxxxxxxxxxxx |xxxxxxxxxxxxx |xxxxxxxxxxxxx |           70 |           70 |           70 |           70 |xxxxxxxxxxxxx |xxxxxxxxxxxxx |xxxxxxxxxxxxx |           72 |           72 |           72 |           72 |xxxxxxxxxxxxx |xxxxxxxxxxxxx |xxxxxxxxxxxxx |           70 |           70 |           70 |           70 |xxxxxxxxxxxxx |xxxxxxxxxxxxx |xxxxxxxxxxxxx |           72 |           72 |           72 |           72 |xxxxxxxxxxxxx |xxxxxxxxxxxxx |xxxxxxxxxxxxx |           70 |           70 |           70 |           70 |xxxxxxxxxxxxx |xxxxxxxxxxxxx |xxxxxxxxxxxxx |           74 |           74 |           74 |           74 |xxxxxxxxxxxxx |xxxxxxxxxxxxx |xxxxxxxxxxxxx |           72 |           72 |           72 |           72 |xxxxxxxxxxxxx |xxxxxxxxxxxxx |xxxxxxxxxxxxx |           74 |           74 |           74 |           74 |
bpred_2lev.ras_hits.PP               xxxxxxxxxxxxx |xxxxxxxxxxxxx |xxxxxxxxxxxxx |           63 |           63 |           63 |           63 |xxxxxxxxxxxxx |xxxxxxxxxxxxx |xxxxxxxxxxxxx |           69 |           69 |           69 |           69 |xxxxxxxxxxxxx |xxxxxxxxxxxxx |xxxxxxxxxxxxx |           71 |           71 |           71 |           71 |xxxxxxxxxxxxx |xxxxxxxxxxxxx |xxxxxxxxxxxxx |           69 |           69 |           69 |           69 |xxxxxxxxxxxxx |xxxxxxxxxxxxx |xxxxxxxxxxxxx |           71 |           71 |           71 |           71 |xxxxxxxxxxxxx |xxxxxxxxxxxxx |xxxxxxxxxxxxx |           69 |           69 |           69 |           69 |xxxxxxxxxxxxx |xxxxxxxxxxxxx |xxxxxxxxxxxxx |           71 |           71 |           71 |           71 |xxxxxxxxxxxxx |xxxxxxxxxxxxx |xxxxxxxxxxxxx |           69 |           69 |           69 |           69 |xxxxxxxxxxxxx |xxxxxxxxxxxxx |xxxxxxxxxxxxx |           74 |           74 |           74 |           74 |xxxxxxxxxxxxx |xxxxxxxxxxxxx |xxxxxxxxxxxxx |           72 |           72 |           72 |           72 |xxxxxxxxxxxxx |xxxxxxxxxxxxx |xxxxxxxxxxxxx |           74 |           74 |           74 |           74 |
bpred_2lev.ras_rate.PP               xxxxxxxxxxxxx |xxxxxxxxxxxxx |xxxxxxxxxxxxx |       1.0000 |       1.0000 |       1.0000 |       1.0000 |xxxxxxxxxxxxx |xxxxxxxxxxxxx |xxxxxxxxxxxxx |       0.9857 |       0.9857 |       0.9857 |       0.9857 |xxxxxxxxxxxxx |xxxxxxxxxxxxx |xxxxxxxxxxxxx |       0.9861 |       0.9861 |       0.9861 |       0.9861 |xxxxxxxxxxxxx |xxxxxxxxxxxxx |xxxxxxxxxxxxx |       0.9857 |       0.9857 |       0.9857 |       0.9857 |xxxxxxxxxxxxx |xxxxxxxxxxxxx |xxxxxxxxxxxxx |       0.9861 |       0.9861 |       0.9861 |       0.9861 |xxxxxxxxxxxxx |xxxxxxxxxxxxx |xxxxxxxxxxxxx |       0.9857 |       0.9857 |       0.9857 |       0.9857 |xxxxxxxxxxxxx |xxxxxxxxxxxxx |xxxxxxxxxxxxx |       0.9861 |       0.9861 |       0.9861 |       0.9861 |xxxxxxxxxxxxx |xxxxxxxxxxxxx |xxxxxxxxxxxxx |       0.9857 |       0.9857 |       0.9857 |       0.9857 |xxxxxxxxxxxxx |xxxxxxxxxxxxx |xxxxxxxxxxxxx |       1.0000 |       1.0000 |       1.0000 |       1.0000 |xxxxxxxxxxxxx |xxxxxxxxxxxxx |xxxxxxxxxxxxx |       1.0000 |       1.0000 |       1.0000 |       1.0000 |xxxxxxxxxxxxx |xxxxxxxxxxxxx |xxxxxxxxxxxxx |       1.0000 |       1.0000 |       1.0000 |       1.0000 |

Command list: 
	sslittle-na-sstrix-gcc -Wall -O3 -funroll-loops -finline-functions  -DRANDOM_SIZE=4096 -DOFFSET=1 -DSORT=knuth_base_mergesort sorts/knuth_base_mergesort1372132869.c simpleMain.c -o knuth_base_mergesort2084617026
	sim-cache -cache:dl1 dl1:256:32:1:l -cache:dl2 dl2:131072:32:1:l -cache:il1 il1:256:32:1:l -cache:il2 dl2 knuth_base_mergesort2084617026
	sim-cache -cache:dl1 dl1:256:32:1:l -cache:dl2 dl2:65536:32:1:l -cache:il1 il1:256:32:1:l -cache:il2 dl2 knuth_base_mergesort2084617026
	sim-cache -cache:dl1 dl1:1:32:256:l -cache:dl2 dl2:1:32:131072:l -cache:il1 il1:1:32:256:l -cache:il2 dl2 knuth_base_mergesort2084617026
	sim-cache -cache:dl1 dl1:1:32:256:l -cache:dl2 dl2:1:32:65536:l -cache:il1 il1:1:32:256:l -cache:il2 dl2 knuth_base_mergesort2084617026
	sim-bpred -bpred bimod -bpred:bimod 512 knuth_base_mergesort2084617026
	sim-bpred -bpred bimod -bpred:bimod 1024 knuth_base_mergesort2084617026
	sim-bpred -bpred bimod -bpred:bimod 2048 knuth_base_mergesort2084617026
	sim-bpred -bpred 2lev -bpred:2lev 1 512 10 1 knuth_base_mergesort2084617026
	sim-bpred -bpred 2lev -bpred:2lev 1 1024 10 1 knuth_base_mergesort2084617026
	sim-bpred -bpred 2lev -bpred:2lev 1 2048 10 1 knuth_base_mergesort2084617026
	sim-bpred -bpred 2lev -bpred:2lev 1 4096 10 1 knuth_base_mergesort2084617026
	sslittle-na-sstrix-gcc -Wall -O3 -funroll-loops -finline-functions  -DRANDOM_SIZE=8192 -DOFFSET=1 -DSORT=knuth_base_mergesort sorts/knuth_base_mergesort1372132869.c simpleMain.c -o knuth_base_mergesort2084617026
	sim-cache -cache:dl1 dl1:256:32:1:l -cache:dl2 dl2:131072:32:1:l -cache:il1 il1:256:32:1:l -cache:il2 dl2 knuth_base_mergesort2084617026
	sim-cache -cache:dl1 dl1:256:32:1:l -cache:dl2 dl2:65536:32:1:l -cache:il1 il1:256:32:1:l -cache:il2 dl2 knuth_base_mergesort2084617026
	sim-cache -cache:dl1 dl1:1:32:256:l -cache:dl2 dl2:1:32:131072:l -cache:il1 il1:1:32:256:l -cache:il2 dl2 knuth_base_mergesort2084617026
	sim-cache -cache:dl1 dl1:1:32:256:l -cache:dl2 dl2:1:32:65536:l -cache:il1 il1:1:32:256:l -cache:il2 dl2 knuth_base_mergesort2084617026
	sim-bpred -bpred bimod -bpred:bimod 512 knuth_base_mergesort2084617026
	sim-bpred -bpred bimod -bpred:bimod 1024 knuth_base_mergesort2084617026
	sim-bpred -bpred bimod -bpred:bimod 2048 knuth_base_mergesort2084617026
	sim-bpred -bpred 2lev -bpred:2lev 1 512 10 1 knuth_base_mergesort2084617026
	sim-bpred -bpred 2lev -bpred:2lev 1 1024 10 1 knuth_base_mergesort2084617026
	sim-bpred -bpred 2lev -bpred:2lev 1 2048 10 1 knuth_base_mergesort2084617026
	sim-bpred -bpred 2lev -bpred:2lev 1 4096 10 1 knuth_base_mergesort2084617026
	sslittle-na-sstrix-gcc -Wall -O3 -funroll-loops -finline-functions  -DRANDOM_SIZE=16384 -DOFFSET=1 -DSORT=knuth_base_mergesort sorts/knuth_base_mergesort1372132869.c simpleMain.c -o knuth_base_mergesort2084617026
	sim-cache -cache:dl1 dl1:256:32:1:l -cache:dl2 dl2:131072:32:1:l -cache:il1 il1:256:32:1:l -cache:il2 dl2 knuth_base_mergesort2084617026
	sim-cache -cache:dl1 dl1:256:32:1:l -cache:dl2 dl2:65536:32:1:l -cache:il1 il1:256:32:1:l -cache:il2 dl2 knuth_base_mergesort2084617026
	sim-cache -cache:dl1 dl1:1:32:256:l -cache:dl2 dl2:1:32:131072:l -cache:il1 il1:1:32:256:l -cache:il2 dl2 knuth_base_mergesort2084617026
	sim-cache -cache:dl1 dl1:1:32:256:l -cache:dl2 dl2:1:32:65536:l -cache:il1 il1:1:32:256:l -cache:il2 dl2 knuth_base_mergesort2084617026
	sim-bpred -bpred bimod -bpred:bimod 512 knuth_base_mergesort2084617026
	sim-bpred -bpred bimod -bpred:bimod 1024 knuth_base_mergesort2084617026
	sim-bpred -bpred bimod -bpred:bimod 2048 knuth_base_mergesort2084617026
	sim-bpred -bpred 2lev -bpred:2lev 1 512 10 1 knuth_base_mergesort2084617026
	sim-bpred -bpred 2lev -bpred:2lev 1 1024 10 1 knuth_base_mergesort2084617026
	sim-bpred -bpred 2lev -bpred:2lev 1 2048 10 1 knuth_base_mergesort2084617026
	sim-bpred -bpred 2lev -bpred:2lev 1 4096 10 1 knuth_base_mergesort2084617026
	sslittle-na-sstrix-gcc -Wall -O3 -funroll-loops -finline-functions  -DRANDOM_SIZE=32768 -DOFFSET=1 -DSORT=knuth_base_mergesort sorts/knuth_base_mergesort1372132869.c simpleMain.c -o knuth_base_mergesort2084617026
	sim-cache -cache:dl1 dl1:256:32:1:l -cache:dl2 dl2:131072:32:1:l -cache:il1 il1:256:32:1:l -cache:il2 dl2 knuth_base_mergesort2084617026
	sim-cache -cache:dl1 dl1:256:32:1:l -cache:dl2 dl2:65536:32:1:l -cache:il1 il1:256:32:1:l -cache:il2 dl2 knuth_base_mergesort2084617026
	sim-cache -cache:dl1 dl1:1:32:256:l -cache:dl2 dl2:1:32:131072:l -cache:il1 il1:1:32:256:l -cache:il2 dl2 knuth_base_mergesort2084617026
	sim-cache -cache:dl1 dl1:1:32:256:l -cache:dl2 dl2:1:32:65536:l -cache:il1 il1:1:32:256:l -cache:il2 dl2 knuth_base_mergesort2084617026
	sim-bpred -bpred bimod -bpred:bimod 512 knuth_base_mergesort2084617026
	sim-bpred -bpred bimod -bpred:bimod 1024 knuth_base_mergesort2084617026
	sim-bpred -bpred bimod -bpred:bimod 2048 knuth_base_mergesort2084617026
	sim-bpred -bpred 2lev -bpred:2lev 1 512 10 1 knuth_base_mergesort2084617026
	sim-bpred -bpred 2lev -bpred:2lev 1 1024 10 1 knuth_base_mergesort2084617026
	sim-bpred -bpred 2lev -bpred:2lev 1 2048 10 1 knuth_base_mergesort2084617026
	sim-bpred -bpred 2lev -bpred:2lev 1 4096 10 1 knuth_base_mergesort2084617026
	sslittle-na-sstrix-gcc -Wall -O3 -funroll-loops -finline-functions  -DRANDOM_SIZE=65536 -DOFFSET=1 -DSORT=knuth_base_mergesort sorts/knuth_base_mergesort1372132869.c simpleMain.c -o knuth_base_mergesort2084617026
	sim-cache -cache:dl1 dl1:256:32:1:l -cache:dl2 dl2:131072:32:1:l -cache:il1 il1:256:32:1:l -cache:il2 dl2 knuth_base_mergesort2084617026
	sim-cache -cache:dl1 dl1:256:32:1:l -cache:dl2 dl2:65536:32:1:l -cache:il1 il1:256:32:1:l -cache:il2 dl2 knuth_base_mergesort2084617026
	sim-cache -cache:dl1 dl1:1:32:256:l -cache:dl2 dl2:1:32:131072:l -cache:il1 il1:1:32:256:l -cache:il2 dl2 knuth_base_mergesort2084617026
	sim-cache -cache:dl1 dl1:1:32:256:l -cache:dl2 dl2:1:32:65536:l -cache:il1 il1:1:32:256:l -cache:il2 dl2 knuth_base_mergesort2084617026
	sim-bpred -bpred bimod -bpred:bimod 512 knuth_base_mergesort2084617026
	sim-bpred -bpred bimod -bpred:bimod 1024 knuth_base_mergesort2084617026
	sim-bpred -bpred bimod -bpred:bimod 2048 knuth_base_mergesort2084617026
	sim-bpred -bpred 2lev -bpred:2lev 1 512 10 1 knuth_base_mergesort2084617026
	sim-bpred -bpred 2lev -bpred:2lev 1 1024 10 1 knuth_base_mergesort2084617026
	sim-bpred -bpred 2lev -bpred:2lev 1 2048 10 1 knuth_base_mergesort2084617026
	sim-bpred -bpred 2lev -bpred:2lev 1 4096 10 1 knuth_base_mergesort2084617026
	sslittle-na-sstrix-gcc -Wall -O3 -funroll-loops -finline-functions  -DRANDOM_SIZE=131072 -DOFFSET=1 -DSORT=knuth_base_mergesort sorts/knuth_base_mergesort1372132869.c simpleMain.c -o knuth_base_mergesort2084617026
	sim-cache -cache:dl1 dl1:256:32:1:l -cache:dl2 dl2:131072:32:1:l -cache:il1 il1:256:32:1:l -cache:il2 dl2 knuth_base_mergesort2084617026
	sim-cache -cache:dl1 dl1:256:32:1:l -cache:dl2 dl2:65536:32:1:l -cache:il1 il1:256:32:1:l -cache:il2 dl2 knuth_base_mergesort2084617026
	sim-cache -cache:dl1 dl1:1:32:256:l -cache:dl2 dl2:1:32:131072:l -cache:il1 il1:1:32:256:l -cache:il2 dl2 knuth_base_mergesort2084617026
	sim-cache -cache:dl1 dl1:1:32:256:l -cache:dl2 dl2:1:32:65536:l -cache:il1 il1:1:32:256:l -cache:il2 dl2 knuth_base_mergesort2084617026
	sim-bpred -bpred bimod -bpred:bimod 512 knuth_base_mergesort2084617026
	sim-bpred -bpred bimod -bpred:bimod 1024 knuth_base_mergesort2084617026
	sim-bpred -bpred bimod -bpred:bimod 2048 knuth_base_mergesort2084617026
	sim-bpred -bpred 2lev -bpred:2lev 1 512 10 1 knuth_base_mergesort2084617026
	sim-bpred -bpred 2lev -bpred:2lev 1 1024 10 1 knuth_base_mergesort2084617026
	sim-bpred -bpred 2lev -bpred:2lev 1 2048 10 1 knuth_base_mergesort2084617026
	sim-bpred -bpred 2lev -bpred:2lev 1 4096 10 1 knuth_base_mergesort2084617026
	sslittle-na-sstrix-gcc -Wall -O3 -funroll-loops -finline-functions  -DRANDOM_SIZE=262144 -DOFFSET=1 -DSORT=knuth_base_mergesort sorts/knuth_base_mergesort1372132869.c simpleMain.c -o knuth_base_mergesort2084617026
	sim-cache -cache:dl1 dl1:256:32:1:l -cache:dl2 dl2:131072:32:1:l -cache:il1 il1:256:32:1:l -cache:il2 dl2 knuth_base_mergesort2084617026
	sim-cache -cache:dl1 dl1:256:32:1:l -cache:dl2 dl2:65536:32:1:l -cache:il1 il1:256:32:1:l -cache:il2 dl2 knuth_base_mergesort2084617026
	sim-cache -cache:dl1 dl1:1:32:256:l -cache:dl2 dl2:1:32:131072:l -cache:il1 il1:1:32:256:l -cache:il2 dl2 knuth_base_mergesort2084617026
	sim-cache -cache:dl1 dl1:1:32:256:l -cache:dl2 dl2:1:32:65536:l -cache:il1 il1:1:32:256:l -cache:il2 dl2 knuth_base_mergesort2084617026
	sim-bpred -bpred bimod -bpred:bimod 512 knuth_base_mergesort2084617026
	sim-bpred -bpred bimod -bpred:bimod 1024 knuth_base_mergesort2084617026
	sim-bpred -bpred bimod -bpred:bimod 2048 knuth_base_mergesort2084617026
	sim-bpred -bpred 2lev -bpred:2lev 1 512 10 1 knuth_base_mergesort2084617026
	sim-bpred -bpred 2lev -bpred:2lev 1 1024 10 1 knuth_base_mergesort2084617026
	sim-bpred -bpred 2lev -bpred:2lev 1 2048 10 1 knuth_base_mergesort2084617026
	sim-bpred -bpred 2lev -bpred:2lev 1 4096 10 1 knuth_base_mergesort2084617026
	sslittle-na-sstrix-gcc -Wall -O3 -funroll-loops -finline-functions  -DRANDOM_SIZE=524288 -DOFFSET=1 -DSORT=knuth_base_mergesort sorts/knuth_base_mergesort1372132869.c simpleMain.c -o knuth_base_mergesort2084617026
	sim-cache -cache:dl1 dl1:256:32:1:l -cache:dl2 dl2:131072:32:1:l -cache:il1 il1:256:32:1:l -cache:il2 dl2 knuth_base_mergesort2084617026
	sim-cache -cache:dl1 dl1:256:32:1:l -cache:dl2 dl2:65536:32:1:l -cache:il1 il1:256:32:1:l -cache:il2 dl2 knuth_base_mergesort2084617026
	sim-cache -cache:dl1 dl1:1:32:256:l -cache:dl2 dl2:1:32:131072:l -cache:il1 il1:1:32:256:l -cache:il2 dl2 knuth_base_mergesort2084617026
	sim-cache -cache:dl1 dl1:1:32:256:l -cache:dl2 dl2:1:32:65536:l -cache:il1 il1:1:32:256:l -cache:il2 dl2 knuth_base_mergesort2084617026
	sim-bpred -bpred bimod -bpred:bimod 512 knuth_base_mergesort2084617026
	sim-bpred -bpred bimod -bpred:bimod 1024 knuth_base_mergesort2084617026
	sim-bpred -bpred bimod -bpred:bimod 2048 knuth_base_mergesort2084617026
	sim-bpred -bpred 2lev -bpred:2lev 1 512 10 1 knuth_base_mergesort2084617026
	sim-bpred -bpred 2lev -bpred:2lev 1 1024 10 1 knuth_base_mergesort2084617026
	sim-bpred -bpred 2lev -bpred:2lev 1 2048 10 1 knuth_base_mergesort2084617026
	sim-bpred -bpred 2lev -bpred:2lev 1 4096 10 1 knuth_base_mergesort2084617026
	sslittle-na-sstrix-gcc -Wall -O3 -funroll-loops -finline-functions  -DRANDOM_SIZE=1048576 -DOFFSET=1 -DSORT=knuth_base_mergesort sorts/knuth_base_mergesort1372132869.c simpleMain.c -o knuth_base_mergesort2084617026
	sim-cache -cache:dl1 dl1:256:32:1:l -cache:dl2 dl2:131072:32:1:l -cache:il1 il1:256:32:1:l -cache:il2 dl2 knuth_base_mergesort2084617026
	sim-cache -cache:dl1 dl1:256:32:1:l -cache:dl2 dl2:65536:32:1:l -cache:il1 il1:256:32:1:l -cache:il2 dl2 knuth_base_mergesort2084617026
	sim-cache -cache:dl1 dl1:1:32:256:l -cache:dl2 dl2:1:32:131072:l -cache:il1 il1:1:32:256:l -cache:il2 dl2 knuth_base_mergesort2084617026
	sim-cache -cache:dl1 dl1:1:32:256:l -cache:dl2 dl2:1:32:65536:l -cache:il1 il1:1:32:256:l -cache:il2 dl2 knuth_base_mergesort2084617026
	sim-bpred -bpred bimod -bpred:bimod 512 knuth_base_mergesort2084617026
	sim-bpred -bpred bimod -bpred:bimod 1024 knuth_base_mergesort2084617026
	sim-bpred -bpred bimod -bpred:bimod 2048 knuth_base_mergesort2084617026
	sim-bpred -bpred 2lev -bpred:2lev 1 512 10 1 knuth_base_mergesort2084617026
	sim-bpred -bpred 2lev -bpred:2lev 1 1024 10 1 knuth_base_mergesort2084617026
	sim-bpred -bpred 2lev -bpred:2lev 1 2048 10 1 knuth_base_mergesort2084617026
	sim-bpred -bpred 2lev -bpred:2lev 1 4096 10 1 knuth_base_mergesort2084617026
	sslittle-na-sstrix-gcc -Wall -O3 -funroll-loops -finline-functions  -DRANDOM_SIZE=2097152 -DOFFSET=1 -DSORT=knuth_base_mergesort sorts/knuth_base_mergesort1372132869.c simpleMain.c -o knuth_base_mergesort2084617026
	sim-cache -cache:dl1 dl1:256:32:1:l -cache:dl2 dl2:131072:32:1:l -cache:il1 il1:256:32:1:l -cache:il2 dl2 knuth_base_mergesort2084617026
	sim-cache -cache:dl1 dl1:256:32:1:l -cache:dl2 dl2:65536:32:1:l -cache:il1 il1:256:32:1:l -cache:il2 dl2 knuth_base_mergesort2084617026
	sim-cache -cache:dl1 dl1:1:32:256:l -cache:dl2 dl2:1:32:131072:l -cache:il1 il1:1:32:256:l -cache:il2 dl2 knuth_base_mergesort2084617026
	sim-cache -cache:dl1 dl1:1:32:256:l -cache:dl2 dl2:1:32:65536:l -cache:il1 il1:1:32:256:l -cache:il2 dl2 knuth_base_mergesort2084617026
	sim-bpred -bpred bimod -bpred:bimod 512 knuth_base_mergesort2084617026
	sim-bpred -bpred bimod -bpred:bimod 1024 knuth_base_mergesort2084617026
	sim-bpred -bpred bimod -bpred:bimod 2048 knuth_base_mergesort2084617026
	sim-bpred -bpred 2lev -bpred:2lev 1 512 10 1 knuth_base_mergesort2084617026
	sim-bpred -bpred 2lev -bpred:2lev 1 1024 10 1 knuth_base_mergesort2084617026
	sim-bpred -bpred 2lev -bpred:2lev 1 2048 10 1 knuth_base_mergesort2084617026
	sim-bpred -bpred 2lev -bpred:2lev 1 4096 10 1 knuth_base_mergesort2084617026
	sslittle-na-sstrix-gcc -Wall -O3 -funroll-loops -finline-functions  -DRANDOM_SIZE=4194304 -DOFFSET=1 -DSORT=knuth_base_mergesort sorts/knuth_base_mergesort1372132869.c simpleMain.c -o knuth_base_mergesort2084617026
	sim-cache -cache:dl1 dl1:256:32:1:l -cache:dl2 dl2:131072:32:1:l -cache:il1 il1:256:32:1:l -cache:il2 dl2 knuth_base_mergesort2084617026
	sim-cache -cache:dl1 dl1:256:32:1:l -cache:dl2 dl2:65536:32:1:l -cache:il1 il1:256:32:1:l -cache:il2 dl2 knuth_base_mergesort2084617026
	sim-cache -cache:dl1 dl1:1:32:256:l -cache:dl2 dl2:1:32:131072:l -cache:il1 il1:1:32:256:l -cache:il2 dl2 knuth_base_mergesort2084617026
	sim-cache -cache:dl1 dl1:1:32:256:l -cache:dl2 dl2:1:32:65536:l -cache:il1 il1:1:32:256:l -cache:il2 dl2 knuth_base_mergesort2084617026
	sim-bpred -bpred bimod -bpred:bimod 512 knuth_base_mergesort2084617026
	sim-bpred -bpred bimod -bpred:bimod 1024 knuth_base_mergesort2084617026
	sim-bpred -bpred bimod -bpred:bimod 2048 knuth_base_mergesort2084617026
	sim-bpred -bpred 2lev -bpred:2lev 1 512 10 1 knuth_base_mergesort2084617026
	sim-bpred -bpred 2lev -bpred:2lev 1 1024 10 1 knuth_base_mergesort2084617026
	sim-bpred -bpred 2lev -bpred:2lev 1 2048 10 1 knuth_base_mergesort2084617026
	sim-bpred -bpred 2lev -bpred:2lev 1 4096 10 1 knuth_base_mergesort2084617026
