Mon Jul 11 13:06:26 2005
Run as: "./do_simple -c random.org5 -o 5 algorithm_n"
-------------------------------------------------------------------------------------------------
sim-cache                                     4096 |         4096 |         4096 |         4096 |         8192 |         8192 |         8192 |         8192 |        16384 |        16384 |        16384 |        16384 |        32768 |        32768 |        32768 |        32768 |        65536 |        65536 |        65536 |        65536 |       131072 |       131072 |       131072 |       131072 |       262144 |       262144 |       262144 |       262144 |       524288 |       524288 |       524288 |       524288 |      1048576 |      1048576 |      1048576 |      1048576 |      2097152 |      2097152 |      2097152 |      2097152 |      4194304 |      4194304 |      4194304 |      4194304 |
-cache:dl1 dl1:256:32:1:l -cache:dl2 dl2:131072:32:1:l -cache:il1 il1:256:32:1:l -cache:il2 dl2
-cache:dl1 dl1:256:32:1:l -cache:dl2 dl2:65536:32:1:l -cache:il1 il1:256:32:1:l -cache:il2 dl2
-cache:dl1 dl1:1:32:256:l -cache:dl2 dl2:1:32:131072:l -cache:il1 il1:1:32:256:l -cache:il2 dl2
-cache:dl1 dl1:1:32:256:l -cache:dl2 dl2:1:32:65536:l -cache:il1 il1:1:32:256:l -cache:il2 dl2
-------------------------------------------------------------------------------------------------
sim_num_insn                                891828 |       891828 |       891828 |       891828 |      1916247 |      1916247 |      1916247 |      1916247 |      4186486 |      4186486 |      4186486 |      4186486 |      8924578 |      8924578 |      8924578 |      8924578 |     19282095 |     19282095 |     19282095 |     19282095 |     40783777 |     40783777 |     40783777 |     40783777 |     87332216 |     87332216 |     87332216 |     87332216 |    183565933 |    183565933 |    183565933 |    183565933 |    390203512 |    390203512 |    390203512 |    390203512 |    816056346 |    816056346 |    816056346 |    816056346 |   1724383184 |   1724383184 |   1724383184 |   1724383184 |
sim_num_refs                                234131 |       234131 |       234131 |       234131 |       489102 |       489102 |       489102 |       489102 |      1089124 |      1089124 |      1089124 |      1089124 |      2273005 |      2273005 |      2273005 |      2273005 |      5000546 |      5000546 |      5000546 |      5000546 |     10390317 |     10390317 |     10390317 |     10390317 |     22612157 |     22612157 |     22612157 |     22612157 |     46793054 |     46793054 |     46793054 |     46793054 |    100931256 |    100931256 |    100931256 |    100931256 |    208148999 |    208148999 |    208148999 |    208148999 |    445650874 |    445650874 |    445650874 |    445650874 |
sim_elapsed_time                                 1 |            1 |           10 |            5 |            1 |            1 |           15 |            8 |            1 |            1 |           27 |           14 |            2 |            3 |           48 |           25 |            6 |            5 |           91 |           45 |           11 |           11 |          167 |           78 |           24 |           24 |          289 |          116 |           49 |           50 |          402 |          141 |          107 |          107 |          472 |          209 |          221 |          218 |          589 |          337 |          473 |          470 |          885 |          623 |
sim_inst_rate                          891828.0000 |  891828.0000 |   89182.8000 |  178365.6000 | 1916247.0000 | 1916247.0000 |  127749.8000 |  239530.8750 | 4186486.0000 | 4186486.0000 |  155055.0370 |  299034.7143 | 4462289.0000 | 2974859.3333 |  185928.7083 |  356983.1200 | 3213682.5000 | 3856419.0000 |  211891.1538 |  428491.0000 | 3707616.0909 | 3707616.0909 |  244214.2335 |  522868.9359 | 3638842.3333 | 3638842.3333 |  302187.5986 |  752863.9310 | 3746243.5306 | 3671318.6600 |  456631.6741 | 1301886.0496 | 3646761.7944 | 3646761.7944 |  826702.3559 | 1867002.4498 | 3692562.6516 | 3743377.7339 | 1385494.6452 | 2421532.1840 | 3645630.4101 | 3668900.3915 | 1948455.5751 | 2767870.2793 |
il1.accesses                                891828 |       891828 |       891828 |       891828 |      1916247 |      1916247 |      1916247 |      1916247 |      4186486 |      4186486 |      4186486 |      4186486 |      8924578 |      8924578 |      8924578 |      8924578 |     19282095 |     19282095 |     19282095 |     19282095 |     40783777 |     40783777 |     40783777 |     40783777 |     87332216 |     87332216 |     87332216 |     87332216 |    183565933 |    183565933 |    183565933 |    183565933 |    390203512 |    390203512 |    390203512 |    390203512 |    816056346 |    816056346 |    816056346 |    816056346 |   1724383184 |   1724383184 |   1724383184 |   1724383184 |
il1.hits                                    891395 |       891395 |       891460 |       891460 |      1915803 |      1915803 |      1915912 |      1915912 |      4186029 |      4186029 |      4186126 |      4186126 |      8924131 |      8924131 |      8924241 |      8924241 |     19281625 |     19281625 |     19281735 |     19281735 |     40783331 |     40783331 |     40783440 |     40783440 |     87331747 |     87331747 |     87331856 |     87331856 |    183565487 |    183565487 |    183565596 |    183565596 |    390203035 |    390203035 |    390203112 |    390203112 |    816055876 |    816055876 |    816055950 |    816055950 |   1724382707 |   1724382707 |   1724382784 |   1724382784 |
il1.misses                                     433 |          433 |          368 |          368 |          444 |          444 |          335 |          335 |          457 |          457 |          360 |          360 |          447 |          447 |          337 |          337 |          470 |          470 |          360 |          360 |          446 |          446 |          337 |          337 |          469 |          469 |          360 |          360 |          446 |          446 |          337 |          337 |          477 |          477 |          400 |          400 |          470 |          470 |          396 |          396 |          477 |          477 |          400 |          400 |
il1.replacements                               226 |          226 |          112 |          112 |          262 |          262 |           79 |           79 |          256 |          256 |          104 |          104 |          265 |          265 |           81 |           81 |          269 |          269 |          104 |          104 |          264 |          264 |           81 |           81 |          268 |          268 |          104 |          104 |          264 |          264 |           81 |           81 |          256 |          256 |          144 |          144 |          249 |          249 |          140 |          140 |          256 |          256 |          144 |          144 |
il1.writebacks                                   0 |            0 |            0 |            0 |            0 |            0 |            0 |            0 |            0 |            0 |            0 |            0 |            0 |            0 |            0 |            0 |            0 |            0 |            0 |            0 |            0 |            0 |            0 |            0 |            0 |            0 |            0 |            0 |            0 |            0 |            0 |            0 |            0 |            0 |            0 |            0 |            0 |            0 |            0 |            0 |            0 |            0 |            0 |            0 |
il1.invalidations                                0 |            0 |            0 |            0 |            0 |            0 |            0 |            0 |            0 |            0 |            0 |            0 |            0 |            0 |            0 |            0 |            0 |            0 |            0 |            0 |            0 |            0 |            0 |            0 |            0 |            0 |            0 |            0 |            0 |            0 |            0 |            0 |            0 |            0 |            0 |            0 |            0 |            0 |            0 |            0 |            0 |            0 |            0 |            0 |
il1.miss_rate                               0.0005 |       0.0005 |       0.0004 |       0.0004 |       0.0002 |       0.0002 |       0.0002 |       0.0002 |       0.0001 |       0.0001 |       0.0001 |       0.0001 |       0.0001 |       0.0001 |       0.0000 |       0.0000 |       0.0000 |       0.0000 |       0.0000 |       0.0000 |       0.0000 |       0.0000 |       0.0000 |       0.0000 |       0.0000 |       0.0000 |       0.0000 |       0.0000 |       0.0000 |       0.0000 |       0.0000 |       0.0000 |       0.0000 |       0.0000 |       0.0000 |       0.0000 |       0.0000 |       0.0000 |       0.0000 |       0.0000 |       0.0000 |       0.0000 |       0.0000 |       0.0000 |
il1.repl_rate                               0.0003 |       0.0003 |       0.0001 |       0.0001 |       0.0001 |       0.0001 |       0.0000 |       0.0000 |       0.0001 |       0.0001 |       0.0000 |       0.0000 |       0.0000 |       0.0000 |       0.0000 |       0.0000 |       0.0000 |       0.0000 |       0.0000 |       0.0000 |       0.0000 |       0.0000 |       0.0000 |       0.0000 |       0.0000 |       0.0000 |       0.0000 |       0.0000 |       0.0000 |       0.0000 |       0.0000 |       0.0000 |       0.0000 |       0.0000 |       0.0000 |       0.0000 |       0.0000 |       0.0000 |       0.0000 |       0.0000 |       0.0000 |       0.0000 |       0.0000 |       0.0000 |
il1.wb_rate                                 0.0000 |       0.0000 |       0.0000 |       0.0000 |       0.0000 |       0.0000 |       0.0000 |       0.0000 |       0.0000 |       0.0000 |       0.0000 |       0.0000 |       0.0000 |       0.0000 |       0.0000 |       0.0000 |       0.0000 |       0.0000 |       0.0000 |       0.0000 |       0.0000 |       0.0000 |       0.0000 |       0.0000 |       0.0000 |       0.0000 |       0.0000 |       0.0000 |       0.0000 |       0.0000 |       0.0000 |       0.0000 |       0.0000 |       0.0000 |       0.0000 |       0.0000 |       0.0000 |       0.0000 |       0.0000 |       0.0000 |       0.0000 |       0.0000 |       0.0000 |       0.0000 |
il1.inv_rate                                0.0000 |       0.0000 |       0.0000 |       0.0000 |       0.0000 |       0.0000 |       0.0000 |       0.0000 |       0.0000 |       0.0000 |       0.0000 |       0.0000 |       0.0000 |       0.0000 |       0.0000 |       0.0000 |       0.0000 |       0.0000 |       0.0000 |       0.0000 |       0.0000 |       0.0000 |       0.0000 |       0.0000 |       0.0000 |       0.0000 |       0.0000 |       0.0000 |       0.0000 |       0.0000 |       0.0000 |       0.0000 |       0.0000 |       0.0000 |       0.0000 |       0.0000 |       0.0000 |       0.0000 |       0.0000 |       0.0000 |       0.0000 |       0.0000 |       0.0000 |       0.0000 |
dl1.accesses                                250597 |       250597 |       250597 |       250597 |       521952 |       521952 |       521952 |       521952 |      1154742 |      1154742 |      1154742 |      1154742 |      2404159 |      2404159 |      2404159 |      2404159 |      5262772 |      5262772 |      5262772 |      5262772 |     10914687 |     10914687 |     10914687 |     10914687 |     23660815 |     23660815 |     23660815 |     23660815 |     48890288 |     48890288 |     48890288 |     48890288 |    105125642 |    105125642 |    105125642 |    105125642 |    216537689 |    216537689 |    216537689 |    216537689 |    462428172 |    462428172 |    462428172 |    462428172 |
dl1.hits                                    236731 |       236731 |       237333 |       237333 |       494268 |       494268 |       495882 |       495882 |      1091177 |      1091177 |      1094861 |      1094861 |      2276294 |      2276294 |      2284861 |      2284861 |      4973180 |      4973180 |      4991869 |      4991869 |     10332818 |     10332818 |     10373347 |     10373347 |     22360313 |     22360313 |     22447509 |     22447509 |     46281006 |     46281006 |     46464123 |     46464123 |     99327660 |     99327660 |     99748367 |     99748367 |    204886944 |    204886944 |    205783999 |    205783999 |    436907760 |    436907760 |    438824478 |    438824478 |
dl1.misses                                   13866 |        13866 |        13264 |        13264 |        27684 |        27684 |        26070 |        26070 |        63565 |        63565 |        59881 |        59881 |       127865 |       127865 |       119298 |       119298 |       289592 |       289592 |       270903 |       270903 |       581869 |       581869 |       541340 |       541340 |      1300502 |      1300502 |      1213306 |      1213306 |      2609282 |      2609282 |      2426165 |      2426165 |      5797982 |      5797982 |      5377275 |      5377275 |     11650745 |     11650745 |     10753690 |     10753690 |     25520412 |     25520412 |     23603694 |     23603694 |
dl1.replacements                             13610 |        13610 |        13008 |        13008 |        27428 |        27428 |        25814 |        25814 |        63309 |        63309 |        59625 |        59625 |       127609 |       127609 |       119042 |       119042 |       289336 |       289336 |       270647 |       270647 |       581613 |       581613 |       541084 |       541084 |      1300246 |      1300246 |      1213050 |      1213050 |      2609026 |      2609026 |      2425909 |      2425909 |      5797726 |      5797726 |      5377019 |      5377019 |     11650489 |     11650489 |     10753434 |     10753434 |     25520156 |     25520156 |     23603438 |     23603438 |
dl1.writebacks                                7174 |         7174 |         6962 |         6962 |        14154 |        14154 |        13624 |        13624 |        32122 |        32122 |        31049 |        31049 |        64369 |        64369 |        61795 |        61795 |       145139 |       145139 |       139670 |       139670 |       290751 |       290751 |       279036 |       279036 |       648807 |       648807 |       623320 |       623320 |      1300232 |      1300232 |      1246356 |      1246356 |      2884857 |      2884857 |      2755285 |      2755285 |      5786873 |      5786873 |      5510262 |      5510262 |     12663606 |     12663606 |     12068807 |     12068807 |
dl1.invalidations                                0 |            0 |            0 |            0 |            0 |            0 |            0 |            0 |            0 |            0 |            0 |            0 |            0 |            0 |            0 |            0 |            0 |            0 |            0 |            0 |            0 |            0 |            0 |            0 |            0 |            0 |            0 |            0 |            0 |            0 |            0 |            0 |            0 |            0 |            0 |            0 |            0 |            0 |            0 |            0 |            0 |            0 |            0 |            0 |
dl1.miss_rate                               0.0553 |       0.0553 |       0.0529 |       0.0529 |       0.0530 |       0.0530 |       0.0499 |       0.0499 |       0.0550 |       0.0550 |       0.0519 |       0.0519 |       0.0532 |       0.0532 |       0.0496 |       0.0496 |       0.0550 |       0.0550 |       0.0515 |       0.0515 |       0.0533 |       0.0533 |       0.0496 |       0.0496 |       0.0550 |       0.0550 |       0.0513 |       0.0513 |       0.0534 |       0.0534 |       0.0496 |       0.0496 |       0.0552 |       0.0552 |       0.0512 |       0.0512 |       0.0538 |       0.0538 |       0.0497 |       0.0497 |       0.0552 |       0.0552 |       0.0510 |       0.0510 |
dl1.repl_rate                               0.0543 |       0.0543 |       0.0519 |       0.0519 |       0.0525 |       0.0525 |       0.0495 |       0.0495 |       0.0548 |       0.0548 |       0.0516 |       0.0516 |       0.0531 |       0.0531 |       0.0495 |       0.0495 |       0.0550 |       0.0550 |       0.0514 |       0.0514 |       0.0533 |       0.0533 |       0.0496 |       0.0496 |       0.0550 |       0.0550 |       0.0513 |       0.0513 |       0.0534 |       0.0534 |       0.0496 |       0.0496 |       0.0552 |       0.0552 |       0.0511 |       0.0511 |       0.0538 |       0.0538 |       0.0497 |       0.0497 |       0.0552 |       0.0552 |       0.0510 |       0.0510 |
dl1.wb_rate                                 0.0286 |       0.0286 |       0.0278 |       0.0278 |       0.0271 |       0.0271 |       0.0261 |       0.0261 |       0.0278 |       0.0278 |       0.0269 |       0.0269 |       0.0268 |       0.0268 |       0.0257 |       0.0257 |       0.0276 |       0.0276 |       0.0265 |       0.0265 |       0.0266 |       0.0266 |       0.0256 |       0.0256 |       0.0274 |       0.0274 |       0.0263 |       0.0263 |       0.0266 |       0.0266 |       0.0255 |       0.0255 |       0.0274 |       0.0274 |       0.0262 |       0.0262 |       0.0267 |       0.0267 |       0.0254 |       0.0254 |       0.0274 |       0.0274 |       0.0261 |       0.0261 |
dl1.inv_rate                                0.0000 |       0.0000 |       0.0000 |       0.0000 |       0.0000 |       0.0000 |       0.0000 |       0.0000 |       0.0000 |       0.0000 |       0.0000 |       0.0000 |       0.0000 |       0.0000 |       0.0000 |       0.0000 |       0.0000 |       0.0000 |       0.0000 |       0.0000 |       0.0000 |       0.0000 |       0.0000 |       0.0000 |       0.0000 |       0.0000 |       0.0000 |       0.0000 |       0.0000 |       0.0000 |       0.0000 |       0.0000 |       0.0000 |       0.0000 |       0.0000 |       0.0000 |       0.0000 |       0.0000 |       0.0000 |       0.0000 |       0.0000 |       0.0000 |       0.0000 |       0.0000 |
dl2.accesses                                 21473 |        21473 |        20594 |        20594 |        42282 |        42282 |        40029 |        40029 |        96144 |        96144 |        91290 |        91290 |       192681 |       192681 |       181430 |       181430 |       435201 |       435201 |       410933 |       410933 |       873066 |       873066 |       820713 |       820713 |      1949778 |      1949778 |      1836986 |      1836986 |      3909960 |      3909960 |      3672858 |      3672858 |      8683316 |      8683316 |      8132960 |      8132960 |     17438088 |     17438088 |     16264348 |     16264348 |     38184495 |     38184495 |     35672901 |     35672901 |
dl2.hits                                     19651 |        19651 |        18790 |        18790 |        39463 |        39463 |        37235 |        37235 |        91248 |        91248 |        86421 |        86421 |       183716 |       183716 |       172490 |       172490 |       418021 |       418021 |       393777 |       393777 |       839526 |       839526 |       787197 |       787197 |      1883445 |      1828076 |      1770678 |      1535272 |      3723299 |      1704218 |      3044901 |      1263923 |      3912445 |      3348941 |      2790716 |      2773433 |      6766971 |      6714586 |      5546242 |      5529889 |     14644382 |     14608645 |     12107848 |     12091463 |
dl2.misses                                    1822 |         1822 |         1804 |         1804 |         2819 |         2819 |         2794 |         2794 |         4896 |         4896 |         4869 |         4869 |         8965 |         8965 |         8940 |         8940 |        17180 |        17180 |        17156 |        17156 |        33540 |        33540 |        33516 |        33516 |        66333 |       121702 |        66308 |       301714 |       186661 |      2205742 |       627957 |      2408935 |      4770871 |      5334375 |      5342244 |      5359527 |     10671117 |     10723502 |     10718106 |     10734459 |     23540113 |     23575850 |     23565053 |     23581438 |
dl2.replacements                               195 |          195 |            0 |            0 |          204 |          204 |            0 |            0 |          239 |          239 |            0 |            0 |          224 |          224 |            0 |            0 |          232 |          232 |            0 |            0 |          223 |          223 |            0 |            0 |          233 |        57273 |            0 |       236178 |        56711 |      2140206 |       496885 |      2343399 |      4639799 |      5268839 |      5211172 |      5293991 |     10540045 |     10657966 |     10587034 |     10668923 |     23409041 |     23510314 |     23433981 |     23515902 |
dl2.writebacks                                 122 |          122 |            0 |            0 |          128 |          128 |            0 |            0 |          160 |          160 |            0 |            0 |          147 |          147 |            0 |            0 |          156 |          156 |            0 |            0 |          147 |          147 |            0 |            0 |          156 |        31887 |            0 |       235645 |        31330 |      1223445 |       496331 |      1212863 |      2625182 |      2690879 |      2688190 |      2720961 |      5423093 |      5467404 |      5441470 |      5474245 |     11936137 |     12002519 |     11996617 |     12029399 |
dl2.invalidations                                0 |            0 |            0 |            0 |            0 |            0 |            0 |            0 |            0 |            0 |            0 |            0 |            0 |            0 |            0 |            0 |            0 |            0 |            0 |            0 |            0 |            0 |            0 |            0 |            0 |            0 |            0 |            0 |            0 |            0 |            0 |            0 |            0 |            0 |            0 |            0 |            0 |            0 |            0 |            0 |            0 |            0 |            0 |            0 |
dl2.miss_rate                               0.0849 |       0.0849 |       0.0876 |       0.0876 |       0.0667 |       0.0667 |       0.0698 |       0.0698 |       0.0509 |       0.0509 |       0.0533 |       0.0533 |       0.0465 |       0.0465 |       0.0493 |       0.0493 |       0.0395 |       0.0395 |       0.0417 |       0.0417 |       0.0384 |       0.0384 |       0.0408 |       0.0408 |       0.0340 |       0.0624 |       0.0361 |       0.1642 |       0.0477 |       0.5641 |       0.1710 |       0.6559 |       0.5494 |       0.6143 |       0.6569 |       0.6590 |       0.6119 |       0.6149 |       0.6590 |       0.6600 |       0.6165 |       0.6174 |       0.6606 |       0.6610 |
dl2.repl_rate                               0.0091 |       0.0091 |       0.0000 |       0.0000 |       0.0048 |       0.0048 |       0.0000 |       0.0000 |       0.0025 |       0.0025 |       0.0000 |       0.0000 |       0.0012 |       0.0012 |       0.0000 |       0.0000 |       0.0005 |       0.0005 |       0.0000 |       0.0000 |       0.0003 |       0.0003 |       0.0000 |       0.0000 |       0.0001 |       0.0294 |       0.0000 |       0.1286 |       0.0145 |       0.5474 |       0.1353 |       0.6380 |       0.5343 |       0.6068 |       0.6407 |       0.6509 |       0.6044 |       0.6112 |       0.6509 |       0.6560 |       0.6131 |       0.6157 |       0.6569 |       0.6592 |
dl2.wb_rate                                 0.0057 |       0.0057 |       0.0000 |       0.0000 |       0.0030 |       0.0030 |       0.0000 |       0.0000 |       0.0017 |       0.0017 |       0.0000 |       0.0000 |       0.0008 |       0.0008 |       0.0000 |       0.0000 |       0.0004 |       0.0004 |       0.0000 |       0.0000 |       0.0002 |       0.0002 |       0.0000 |       0.0000 |       0.0001 |       0.0164 |       0.0000 |       0.1283 |       0.0080 |       0.3129 |       0.1351 |       0.3302 |       0.3023 |       0.3099 |       0.3305 |       0.3346 |       0.3110 |       0.3135 |       0.3346 |       0.3366 |       0.3126 |       0.3143 |       0.3363 |       0.3372 |
dl2.inv_rate                                0.0000 |       0.0000 |       0.0000 |       0.0000 |       0.0000 |       0.0000 |       0.0000 |       0.0000 |       0.0000 |       0.0000 |       0.0000 |       0.0000 |       0.0000 |       0.0000 |       0.0000 |       0.0000 |       0.0000 |       0.0000 |       0.0000 |       0.0000 |       0.0000 |       0.0000 |       0.0000 |       0.0000 |       0.0000 |       0.0000 |       0.0000 |       0.0000 |       0.0000 |       0.0000 |       0.0000 |       0.0000 |       0.0000 |       0.0000 |       0.0000 |       0.0000 |       0.0000 |       0.0000 |       0.0000 |       0.0000 |       0.0000 |       0.0000 |       0.0000 |       0.0000 |
itlb.accesses                               891828 |       891828 |       891828 |       891828 |      1916247 |      1916247 |      1916247 |      1916247 |      4186486 |      4186486 |      4186486 |      4186486 |      8924578 |      8924578 |      8924578 |      8924578 |     19282095 |     19282095 |     19282095 |     19282095 |     40783777 |     40783777 |     40783777 |     40783777 |     87332216 |     87332216 |     87332216 |     87332216 |    183565933 |    183565933 |    183565933 |    183565933 |    390203512 |    390203512 |    390203512 |    390203512 |    816056346 |    816056346 |    816056346 |    816056346 |   1724383184 |   1724383184 |   1724383184 |   1724383184 |
itlb.hits                                   891819 |       891819 |       891819 |       891819 |      1916238 |      1916238 |      1916238 |      1916238 |      4186477 |      4186477 |      4186477 |      4186477 |      8924569 |      8924569 |      8924569 |      8924569 |     19282086 |     19282086 |     19282086 |     19282086 |     40783768 |     40783768 |     40783768 |     40783768 |     87332207 |     87332207 |     87332207 |     87332207 |    183565924 |    183565924 |    183565924 |    183565924 |    390203503 |    390203503 |    390203503 |    390203503 |    816056337 |    816056337 |    816056337 |    816056337 |   1724383175 |   1724383175 |   1724383175 |   1724383175 |
itlb.misses                                      9 |            9 |            9 |            9 |            9 |            9 |            9 |            9 |            9 |            9 |            9 |            9 |            9 |            9 |            9 |            9 |            9 |            9 |            9 |            9 |            9 |            9 |            9 |            9 |            9 |            9 |            9 |            9 |            9 |            9 |            9 |            9 |            9 |            9 |            9 |            9 |            9 |            9 |            9 |            9 |            9 |            9 |            9 |            9 |
itlb.replacements                                0 |            0 |            0 |            0 |            0 |            0 |            0 |            0 |            0 |            0 |            0 |            0 |            0 |            0 |            0 |            0 |            0 |            0 |            0 |            0 |            0 |            0 |            0 |            0 |            0 |            0 |            0 |            0 |            0 |            0 |            0 |            0 |            0 |            0 |            0 |            0 |            0 |            0 |            0 |            0 |            0 |            0 |            0 |            0 |
itlb.writebacks                                  0 |            0 |            0 |            0 |            0 |            0 |            0 |            0 |            0 |            0 |            0 |            0 |            0 |            0 |            0 |            0 |            0 |            0 |            0 |            0 |            0 |            0 |            0 |            0 |            0 |            0 |            0 |            0 |            0 |            0 |            0 |            0 |            0 |            0 |            0 |            0 |            0 |            0 |            0 |            0 |            0 |            0 |            0 |            0 |
itlb.invalidations                               0 |            0 |            0 |            0 |            0 |            0 |            0 |            0 |            0 |            0 |            0 |            0 |            0 |            0 |            0 |            0 |            0 |            0 |            0 |            0 |            0 |            0 |            0 |            0 |            0 |            0 |            0 |            0 |            0 |            0 |            0 |            0 |            0 |            0 |            0 |            0 |            0 |            0 |            0 |            0 |            0 |            0 |            0 |            0 |
itlb.miss_rate                              0.0000 |       0.0000 |       0.0000 |       0.0000 |       0.0000 |       0.0000 |       0.0000 |       0.0000 |       0.0000 |       0.0000 |       0.0000 |       0.0000 |       0.0000 |       0.0000 |       0.0000 |       0.0000 |       0.0000 |       0.0000 |       0.0000 |       0.0000 |       0.0000 |       0.0000 |       0.0000 |       0.0000 |       0.0000 |       0.0000 |       0.0000 |       0.0000 |       0.0000 |       0.0000 |       0.0000 |       0.0000 |       0.0000 |       0.0000 |       0.0000 |       0.0000 |       0.0000 |       0.0000 |       0.0000 |       0.0000 |       0.0000 |       0.0000 |       0.0000 |       0.0000 |
itlb.repl_rate                              0.0000 |       0.0000 |       0.0000 |       0.0000 |       0.0000 |       0.0000 |       0.0000 |       0.0000 |       0.0000 |       0.0000 |       0.0000 |       0.0000 |       0.0000 |       0.0000 |       0.0000 |       0.0000 |       0.0000 |       0.0000 |       0.0000 |       0.0000 |       0.0000 |       0.0000 |       0.0000 |       0.0000 |       0.0000 |       0.0000 |       0.0000 |       0.0000 |       0.0000 |       0.0000 |       0.0000 |       0.0000 |       0.0000 |       0.0000 |       0.0000 |       0.0000 |       0.0000 |       0.0000 |       0.0000 |       0.0000 |       0.0000 |       0.0000 |       0.0000 |       0.0000 |
itlb.wb_rate                                0.0000 |       0.0000 |       0.0000 |       0.0000 |       0.0000 |       0.0000 |       0.0000 |       0.0000 |       0.0000 |       0.0000 |       0.0000 |       0.0000 |       0.0000 |       0.0000 |       0.0000 |       0.0000 |       0.0000 |       0.0000 |       0.0000 |       0.0000 |       0.0000 |       0.0000 |       0.0000 |       0.0000 |       0.0000 |       0.0000 |       0.0000 |       0.0000 |       0.0000 |       0.0000 |       0.0000 |       0.0000 |       0.0000 |       0.0000 |       0.0000 |       0.0000 |       0.0000 |       0.0000 |       0.0000 |       0.0000 |       0.0000 |       0.0000 |       0.0000 |       0.0000 |
itlb.inv_rate                               0.0000 |       0.0000 |       0.0000 |       0.0000 |       0.0000 |       0.0000 |       0.0000 |       0.0000 |       0.0000 |       0.0000 |       0.0000 |       0.0000 |       0.0000 |       0.0000 |       0.0000 |       0.0000 |       0.0000 |       0.0000 |       0.0000 |       0.0000 |       0.0000 |       0.0000 |       0.0000 |       0.0000 |       0.0000 |       0.0000 |       0.0000 |       0.0000 |       0.0000 |       0.0000 |       0.0000 |       0.0000 |       0.0000 |       0.0000 |       0.0000 |       0.0000 |       0.0000 |       0.0000 |       0.0000 |       0.0000 |       0.0000 |       0.0000 |       0.0000 |       0.0000 |
dtlb.accesses                               250597 |       250597 |       250597 |       250597 |       521952 |       521952 |       521952 |       521952 |      1154742 |      1154742 |      1154742 |      1154742 |      2404159 |      2404159 |      2404159 |      2404159 |      5262772 |      5262772 |      5262772 |      5262772 |     10914687 |     10914687 |     10914687 |     10914687 |     23660815 |     23660815 |     23660815 |     23660815 |     48890288 |     48890288 |     48890288 |     48890288 |    105125642 |    105125642 |    105125642 |    105125642 |    216537689 |    216537689 |    216537689 |    216537689 |    462428172 |    462428172 |    462428172 |    462428172 |
dtlb.hits                                   250582 |       250582 |       250582 |       250582 |       521929 |       521929 |       521929 |       521929 |      1154703 |      1154703 |      1154703 |      1154703 |      2404088 |      2404088 |      2404088 |      2404088 |      5262559 |      5262559 |      5262559 |      5262559 |     10910503 |     10910503 |     10910503 |     10910503 |     23651340 |     23651340 |     23651340 |     23651340 |     48871334 |     48871334 |     48871334 |     48871334 |    105083624 |    105083624 |    105083624 |    105083624 |    216453651 |    216453651 |    216453651 |    216453651 |    462243699 |    462243699 |    462243699 |    462243699 |
dtlb.misses                                     15 |           15 |           15 |           15 |           23 |           23 |           23 |           23 |           39 |           39 |           39 |           39 |           71 |           71 |           71 |           71 |          213 |          213 |          213 |          213 |         4184 |         4184 |         4184 |         4184 |         9475 |         9475 |         9475 |         9475 |        18954 |        18954 |        18954 |        18954 |        42018 |        42018 |        42018 |        42018 |        84038 |        84038 |        84038 |        84038 |       184473 |       184473 |       184473 |       184473 |
dtlb.replacements                                0 |            0 |            0 |            0 |            0 |            0 |            0 |            0 |            0 |            0 |            0 |            0 |            0 |            0 |            0 |            0 |           85 |           85 |           85 |           85 |         4056 |         4056 |         4056 |         4056 |         9347 |         9347 |         9347 |         9347 |        18826 |        18826 |        18826 |        18826 |        41890 |        41890 |        41890 |        41890 |        83910 |        83910 |        83910 |        83910 |       184345 |       184345 |       184345 |       184345 |
dtlb.writebacks                                  0 |            0 |            0 |            0 |            0 |            0 |            0 |            0 |            0 |            0 |            0 |            0 |            0 |            0 |            0 |            0 |           51 |           51 |           51 |           51 |         2129 |         2129 |         2129 |         2129 |         4823 |         4823 |         4823 |         4823 |         9695 |         9695 |         9695 |         9695 |        21491 |        21491 |        21491 |        21491 |        43033 |        43033 |        43033 |        43033 |        94308 |        94308 |        94308 |        94308 |
dtlb.invalidations                               0 |            0 |            0 |            0 |            0 |            0 |            0 |            0 |            0 |            0 |            0 |            0 |            0 |            0 |            0 |            0 |            0 |            0 |            0 |            0 |            0 |            0 |            0 |            0 |            0 |            0 |            0 |            0 |            0 |            0 |            0 |            0 |            0 |            0 |            0 |            0 |            0 |            0 |            0 |            0 |            0 |            0 |            0 |            0 |
dtlb.miss_rate                              0.0001 |       0.0001 |       0.0001 |       0.0001 |       0.0000 |       0.0000 |       0.0000 |       0.0000 |       0.0000 |       0.0000 |       0.0000 |       0.0000 |       0.0000 |       0.0000 |       0.0000 |       0.0000 |       0.0000 |       0.0000 |       0.0000 |       0.0000 |       0.0004 |       0.0004 |       0.0004 |       0.0004 |       0.0004 |       0.0004 |       0.0004 |       0.0004 |       0.0004 |       0.0004 |       0.0004 |       0.0004 |       0.0004 |       0.0004 |       0.0004 |       0.0004 |       0.0004 |       0.0004 |       0.0004 |       0.0004 |       0.0004 |       0.0004 |       0.0004 |       0.0004 |
dtlb.repl_rate                              0.0000 |       0.0000 |       0.0000 |       0.0000 |       0.0000 |       0.0000 |       0.0000 |       0.0000 |       0.0000 |       0.0000 |       0.0000 |       0.0000 |       0.0000 |       0.0000 |       0.0000 |       0.0000 |       0.0000 |       0.0000 |       0.0000 |       0.0000 |       0.0004 |       0.0004 |       0.0004 |       0.0004 |       0.0004 |       0.0004 |       0.0004 |       0.0004 |       0.0004 |       0.0004 |       0.0004 |       0.0004 |       0.0004 |       0.0004 |       0.0004 |       0.0004 |       0.0004 |       0.0004 |       0.0004 |       0.0004 |       0.0004 |       0.0004 |       0.0004 |       0.0004 |
dtlb.wb_rate                                0.0000 |       0.0000 |       0.0000 |       0.0000 |       0.0000 |       0.0000 |       0.0000 |       0.0000 |       0.0000 |       0.0000 |       0.0000 |       0.0000 |       0.0000 |       0.0000 |       0.0000 |       0.0000 |       0.0000 |       0.0000 |       0.0000 |       0.0000 |       0.0002 |       0.0002 |       0.0002 |       0.0002 |       0.0002 |       0.0002 |       0.0002 |       0.0002 |       0.0002 |       0.0002 |       0.0002 |       0.0002 |       0.0002 |       0.0002 |       0.0002 |       0.0002 |       0.0002 |       0.0002 |       0.0002 |       0.0002 |       0.0002 |       0.0002 |       0.0002 |       0.0002 |
dtlb.inv_rate                               0.0000 |       0.0000 |       0.0000 |       0.0000 |       0.0000 |       0.0000 |       0.0000 |       0.0000 |       0.0000 |       0.0000 |       0.0000 |       0.0000 |       0.0000 |       0.0000 |       0.0000 |       0.0000 |       0.0000 |       0.0000 |       0.0000 |       0.0000 |       0.0000 |       0.0000 |       0.0000 |       0.0000 |       0.0000 |       0.0000 |       0.0000 |       0.0000 |       0.0000 |       0.0000 |       0.0000 |       0.0000 |       0.0000 |       0.0000 |       0.0000 |       0.0000 |       0.0000 |       0.0000 |       0.0000 |       0.0000 |       0.0000 |       0.0000 |       0.0000 |       0.0000 |
ld_text_base                            0x00400000 |   0x00400000 |   0x00400000 |   0x00400000 |   0x00400000 |   0x00400000 |   0x00400000 |   0x00400000 |   0x00400000 |   0x00400000 |   0x00400000 |   0x00400000 |   0x00400000 |   0x00400000 |   0x00400000 |   0x00400000 |   0x00400000 |   0x00400000 |   0x00400000 |   0x00400000 |   0x00400000 |   0x00400000 |   0x00400000 |   0x00400000 |   0x00400000 |   0x00400000 |   0x00400000 |   0x00400000 |   0x00400000 |   0x00400000 |   0x00400000 |   0x00400000 |   0x00400000 |   0x00400000 |   0x00400000 |   0x00400000 |   0x00400000 |   0x00400000 |   0x00400000 |   0x00400000 |   0x00400000 |   0x00400000 |   0x00400000 |   0x00400000 |
ld_text_size                                 71552 |        71552 |        71552 |        71552 |        71584 |        71584 |        71584 |        71584 |        71600 |        71600 |        71600 |        71600 |        71616 |        71616 |        71616 |        71616 |        71616 |        71616 |        71616 |        71616 |        71616 |        71616 |        71616 |        71616 |        71616 |        71616 |        71616 |        71616 |        71616 |        71616 |        71616 |        71616 |        71616 |        71616 |        71616 |        71616 |        71616 |        71616 |        71616 |        71616 |        71616 |        71616 |        71616 |        71616 |
ld_data_base                            0x10000000 |   0x10000000 |   0x10000000 |   0x10000000 |   0x10000000 |   0x10000000 |   0x10000000 |   0x10000000 |   0x10000000 |   0x10000000 |   0x10000000 |   0x10000000 |   0x10000000 |   0x10000000 |   0x10000000 |   0x10000000 |   0x10000000 |   0x10000000 |   0x10000000 |   0x10000000 |   0x10000000 |   0x10000000 |   0x10000000 |   0x10000000 |   0x10000000 |   0x10000000 |   0x10000000 |   0x10000000 |   0x10000000 |   0x10000000 |   0x10000000 |   0x10000000 |   0x10000000 |   0x10000000 |   0x10000000 |   0x10000000 |   0x10000000 |   0x10000000 |   0x10000000 |   0x10000000 |   0x10000000 |   0x10000000 |   0x10000000 |   0x10000000 |
ld_data_size                                  8192 |         8192 |         8192 |         8192 |         8192 |         8192 |         8192 |         8192 |         8192 |         8192 |         8192 |         8192 |         8192 |         8192 |         8192 |         8192 |         8192 |         8192 |         8192 |         8192 |         8192 |         8192 |         8192 |         8192 |         8192 |         8192 |         8192 |         8192 |         8192 |         8192 |         8192 |         8192 |         8192 |         8192 |         8192 |         8192 |         8192 |         8192 |         8192 |         8192 |         8192 |         8192 |         8192 |         8192 |
ld_stack_base                           0x7fffc000 |   0x7fffc000 |   0x7fffc000 |   0x7fffc000 |   0x7fffc000 |   0x7fffc000 |   0x7fffc000 |   0x7fffc000 |   0x7fffc000 |   0x7fffc000 |   0x7fffc000 |   0x7fffc000 |   0x7fffc000 |   0x7fffc000 |   0x7fffc000 |   0x7fffc000 |   0x7fffc000 |   0x7fffc000 |   0x7fffc000 |   0x7fffc000 |   0x7fffc000 |   0x7fffc000 |   0x7fffc000 |   0x7fffc000 |   0x7fffc000 |   0x7fffc000 |   0x7fffc000 |   0x7fffc000 |   0x7fffc000 |   0x7fffc000 |   0x7fffc000 |   0x7fffc000 |   0x7fffc000 |   0x7fffc000 |   0x7fffc000 |   0x7fffc000 |   0x7fffc000 |   0x7fffc000 |   0x7fffc000 |   0x7fffc000 |   0x7fffc000 |   0x7fffc000 |   0x7fffc000 |   0x7fffc000 |
ld_stack_size                                16384 |        16384 |        16384 |        16384 |        16384 |        16384 |        16384 |        16384 |        16384 |        16384 |        16384 |        16384 |        16384 |        16384 |        16384 |        16384 |        16384 |        16384 |        16384 |        16384 |        16384 |        16384 |        16384 |        16384 |        16384 |        16384 |        16384 |        16384 |        16384 |        16384 |        16384 |        16384 |        16384 |        16384 |        16384 |        16384 |        16384 |        16384 |        16384 |        16384 |        16384 |        16384 |        16384 |        16384 |
ld_prog_entry                           0x00400140 |   0x00400140 |   0x00400140 |   0x00400140 |   0x00400140 |   0x00400140 |   0x00400140 |   0x00400140 |   0x00400140 |   0x00400140 |   0x00400140 |   0x00400140 |   0x00400140 |   0x00400140 |   0x00400140 |   0x00400140 |   0x00400140 |   0x00400140 |   0x00400140 |   0x00400140 |   0x00400140 |   0x00400140 |   0x00400140 |   0x00400140 |   0x00400140 |   0x00400140 |   0x00400140 |   0x00400140 |   0x00400140 |   0x00400140 |   0x00400140 |   0x00400140 |   0x00400140 |   0x00400140 |   0x00400140 |   0x00400140 |   0x00400140 |   0x00400140 |   0x00400140 |   0x00400140 |   0x00400140 |   0x00400140 |   0x00400140 |   0x00400140 |
ld_environ_base                         0x7fff8000 |   0x7fff8000 |   0x7fff8000 |   0x7fff8000 |   0x7fff8000 |   0x7fff8000 |   0x7fff8000 |   0x7fff8000 |   0x7fff8000 |   0x7fff8000 |   0x7fff8000 |   0x7fff8000 |   0x7fff8000 |   0x7fff8000 |   0x7fff8000 |   0x7fff8000 |   0x7fff8000 |   0x7fff8000 |   0x7fff8000 |   0x7fff8000 |   0x7fff8000 |   0x7fff8000 |   0x7fff8000 |   0x7fff8000 |   0x7fff8000 |   0x7fff8000 |   0x7fff8000 |   0x7fff8000 |   0x7fff8000 |   0x7fff8000 |   0x7fff8000 |   0x7fff8000 |   0x7fff8000 |   0x7fff8000 |   0x7fff8000 |   0x7fff8000 |   0x7fff8000 |   0x7fff8000 |   0x7fff8000 |   0x7fff8000 |   0x7fff8000 |   0x7fff8000 |   0x7fff8000 |   0x7fff8000 |
ld_target_big_endian                             0 |            0 |            0 |            0 |            0 |            0 |            0 |            0 |            0 |            0 |            0 |            0 |            0 |            0 |            0 |            0 |            0 |            0 |            0 |            0 |            0 |            0 |            0 |            0 |            0 |            0 |            0 |            0 |            0 |            0 |            0 |            0 |            0 |            0 |            0 |            0 |            0 |            0 |            0 |            0 |            0 |            0 |            0 |            0 |
mem.page_count                                  33 |           33 |           33 |           33 |           41 |           41 |           41 |           41 |           57 |           57 |           57 |           57 |           89 |           89 |           89 |           89 |          153 |          153 |          153 |          153 |          281 |          281 |          281 |          281 |          537 |          537 |          537 |          537 |         1049 |         1049 |         1049 |         1049 |         2079 |         2079 |         2079 |         2079 |         4133 |         4133 |         4133 |         4133 |         8241 |         8241 |         8241 |         8241 |
mem.page_mem                                  132k |         132k |         132k |         132k |         164k |         164k |         164k |         164k |         228k |         228k |         228k |         228k |         356k |         356k |         356k |         356k |         612k |         612k |         612k |         612k |        1124k |        1124k |        1124k |        1124k |        2148k |        2148k |        2148k |        2148k |        4196k |        4196k |        4196k |        4196k |        8316k |        8316k |        8316k |        8316k |       16532k |       16532k |       16532k |       16532k |       32964k |       32964k |       32964k |       32964k |
mem.ptab_misses                                 33 |           33 |           33 |           33 |           41 |           41 |           41 |           41 |           57 |           57 |           57 |           57 |           89 |           89 |           89 |           89 |          153 |          153 |          153 |          153 |          281 |          281 |          281 |          281 |          537 |          537 |          537 |          537 |         1049 |         1049 |         1049 |         1049 |        97818 |        97818 |        97818 |        97818 |       104755 |       104755 |       104755 |       104755 |       114526 |       114526 |       114526 |       114526 |
mem.ptab_accesses                          4512402 |      4512402 |      4512402 |      4512402 |      9152980 |      9152980 |      9152980 |      9152980 |     19499612 |     19499612 |     19499612 |     19499612 |     40950910 |     40950910 |     40950910 |     40950910 |     88098204 |     88098204 |     88098204 |     88098204 |    185408762 |    185408762 |    185408762 |    185408762 |    397094774 |    397094774 |    397094774 |    397094774 |    832488588 |    832488588 |    832488588 |    832488588 |   1771509612 |   1771509612 |   1771509612 |   1771509612 |   3697745042 |   3697745042 |   3697745042 |   3697745042 |   7822833360 |   7822833360 |   7822833360 |   7822833360 |
mem.ptab_miss_rate                          0.0000 |       0.0000 |       0.0000 |       0.0000 |       0.0000 |       0.0000 |       0.0000 |       0.0000 |       0.0000 |       0.0000 |       0.0000 |       0.0000 |       0.0000 |       0.0000 |       0.0000 |       0.0000 |       0.0000 |       0.0000 |       0.0000 |       0.0000 |       0.0000 |       0.0000 |       0.0000 |       0.0000 |       0.0000 |       0.0000 |       0.0000 |       0.0000 |       0.0000 |       0.0000 |       0.0000 |       0.0000 |       0.0001 |       0.0001 |       0.0001 |       0.0001 |       0.0000 |       0.0000 |       0.0000 |       0.0000 |       0.0000 |       0.0000 |       0.0000 |       0.0000 |
-------------------------------------------------------------------------------------------------
sim-bpred                                     4096 |         4096 |         4096 |         4096 |         4096 |         4096 |         4096 |         8192 |         8192 |         8192 |         8192 |         8192 |         8192 |         8192 |        16384 |        16384 |        16384 |        16384 |        16384 |        16384 |        16384 |        32768 |        32768 |        32768 |        32768 |        32768 |        32768 |        32768 |        65536 |        65536 |        65536 |        65536 |        65536 |        65536 |        65536 |       131072 |       131072 |       131072 |       131072 |       131072 |       131072 |       131072 |       262144 |       262144 |       262144 |       262144 |       262144 |       262144 |       262144 |       524288 |       524288 |       524288 |       524288 |       524288 |       524288 |       524288 |      1048576 |      1048576 |      1048576 |      1048576 |      1048576 |      1048576 |      1048576 |      2097152 |      2097152 |      2097152 |      2097152 |      2097152 |      2097152 |      2097152 |      4194304 |      4194304 |      4194304 |      4194304 |      4194304 |      4194304 |      4194304 |
-bpred bimod -bpred:bimod 512
-bpred bimod -bpred:bimod 1024
-bpred bimod -bpred:bimod 2048
-bpred 2lev -bpred:2lev 1 512 10 1
-bpred 2lev -bpred:2lev 1 1024 10 1
-bpred 2lev -bpred:2lev 1 2048 10 1
-bpred 2lev -bpred:2lev 1 4096 10 1
-------------------------------------------------------------------------------------------------
sim_num_insn                                891828 |       891828 |       891828 |       891828 |       891828 |       891828 |       891828 |      1916247 |      1916247 |      1916247 |      1916247 |      1916247 |      1916247 |      1916247 |      4186486 |      4186486 |      4186486 |      4186486 |      4186486 |      4186486 |      4186486 |      8924578 |      8924578 |      8924578 |      8924578 |      8924578 |      8924578 |      8924578 |     19282095 |     19282095 |     19282095 |     19282095 |     19282095 |     19282095 |     19282095 |     40783777 |     40783777 |     40783777 |     40783777 |     40783777 |     40783777 |     40783777 |     87332216 |     87332216 |     87332216 |     87332216 |     87332216 |     87332216 |     87332216 |    183565933 |    183565933 |    183565933 |    183565933 |    183565933 |    183565933 |    183565933 |    390203512 |    390203512 |    390203512 |    390203512 |    390203512 |    390203512 |    390203512 |    816056346 |    816056346 |    816056346 |    816056346 |    816056346 |    816056346 |    816056346 |   1724383184 |   1724383184 |   1724383184 |   1724383184 |   1724383184 |   1724383184 |   1724383184 |
sim_num_refs                                234131 |       234131 |       234131 |       234131 |       234131 |       234131 |       234131 |       489102 |       489102 |       489102 |       489102 |       489102 |       489102 |       489102 |      1089124 |      1089124 |      1089124 |      1089124 |      1089124 |      1089124 |      1089124 |      2273005 |      2273005 |      2273005 |      2273005 |      2273005 |      2273005 |      2273005 |      5000546 |      5000546 |      5000546 |      5000546 |      5000546 |      5000546 |      5000546 |     10390317 |     10390317 |     10390317 |     10390317 |     10390317 |     10390317 |     10390317 |     22612157 |     22612157 |     22612157 |     22612157 |     22612157 |     22612157 |     22612157 |     46793054 |     46793054 |     46793054 |     46793054 |     46793054 |     46793054 |     46793054 |    100931256 |    100931256 |    100931256 |    100931256 |    100931256 |    100931256 |    100931256 |    208148999 |    208148999 |    208148999 |    208148999 |    208148999 |    208148999 |    208148999 |    445650874 |    445650874 |    445650874 |    445650874 |    445650874 |    445650874 |    445650874 |
sim_elapsed_time                                 1 |            1 |            1 |            1 |            1 |            1 |            1 |            1 |            1 |            1 |            1 |            1 |            1 |            1 |            1 |            1 |            1 |            1 |            1 |            1 |            1 |            1 |            1 |            1 |            1 |            1 |            1 |            1 |            3 |            2 |            2 |            3 |            2 |            2 |            3 |            5 |            5 |            5 |            5 |            4 |            5 |            5 |           10 |           10 |           10 |           11 |           10 |           10 |           10 |           21 |           21 |           21 |           23 |           21 |           22 |           22 |           47 |           45 |           45 |           47 |           45 |           45 |           45 |           96 |           93 |           93 |           99 |           95 |           95 |           95 |          203 |          198 |          197 |          207 |          200 |          201 |          201 |
sim_inst_rate                          891828.0000 |  891828.0000 |  891828.0000 |  891828.0000 |  891828.0000 |  891828.0000 |  891828.0000 | 1916247.0000 | 1916247.0000 | 1916247.0000 | 1916247.0000 | 1916247.0000 | 1916247.0000 | 1916247.0000 | 4186486.0000 | 4186486.0000 | 4186486.0000 | 4186486.0000 | 4186486.0000 | 4186486.0000 | 4186486.0000 | 8924578.0000 | 8924578.0000 | 8924578.0000 | 8924578.0000 | 8924578.0000 | 8924578.0000 | 8924578.0000 | 6427365.0000 | 9641047.5000 | 9641047.5000 | 6427365.0000 | 9641047.5000 | 9641047.5000 | 6427365.0000 | 8156755.4000 | 8156755.4000 | 8156755.4000 | 8156755.4000 |10195944.2500 | 8156755.4000 | 8156755.4000 | 8733221.6000 | 8733221.6000 | 8733221.6000 | 7939292.3636 | 8733221.6000 | 8733221.6000 | 8733221.6000 | 8741234.9048 | 8741234.9048 | 8741234.9048 | 7981127.5217 | 8741234.9048 | 8343906.0455 | 8343906.0455 | 8302202.3830 | 8671189.1556 | 8671189.1556 | 8302202.3830 | 8671189.1556 | 8671189.1556 | 8671189.1556 | 8500586.9375 | 8774799.4194 | 8774799.4194 | 8242993.3939 | 8590066.8000 | 8590066.8000 | 8590066.8000 | 8494498.4433 | 8709005.9798 | 8753214.1320 | 8330353.5459 | 8621915.9200 | 8579020.8159 | 8579020.8159 |
sim_num_branches                            112621 |       112621 |       112621 |       112621 |       112621 |       112621 |       112621 |       243765 |       243765 |       243765 |       243765 |       243765 |       243765 |       243765 |       529570 |       529570 |       529570 |       529570 |       529570 |       529570 |       529570 |      1136888 |      1136888 |      1136888 |      1136888 |      1136888 |      1136888 |      1136888 |      2444427 |      2444427 |      2444427 |      2444427 |      2444427 |      2444427 |      2444427 |      5198001 |      5198001 |      5198001 |      5198001 |      5198001 |      5198001 |      5198001 |     11084205 |     11084205 |     11084205 |     11084205 |     11084205 |     11084205 |     11084205 |     23412128 |     23412128 |     23412128 |     23412128 |     23412128 |     23412128 |     23412128 |     49576516 |     49576516 |     49576516 |     49576516 |     49576516 |     49576516 |     49576516 |    104131475 |    104131475 |    104131475 |    104131475 |    104131475 |    104131475 |    104131475 |    219279328 |    219279328 |    219279328 |    219279328 |    219279328 |    219279328 |    219279328 |
sim_IPB                                     7.9188 |       7.9188 |       7.9188 |       7.9188 |       7.9188 |       7.9188 |       7.9188 |       7.8610 |       7.8610 |       7.8610 |       7.8610 |       7.8610 |       7.8610 |       7.8610 |       7.9054 |       7.9054 |       7.9054 |       7.9054 |       7.9054 |       7.9054 |       7.9054 |       7.8500 |       7.8500 |       7.8500 |       7.8500 |       7.8500 |       7.8500 |       7.8500 |       7.8882 |       7.8882 |       7.8882 |       7.8882 |       7.8882 |       7.8882 |       7.8882 |       7.8461 |       7.8461 |       7.8461 |       7.8461 |       7.8461 |       7.8461 |       7.8461 |       7.8790 |       7.8790 |       7.8790 |       7.8790 |       7.8790 |       7.8790 |       7.8790 |       7.8406 |       7.8406 |       7.8406 |       7.8406 |       7.8406 |       7.8406 |       7.8406 |       7.8707 |       7.8707 |       7.8707 |       7.8707 |       7.8707 |       7.8707 |       7.8707 |       7.8368 |       7.8368 |       7.8368 |       7.8368 |       7.8368 |       7.8368 |       7.8368 |       7.8639 |       7.8639 |       7.8639 |       7.8639 |       7.8639 |       7.8639 |       7.8639 |
bpred_bimod.lookups                         112621 |       112621 |       112621 |xxxxxxxxxxxxx |xxxxxxxxxxxxx |xxxxxxxxxxxxx |xxxxxxxxxxxxx |       243765 |       243765 |       243765 |xxxxxxxxxxxxx |xxxxxxxxxxxxx |xxxxxxxxxxxxx |xxxxxxxxxxxxx |       529570 |       529570 |       529570 |xxxxxxxxxxxxx |xxxxxxxxxxxxx |xxxxxxxxxxxxx |xxxxxxxxxxxxx |      1136888 |      1136888 |      1136888 |xxxxxxxxxxxxx |xxxxxxxxxxxxx |xxxxxxxxxxxxx |xxxxxxxxxxxxx |      2444427 |      2444427 |      2444427 |xxxxxxxxxxxxx |xxxxxxxxxxxxx |xxxxxxxxxxxxx |xxxxxxxxxxxxx |      5198001 |      5198001 |      5198001 |xxxxxxxxxxxxx |xxxxxxxxxxxxx |xxxxxxxxxxxxx |xxxxxxxxxxxxx |     11084205 |     11084205 |     11084205 |xxxxxxxxxxxxx |xxxxxxxxxxxxx |xxxxxxxxxxxxx |xxxxxxxxxxxxx |     23412128 |     23412128 |     23412128 |xxxxxxxxxxxxx |xxxxxxxxxxxxx |xxxxxxxxxxxxx |xxxxxxxxxxxxx |     49576516 |     49576516 |     49576516 |xxxxxxxxxxxxx |xxxxxxxxxxxxx |xxxxxxxxxxxxx |xxxxxxxxxxxxx |    104131475 |    104131475 |    104131475 |xxxxxxxxxxxxx |xxxxxxxxxxxxx |xxxxxxxxxxxxx |xxxxxxxxxxxxx |    219279328 |    219279328 |    219279328 |
bpred_bimod.updates                         112621 |       112621 |       112621 |xxxxxxxxxxxxx |xxxxxxxxxxxxx |xxxxxxxxxxxxx |xxxxxxxxxxxxx |       243765 |       243765 |       243765 |xxxxxxxxxxxxx |xxxxxxxxxxxxx |xxxxxxxxxxxxx |xxxxxxxxxxxxx |       529570 |       529570 |       529570 |xxxxxxxxxxxxx |xxxxxxxxxxxxx |xxxxxxxxxxxxx |xxxxxxxxxxxxx |      1136888 |      1136888 |      1136888 |xxxxxxxxxxxxx |xxxxxxxxxxxxx |xxxxxxxxxxxxx |xxxxxxxxxxxxx |      2444427 |      2444427 |      2444427 |xxxxxxxxxxxxx |xxxxxxxxxxxxx |xxxxxxxxxxxxx |xxxxxxxxxxxxx |      5198001 |      5198001 |      5198001 |xxxxxxxxxxxxx |xxxxxxxxxxxxx |xxxxxxxxxxxxx |xxxxxxxxxxxxx |     11084205 |     11084205 |     11084205 |xxxxxxxxxxxxx |xxxxxxxxxxxxx |xxxxxxxxxxxxx |xxxxxxxxxxxxx |     23412128 |     23412128 |     23412128 |xxxxxxxxxxxxx |xxxxxxxxxxxxx |xxxxxxxxxxxxx |xxxxxxxxxxxxx |     49576516 |     49576516 |     49576516 |xxxxxxxxxxxxx |xxxxxxxxxxxxx |xxxxxxxxxxxxx |xxxxxxxxxxxxx |    104131475 |    104131475 |    104131475 |xxxxxxxxxxxxx |xxxxxxxxxxxxx |xxxxxxxxxxxxx |xxxxxxxxxxxxx |    219279328 |    219279328 |    219279328 |
bpred_bimod.addr_hits                        87466 |        87469 |        87473 |xxxxxxxxxxxxx |xxxxxxxxxxxxx |xxxxxxxxxxxxx |xxxxxxxxxxxxx |       189672 |       189674 |       189680 |xxxxxxxxxxxxx |xxxxxxxxxxxxx |xxxxxxxxxxxxx |xxxxxxxxxxxxx |       412748 |       412751 |       412758 |xxxxxxxxxxxxx |xxxxxxxxxxxxx |xxxxxxxxxxxxx |xxxxxxxxxxxxx |       887161 |       887163 |       887168 |xxxxxxxxxxxxx |xxxxxxxxxxxxx |xxxxxxxxxxxxx |xxxxxxxxxxxxx |      1913294 |      1913297 |      1913302 |xxxxxxxxxxxxx |xxxxxxxxxxxxx |xxxxxxxxxxxxx |xxxxxxxxxxxxx |      4070313 |      4070315 |      4070320 |xxxxxxxxxxxxx |xxxxxxxxxxxxx |xxxxxxxxxxxxx |xxxxxxxxxxxxx |      8695083 |      8695086 |      8695091 |xxxxxxxxxxxxx |xxxxxxxxxxxxx |xxxxxxxxxxxxx |xxxxxxxxxxxxx |     18375717 |     18375719 |     18375724 |xxxxxxxxxxxxx |xxxxxxxxxxxxx |xxxxxxxxxxxxx |xxxxxxxxxxxxx |     38982133 |     38982136 |     38982140 |xxxxxxxxxxxxx |xxxxxxxxxxxxx |xxxxxxxxxxxxx |xxxxxxxxxxxxx |     81890617 |     81890620 |     81890624 |xxxxxxxxxxxxx |xxxxxxxxxxxxx |xxxxxxxxxxxxx |xxxxxxxxxxxxx |    172692668 |    172692671 |    172692675 |
bpred_bimod.dir_hits                         87572 |        87575 |        87579 |xxxxxxxxxxxxx |xxxxxxxxxxxxx |xxxxxxxxxxxxx |xxxxxxxxxxxxx |       189778 |       189779 |       189785 |xxxxxxxxxxxxx |xxxxxxxxxxxxx |xxxxxxxxxxxxx |xxxxxxxxxxxxx |       412860 |       412862 |       412868 |xxxxxxxxxxxxx |xxxxxxxxxxxxx |xxxxxxxxxxxxx |xxxxxxxxxxxxx |       887266 |       887267 |       887272 |xxxxxxxxxxxxx |xxxxxxxxxxxxx |xxxxxxxxxxxxx |xxxxxxxxxxxxx |      1913404 |      1913406 |      1913411 |xxxxxxxxxxxxx |xxxxxxxxxxxxx |xxxxxxxxxxxxx |xxxxxxxxxxxxx |      4070419 |      4070420 |      4070425 |xxxxxxxxxxxxx |xxxxxxxxxxxxx |xxxxxxxxxxxxx |xxxxxxxxxxxxx |      8695194 |      8695196 |      8695201 |xxxxxxxxxxxxx |xxxxxxxxxxxxx |xxxxxxxxxxxxx |xxxxxxxxxxxxx |     18375823 |     18375824 |     18375829 |xxxxxxxxxxxxx |xxxxxxxxxxxxx |xxxxxxxxxxxxx |xxxxxxxxxxxxx |     38982250 |     38982252 |     38982256 |xxxxxxxxxxxxx |xxxxxxxxxxxxx |xxxxxxxxxxxxx |xxxxxxxxxxxxx |     81890734 |     81890736 |     81890740 |xxxxxxxxxxxxx |xxxxxxxxxxxxx |xxxxxxxxxxxxx |xxxxxxxxxxxxx |    172692785 |    172692787 |    172692791 |
bpred_bimod.misses                           25049 |        25046 |        25042 |xxxxxxxxxxxxx |xxxxxxxxxxxxx |xxxxxxxxxxxxx |xxxxxxxxxxxxx |        53987 |        53986 |        53980 |xxxxxxxxxxxxx |xxxxxxxxxxxxx |xxxxxxxxxxxxx |xxxxxxxxxxxxx |       116710 |       116708 |       116702 |xxxxxxxxxxxxx |xxxxxxxxxxxxx |xxxxxxxxxxxxx |xxxxxxxxxxxxx |       249622 |       249621 |       249616 |xxxxxxxxxxxxx |xxxxxxxxxxxxx |xxxxxxxxxxxxx |xxxxxxxxxxxxx |       531023 |       531021 |       531016 |xxxxxxxxxxxxx |xxxxxxxxxxxxx |xxxxxxxxxxxxx |xxxxxxxxxxxxx |      1127582 |      1127581 |      1127576 |xxxxxxxxxxxxx |xxxxxxxxxxxxx |xxxxxxxxxxxxx |xxxxxxxxxxxxx |      2389011 |      2389009 |      2389004 |xxxxxxxxxxxxx |xxxxxxxxxxxxx |xxxxxxxxxxxxx |xxxxxxxxxxxxx |      5036305 |      5036304 |      5036299 |xxxxxxxxxxxxx |xxxxxxxxxxxxx |xxxxxxxxxxxxx |xxxxxxxxxxxxx |     10594266 |     10594264 |     10594260 |xxxxxxxxxxxxx |xxxxxxxxxxxxx |xxxxxxxxxxxxx |xxxxxxxxxxxxx |     22240741 |     22240739 |     22240735 |xxxxxxxxxxxxx |xxxxxxxxxxxxx |xxxxxxxxxxxxx |xxxxxxxxxxxxx |     46586543 |     46586541 |     46586537 |
bpred_bimod.jr_hits                             63 |           63 |           63 |xxxxxxxxxxxxx |xxxxxxxxxxxxx |xxxxxxxxxxxxx |xxxxxxxxxxxxx |           69 |           69 |           69 |xxxxxxxxxxxxx |xxxxxxxxxxxxx |xxxxxxxxxxxxx |xxxxxxxxxxxxx |           71 |           71 |           71 |xxxxxxxxxxxxx |xxxxxxxxxxxxx |xxxxxxxxxxxxx |xxxxxxxxxxxxx |           69 |           69 |           69 |xxxxxxxxxxxxx |xxxxxxxxxxxxx |xxxxxxxxxxxxx |xxxxxxxxxxxxx |           71 |           71 |           71 |xxxxxxxxxxxxx |xxxxxxxxxxxxx |xxxxxxxxxxxxx |xxxxxxxxxxxxx |           69 |           69 |           69 |xxxxxxxxxxxxx |xxxxxxxxxxxxx |xxxxxxxxxxxxx |xxxxxxxxxxxxx |           71 |           71 |           71 |xxxxxxxxxxxxx |xxxxxxxxxxxxx |xxxxxxxxxxxxx |xxxxxxxxxxxxx |           69 |           69 |           69 |xxxxxxxxxxxxx |xxxxxxxxxxxxx |xxxxxxxxxxxxx |xxxxxxxxxxxxx |           75 |           75 |           75 |xxxxxxxxxxxxx |xxxxxxxxxxxxx |xxxxxxxxxxxxx |xxxxxxxxxxxxx |           72 |           72 |           72 |xxxxxxxxxxxxx |xxxxxxxxxxxxx |xxxxxxxxxxxxx |xxxxxxxxxxxxx |           75 |           75 |           75 |
bpred_bimod.jr_seen                             64 |           64 |           64 |xxxxxxxxxxxxx |xxxxxxxxxxxxx |xxxxxxxxxxxxx |xxxxxxxxxxxxx |           70 |           70 |           70 |xxxxxxxxxxxxx |xxxxxxxxxxxxx |xxxxxxxxxxxxx |xxxxxxxxxxxxx |           73 |           73 |           73 |xxxxxxxxxxxxx |xxxxxxxxxxxxx |xxxxxxxxxxxxx |xxxxxxxxxxxxx |           70 |           70 |           70 |xxxxxxxxxxxxx |xxxxxxxxxxxxx |xxxxxxxxxxxxx |xxxxxxxxxxxxx |           73 |           73 |           73 |xxxxxxxxxxxxx |xxxxxxxxxxxxx |xxxxxxxxxxxxx |xxxxxxxxxxxxx |           70 |           70 |           70 |xxxxxxxxxxxxx |xxxxxxxxxxxxx |xxxxxxxxxxxxx |xxxxxxxxxxxxx |           73 |           73 |           73 |xxxxxxxxxxxxx |xxxxxxxxxxxxx |xxxxxxxxxxxxx |xxxxxxxxxxxxx |           70 |           70 |           70 |xxxxxxxxxxxxx |xxxxxxxxxxxxx |xxxxxxxxxxxxx |xxxxxxxxxxxxx |           76 |           76 |           76 |xxxxxxxxxxxxx |xxxxxxxxxxxxx |xxxxxxxxxxxxx |xxxxxxxxxxxxx |           73 |           73 |           73 |xxxxxxxxxxxxx |xxxxxxxxxxxxx |xxxxxxxxxxxxx |xxxxxxxxxxxxx |           76 |           76 |           76 |
bpred_bimod.jr_non_ras_hits.PP                   0 |            0 |            0 |xxxxxxxxxxxxx |xxxxxxxxxxxxx |xxxxxxxxxxxxx |xxxxxxxxxxxxx |            0 |            0 |            0 |xxxxxxxxxxxxx |xxxxxxxxxxxxx |xxxxxxxxxxxxx |xxxxxxxxxxxxx |            0 |            0 |            0 |xxxxxxxxxxxxx |xxxxxxxxxxxxx |xxxxxxxxxxxxx |xxxxxxxxxxxxx |            0 |            0 |            0 |xxxxxxxxxxxxx |xxxxxxxxxxxxx |xxxxxxxxxxxxx |xxxxxxxxxxxxx |            0 |            0 |            0 |xxxxxxxxxxxxx |xxxxxxxxxxxxx |xxxxxxxxxxxxx |xxxxxxxxxxxxx |            0 |            0 |            0 |xxxxxxxxxxxxx |xxxxxxxxxxxxx |xxxxxxxxxxxxx |xxxxxxxxxxxxx |            0 |            0 |            0 |xxxxxxxxxxxxx |xxxxxxxxxxxxx |xxxxxxxxxxxxx |xxxxxxxxxxxxx |            0 |            0 |            0 |xxxxxxxxxxxxx |xxxxxxxxxxxxx |xxxxxxxxxxxxx |xxxxxxxxxxxxx |            1 |            1 |            1 |xxxxxxxxxxxxx |xxxxxxxxxxxxx |xxxxxxxxxxxxx |xxxxxxxxxxxxx |            0 |            0 |            0 |xxxxxxxxxxxxx |xxxxxxxxxxxxx |xxxxxxxxxxxxx |xxxxxxxxxxxxx |            1 |            1 |            1 |
bpred_bimod.jr_non_ras_seen.PP                   1 |            1 |            1 |xxxxxxxxxxxxx |xxxxxxxxxxxxx |xxxxxxxxxxxxx |xxxxxxxxxxxxx |            0 |            0 |            0 |xxxxxxxxxxxxx |xxxxxxxxxxxxx |xxxxxxxxxxxxx |xxxxxxxxxxxxx |            1 |            1 |            1 |xxxxxxxxxxxxx |xxxxxxxxxxxxx |xxxxxxxxxxxxx |xxxxxxxxxxxxx |            0 |            0 |            0 |xxxxxxxxxxxxx |xxxxxxxxxxxxx |xxxxxxxxxxxxx |xxxxxxxxxxxxx |            1 |            1 |            1 |xxxxxxxxxxxxx |xxxxxxxxxxxxx |xxxxxxxxxxxxx |xxxxxxxxxxxxx |            0 |            0 |            0 |xxxxxxxxxxxxx |xxxxxxxxxxxxx |xxxxxxxxxxxxx |xxxxxxxxxxxxx |            1 |            1 |            1 |xxxxxxxxxxxxx |xxxxxxxxxxxxx |xxxxxxxxxxxxx |xxxxxxxxxxxxx |            0 |            0 |            0 |xxxxxxxxxxxxx |xxxxxxxxxxxxx |xxxxxxxxxxxxx |xxxxxxxxxxxxx |            2 |            2 |            2 |xxxxxxxxxxxxx |xxxxxxxxxxxxx |xxxxxxxxxxxxx |xxxxxxxxxxxxx |            1 |            1 |            1 |xxxxxxxxxxxxx |xxxxxxxxxxxxx |xxxxxxxxxxxxx |xxxxxxxxxxxxx |            2 |            2 |            2 |
bpred_bimod.bpred_addr_rate                 0.7766 |       0.7767 |       0.7767 |xxxxxxxxxxxxx |xxxxxxxxxxxxx |xxxxxxxxxxxxx |xxxxxxxxxxxxx |       0.7781 |       0.7781 |       0.7781 |xxxxxxxxxxxxx |xxxxxxxxxxxxx |xxxxxxxxxxxxx |xxxxxxxxxxxxx |       0.7794 |       0.7794 |       0.7794 |xxxxxxxxxxxxx |xxxxxxxxxxxxx |xxxxxxxxxxxxx |xxxxxxxxxxxxx |       0.7803 |       0.7803 |       0.7803 |xxxxxxxxxxxxx |xxxxxxxxxxxxx |xxxxxxxxxxxxx |xxxxxxxxxxxxx |       0.7827 |       0.7827 |       0.7827 |xxxxxxxxxxxxx |xxxxxxxxxxxxx |xxxxxxxxxxxxx |xxxxxxxxxxxxx |       0.7831 |       0.7831 |       0.7831 |xxxxxxxxxxxxx |xxxxxxxxxxxxx |xxxxxxxxxxxxx |xxxxxxxxxxxxx |       0.7845 |       0.7845 |       0.7845 |xxxxxxxxxxxxx |xxxxxxxxxxxxx |xxxxxxxxxxxxx |xxxxxxxxxxxxx |       0.7849 |       0.7849 |       0.7849 |xxxxxxxxxxxxx |xxxxxxxxxxxxx |xxxxxxxxxxxxx |xxxxxxxxxxxxx |       0.7863 |       0.7863 |       0.7863 |xxxxxxxxxxxxx |xxxxxxxxxxxxx |xxxxxxxxxxxxx |xxxxxxxxxxxxx |       0.7864 |       0.7864 |       0.7864 |xxxxxxxxxxxxx |xxxxxxxxxxxxx |xxxxxxxxxxxxx |xxxxxxxxxxxxx |       0.7875 |       0.7875 |       0.7875 |
bpred_bimod.bpred_dir_rate                  0.7776 |       0.7776 |       0.7776 |xxxxxxxxxxxxx |xxxxxxxxxxxxx |xxxxxxxxxxxxx |xxxxxxxxxxxxx |       0.7785 |       0.7785 |       0.7786 |xxxxxxxxxxxxx |xxxxxxxxxxxxx |xxxxxxxxxxxxx |xxxxxxxxxxxxx |       0.7796 |       0.7796 |       0.7796 |xxxxxxxxxxxxx |xxxxxxxxxxxxx |xxxxxxxxxxxxx |xxxxxxxxxxxxx |       0.7804 |       0.7804 |       0.7804 |xxxxxxxxxxxxx |xxxxxxxxxxxxx |xxxxxxxxxxxxx |xxxxxxxxxxxxx |       0.7828 |       0.7828 |       0.7828 |xxxxxxxxxxxxx |xxxxxxxxxxxxx |xxxxxxxxxxxxx |xxxxxxxxxxxxx |       0.7831 |       0.7831 |       0.7831 |xxxxxxxxxxxxx |xxxxxxxxxxxxx |xxxxxxxxxxxxx |xxxxxxxxxxxxx |       0.7845 |       0.7845 |       0.7845 |xxxxxxxxxxxxx |xxxxxxxxxxxxx |xxxxxxxxxxxxx |xxxxxxxxxxxxx |       0.7849 |       0.7849 |       0.7849 |xxxxxxxxxxxxx |xxxxxxxxxxxxx |xxxxxxxxxxxxx |xxxxxxxxxxxxx |       0.7863 |       0.7863 |       0.7863 |xxxxxxxxxxxxx |xxxxxxxxxxxxx |xxxxxxxxxxxxx |xxxxxxxxxxxxx |       0.7864 |       0.7864 |       0.7864 |xxxxxxxxxxxxx |xxxxxxxxxxxxx |xxxxxxxxxxxxx |xxxxxxxxxxxxx |       0.7875 |       0.7875 |       0.7875 |
bpred_bimod.bpred_jr_rate                   0.9844 |       0.9844 |       0.9844 |xxxxxxxxxxxxx |xxxxxxxxxxxxx |xxxxxxxxxxxxx |xxxxxxxxxxxxx |       0.9857 |       0.9857 |       0.9857 |xxxxxxxxxxxxx |xxxxxxxxxxxxx |xxxxxxxxxxxxx |xxxxxxxxxxxxx |       0.9726 |       0.9726 |       0.9726 |xxxxxxxxxxxxx |xxxxxxxxxxxxx |xxxxxxxxxxxxx |xxxxxxxxxxxxx |       0.9857 |       0.9857 |       0.9857 |xxxxxxxxxxxxx |xxxxxxxxxxxxx |xxxxxxxxxxxxx |xxxxxxxxxxxxx |       0.9726 |       0.9726 |       0.9726 |xxxxxxxxxxxxx |xxxxxxxxxxxxx |xxxxxxxxxxxxx |xxxxxxxxxxxxx |       0.9857 |       0.9857 |       0.9857 |xxxxxxxxxxxxx |xxxxxxxxxxxxx |xxxxxxxxxxxxx |xxxxxxxxxxxxx |       0.9726 |       0.9726 |       0.9726 |xxxxxxxxxxxxx |xxxxxxxxxxxxx |xxxxxxxxxxxxx |xxxxxxxxxxxxx |       0.9857 |       0.9857 |       0.9857 |xxxxxxxxxxxxx |xxxxxxxxxxxxx |xxxxxxxxxxxxx |xxxxxxxxxxxxx |       0.9868 |       0.9868 |       0.9868 |xxxxxxxxxxxxx |xxxxxxxxxxxxx |xxxxxxxxxxxxx |xxxxxxxxxxxxx |       0.9863 |       0.9863 |       0.9863 |xxxxxxxxxxxxx |xxxxxxxxxxxxx |xxxxxxxxxxxxx |xxxxxxxxxxxxx |       0.9868 |       0.9868 |       0.9868 |
bpred_bimod.bpred_jr_non_ras_rate.PP        0.0000 |       0.0000 |       0.0000 |xxxxxxxxxxxxx |xxxxxxxxxxxxx |xxxxxxxxxxxxx |xxxxxxxxxxxxx |      <error: |      <error: |      <error: |xxxxxxxxxxxxx |xxxxxxxxxxxxx |xxxxxxxxxxxxx |xxxxxxxxxxxxx |       0.0000 |       0.0000 |       0.0000 |xxxxxxxxxxxxx |xxxxxxxxxxxxx |xxxxxxxxxxxxx |xxxxxxxxxxxxx |      <error: |      <error: |      <error: |xxxxxxxxxxxxx |xxxxxxxxxxxxx |xxxxxxxxxxxxx |xxxxxxxxxxxxx |       0.0000 |       0.0000 |       0.0000 |xxxxxxxxxxxxx |xxxxxxxxxxxxx |xxxxxxxxxxxxx |xxxxxxxxxxxxx |      <error: |      <error: |      <error: |xxxxxxxxxxxxx |xxxxxxxxxxxxx |xxxxxxxxxxxxx |xxxxxxxxxxxxx |       0.0000 |       0.0000 |       0.0000 |xxxxxxxxxxxxx |xxxxxxxxxxxxx |xxxxxxxxxxxxx |xxxxxxxxxxxxx |      <error: |      <error: |      <error: |xxxxxxxxxxxxx |xxxxxxxxxxxxx |xxxxxxxxxxxxx |xxxxxxxxxxxxx |       0.5000 |       0.5000 |       0.5000 |xxxxxxxxxxxxx |xxxxxxxxxxxxx |xxxxxxxxxxxxx |xxxxxxxxxxxxx |       0.0000 |       0.0000 |       0.0000 |xxxxxxxxxxxxx |xxxxxxxxxxxxx |xxxxxxxxxxxxx |xxxxxxxxxxxxx |       0.5000 |       0.5000 |       0.5000 |
bpred_bimod.retstack_pushes                     65 |           65 |           65 |xxxxxxxxxxxxx |xxxxxxxxxxxxx |xxxxxxxxxxxxx |xxxxxxxxxxxxx |           72 |           72 |           72 |xxxxxxxxxxxxx |xxxxxxxxxxxxx |xxxxxxxxxxxxx |xxxxxxxxxxxxx |           74 |           74 |           74 |xxxxxxxxxxxxx |xxxxxxxxxxxxx |xxxxxxxxxxxxx |xxxxxxxxxxxxx |           72 |           72 |           72 |xxxxxxxxxxxxx |xxxxxxxxxxxxx |xxxxxxxxxxxxx |xxxxxxxxxxxxx |           74 |           74 |           74 |xxxxxxxxxxxxx |xxxxxxxxxxxxx |xxxxxxxxxxxxx |xxxxxxxxxxxxx |           72 |           72 |           72 |xxxxxxxxxxxxx |xxxxxxxxxxxxx |xxxxxxxxxxxxx |xxxxxxxxxxxxx |           74 |           74 |           74 |xxxxxxxxxxxxx |xxxxxxxxxxxxx |xxxxxxxxxxxxx |xxxxxxxxxxxxx |           72 |           72 |           72 |xxxxxxxxxxxxx |xxxxxxxxxxxxx |xxxxxxxxxxxxx |xxxxxxxxxxxxx |           76 |           76 |           76 |xxxxxxxxxxxxx |xxxxxxxxxxxxx |xxxxxxxxxxxxx |xxxxxxxxxxxxx |           74 |           74 |           74 |xxxxxxxxxxxxx |xxxxxxxxxxxxx |xxxxxxxxxxxxx |xxxxxxxxxxxxx |           76 |           76 |           76 |
bpred_bimod.retstack_pops                       63 |           63 |           63 |xxxxxxxxxxxxx |xxxxxxxxxxxxx |xxxxxxxxxxxxx |xxxxxxxxxxxxx |           70 |           70 |           70 |xxxxxxxxxxxxx |xxxxxxxxxxxxx |xxxxxxxxxxxxx |xxxxxxxxxxxxx |           72 |           72 |           72 |xxxxxxxxxxxxx |xxxxxxxxxxxxx |xxxxxxxxxxxxx |xxxxxxxxxxxxx |           70 |           70 |           70 |xxxxxxxxxxxxx |xxxxxxxxxxxxx |xxxxxxxxxxxxx |xxxxxxxxxxxxx |           72 |           72 |           72 |xxxxxxxxxxxxx |xxxxxxxxxxxxx |xxxxxxxxxxxxx |xxxxxxxxxxxxx |           70 |           70 |           70 |xxxxxxxxxxxxx |xxxxxxxxxxxxx |xxxxxxxxxxxxx |xxxxxxxxxxxxx |           72 |           72 |           72 |xxxxxxxxxxxxx |xxxxxxxxxxxxx |xxxxxxxxxxxxx |xxxxxxxxxxxxx |           70 |           70 |           70 |xxxxxxxxxxxxx |xxxxxxxxxxxxx |xxxxxxxxxxxxx |xxxxxxxxxxxxx |           74 |           74 |           74 |xxxxxxxxxxxxx |xxxxxxxxxxxxx |xxxxxxxxxxxxx |xxxxxxxxxxxxx |           72 |           72 |           72 |xxxxxxxxxxxxx |xxxxxxxxxxxxx |xxxxxxxxxxxxx |xxxxxxxxxxxxx |           74 |           74 |           74 |
bpred_bimod.used_ras.PP                         63 |           63 |           63 |xxxxxxxxxxxxx |xxxxxxxxxxxxx |xxxxxxxxxxxxx |xxxxxxxxxxxxx |           70 |           70 |           70 |xxxxxxxxxxxxx |xxxxxxxxxxxxx |xxxxxxxxxxxxx |xxxxxxxxxxxxx |           72 |           72 |           72 |xxxxxxxxxxxxx |xxxxxxxxxxxxx |xxxxxxxxxxxxx |xxxxxxxxxxxxx |           70 |           70 |           70 |xxxxxxxxxxxxx |xxxxxxxxxxxxx |xxxxxxxxxxxxx |xxxxxxxxxxxxx |           72 |           72 |           72 |xxxxxxxxxxxxx |xxxxxxxxxxxxx |xxxxxxxxxxxxx |xxxxxxxxxxxxx |           70 |           70 |           70 |xxxxxxxxxxxxx |xxxxxxxxxxxxx |xxxxxxxxxxxxx |xxxxxxxxxxxxx |           72 |           72 |           72 |xxxxxxxxxxxxx |xxxxxxxxxxxxx |xxxxxxxxxxxxx |xxxxxxxxxxxxx |           70 |           70 |           70 |xxxxxxxxxxxxx |xxxxxxxxxxxxx |xxxxxxxxxxxxx |xxxxxxxxxxxxx |           74 |           74 |           74 |xxxxxxxxxxxxx |xxxxxxxxxxxxx |xxxxxxxxxxxxx |xxxxxxxxxxxxx |           72 |           72 |           72 |xxxxxxxxxxxxx |xxxxxxxxxxxxx |xxxxxxxxxxxxx |xxxxxxxxxxxxx |           74 |           74 |           74 |
bpred_bimod.ras_hits.PP                         63 |           63 |           63 |xxxxxxxxxxxxx |xxxxxxxxxxxxx |xxxxxxxxxxxxx |xxxxxxxxxxxxx |           69 |           69 |           69 |xxxxxxxxxxxxx |xxxxxxxxxxxxx |xxxxxxxxxxxxx |xxxxxxxxxxxxx |           71 |           71 |           71 |xxxxxxxxxxxxx |xxxxxxxxxxxxx |xxxxxxxxxxxxx |xxxxxxxxxxxxx |           69 |           69 |           69 |xxxxxxxxxxxxx |xxxxxxxxxxxxx |xxxxxxxxxxxxx |xxxxxxxxxxxxx |           71 |           71 |           71 |xxxxxxxxxxxxx |xxxxxxxxxxxxx |xxxxxxxxxxxxx |xxxxxxxxxxxxx |           69 |           69 |           69 |xxxxxxxxxxxxx |xxxxxxxxxxxxx |xxxxxxxxxxxxx |xxxxxxxxxxxxx |           71 |           71 |           71 |xxxxxxxxxxxxx |xxxxxxxxxxxxx |xxxxxxxxxxxxx |xxxxxxxxxxxxx |           69 |           69 |           69 |xxxxxxxxxxxxx |xxxxxxxxxxxxx |xxxxxxxxxxxxx |xxxxxxxxxxxxx |           74 |           74 |           74 |xxxxxxxxxxxxx |xxxxxxxxxxxxx |xxxxxxxxxxxxx |xxxxxxxxxxxxx |           72 |           72 |           72 |xxxxxxxxxxxxx |xxxxxxxxxxxxx |xxxxxxxxxxxxx |xxxxxxxxxxxxx |           74 |           74 |           74 |
bpred_bimod.ras_rate.PP                     1.0000 |       1.0000 |       1.0000 |xxxxxxxxxxxxx |xxxxxxxxxxxxx |xxxxxxxxxxxxx |xxxxxxxxxxxxx |       0.9857 |       0.9857 |       0.9857 |xxxxxxxxxxxxx |xxxxxxxxxxxxx |xxxxxxxxxxxxx |xxxxxxxxxxxxx |       0.9861 |       0.9861 |       0.9861 |xxxxxxxxxxxxx |xxxxxxxxxxxxx |xxxxxxxxxxxxx |xxxxxxxxxxxxx |       0.9857 |       0.9857 |       0.9857 |xxxxxxxxxxxxx |xxxxxxxxxxxxx |xxxxxxxxxxxxx |xxxxxxxxxxxxx |       0.9861 |       0.9861 |       0.9861 |xxxxxxxxxxxxx |xxxxxxxxxxxxx |xxxxxxxxxxxxx |xxxxxxxxxxxxx |       0.9857 |       0.9857 |       0.9857 |xxxxxxxxxxxxx |xxxxxxxxxxxxx |xxxxxxxxxxxxx |xxxxxxxxxxxxx |       0.9861 |       0.9861 |       0.9861 |xxxxxxxxxxxxx |xxxxxxxxxxxxx |xxxxxxxxxxxxx |xxxxxxxxxxxxx |       0.9857 |       0.9857 |       0.9857 |xxxxxxxxxxxxx |xxxxxxxxxxxxx |xxxxxxxxxxxxx |xxxxxxxxxxxxx |       1.0000 |       1.0000 |       1.0000 |xxxxxxxxxxxxx |xxxxxxxxxxxxx |xxxxxxxxxxxxx |xxxxxxxxxxxxx |       1.0000 |       1.0000 |       1.0000 |xxxxxxxxxxxxx |xxxxxxxxxxxxx |xxxxxxxxxxxxx |xxxxxxxxxxxxx |       1.0000 |       1.0000 |       1.0000 |
bpred_2lev.lookups                   xxxxxxxxxxxxx |xxxxxxxxxxxxx |xxxxxxxxxxxxx |       112621 |       112621 |       112621 |       112621 |xxxxxxxxxxxxx |xxxxxxxxxxxxx |xxxxxxxxxxxxx |       243765 |       243765 |       243765 |       243765 |xxxxxxxxxxxxx |xxxxxxxxxxxxx |xxxxxxxxxxxxx |       529570 |       529570 |       529570 |       529570 |xxxxxxxxxxxxx |xxxxxxxxxxxxx |xxxxxxxxxxxxx |      1136888 |      1136888 |      1136888 |      1136888 |xxxxxxxxxxxxx |xxxxxxxxxxxxx |xxxxxxxxxxxxx |      2444427 |      2444427 |      2444427 |      2444427 |xxxxxxxxxxxxx |xxxxxxxxxxxxx |xxxxxxxxxxxxx |      5198001 |      5198001 |      5198001 |      5198001 |xxxxxxxxxxxxx |xxxxxxxxxxxxx |xxxxxxxxxxxxx |     11084205 |     11084205 |     11084205 |     11084205 |xxxxxxxxxxxxx |xxxxxxxxxxxxx |xxxxxxxxxxxxx |     23412128 |     23412128 |     23412128 |     23412128 |xxxxxxxxxxxxx |xxxxxxxxxxxxx |xxxxxxxxxxxxx |     49576516 |     49576516 |     49576516 |     49576516 |xxxxxxxxxxxxx |xxxxxxxxxxxxx |xxxxxxxxxxxxx |    104131475 |    104131475 |    104131475 |    104131475 |xxxxxxxxxxxxx |xxxxxxxxxxxxx |xxxxxxxxxxxxx |    219279328 |    219279328 |    219279328 |    219279328 |
[...]
bpred_2lev.retstack_pushes           xxxxxxxxxxxxx |xxxxxxxxxxxxx |xxxxxxxxxxxxx |           65 |           65 |           65 |           65 |xxxxxxxxxxxxx |xxxxxxxxxxxxx |xxxxxxxxxxxxx |           72 |           72 |           72 |           72 |xxxxxxxxxxxxx |xxxxxxxxxxxxx |xxxxxxxxxxxxx |           74 |           74 |           74 |           74 |xxxxxxxxxxxxx |xxxxxxxxxxxxx |xxxxxxxxxxxxx |           72 |           72 |           72 |           72 |xxxxxxxxxxxxx |xxxxxxxxxxxxx |xxxxxxxxxxxxx |           74 |           74 |           74 |           74 |xxxxxxxxxxxxx |xxxxxxxxxxxxx |xxxxxxxxxxxxx |           72 |           72 |           72 |           72 |xxxxxxxxxxxxx |xxxxxxxxxxxxx |xxxxxxxxxxxxx |           74 |           74 |           74 |           74 |xxxxxxxxxxxxx |xxxxxxxxxxxxx |xxxxxxxxxxxxx |           72 |           72 |           72 |           72 |xxxxxxxxxxxxx |xxxxxxxxxxxxx |xxxxxxxxxxxxx |           76 |           76 |           76 |           76 |xxxxxxxxxxxxx |xxxxxxxxxxxxx |xxxxxxxxxxxxx |           74 |           74 |           74 |           74 |xxxxxxxxxxxxx |xxxxxxxxxxxxx |xxxxxxxxxxxxx |           76 |           76 |           76 |           76 |
bpred_2lev.retstack_pops             xxxxxxxxxxxxx |xxxxxxxxxxxxx |xxxxxxxxxxxxx |           63 |           63 |           63 |           63 |xxxxxxxxxxxxx |xxxxxxxxxxxxx |xxxxxxxxxxxxx |           70 |           70 |           70 |           70 |xxxxxxxxxxxxx |xxxxxxxxxxxxx |xxxxxxxxxxxxx |           72 |           72 |           72 |           72 |xxxxxxxxxxxxx |xxxxxxxxxxxxx |xxxxxxxxxxxxx |           70 |           70 |           70 |           70 |xxxxxxxxxxxxx |xxxxxxxxxxxxx |xxxxxxxxxxxxx |           72 |           72 |           72 |           72 |xxxxxxxxxxxxx |xxxxxxxxxxxxx |xxxxxxxxxxxxx |           70 |           70 |           70 |           70 |xxxxxxxxxxxxx |xxxxxxxxxxxxx |xxxxxxxxxxxxx |           72 |           72 |           72 |           72 |xxxxxxxxxxxxx |xxxxxxxxxxxxx |xxxxxxxxxxxxx |           70 |           70 |           70 |           70 |xxxxxxxxxxxxx |xxxxxxxxxxxxx |xxxxxxxxxxxxx |           74 |           74 |           74 |           74 |xxxxxxxxxxxxx |xxxxxxxxxxxxx |xxxxxxxxxxxxx |           72 |           72 |           72 |           72 |xxxxxxxxxxxxx |xxxxxxxxxxxxx |xxxxxxxxxxxxx |           74 |           74 |           74 |           74 |
bpred_2lev.used_ras.PP               xxxxxxxxxxxxx |xxxxxxxxxxxxx |xxxxxxxxxxxxx |           63 |           63 |           63 |           63 |xxxxxxxxxxxxx |xxxxxxxxxxxxx |xxxxxxxxxxxxx |           70 |           70 |           70 |           70 |xxxxxxxxxxxxx |xxxxxxxxxxxxx |xxxxxxxxxxxxx |           72 |           72 |           72 |           72 |xxxxxxxxxxxxx |xxxxxxxxxxxxx |xxxxxxxxxxxxx |           70 |           70 |           70 |           70 |xxxxxxxxxxxxx |xxxxxxxxxxxxx |xxxxxxxxxxxxx |           72 |           72 |           72 |           72 |xxxxxxxxxxxxx |xxxxxxxxxxxxx |xxxxxxxxxxxxx |           70 |           70 |           70 |           70 |xxxxxxxxxxxxx |xxxxxxxxxxxxx |xxxxxxxxxxxxx |           72 |           72 |           72 |           72 |xxxxxxxxxxxxx |xxxxxxxxxxxxx |xxxxxxxxxxxxx |           70 |           70 |           70 |           70 |xxxxxxxxxxxxx |xxxxxxxxxxxxx |xxxxxxxxxxxxx |           74 |           74 |           74 |           74 |xxxxxxxxxxxxx |xxxxxxxxxxxxx |xxxxxxxxxxxxx |           72 |           72 |           72 |           72 |xxxxxxxxxxxxx |xxxxxxxxxxxxx |xxxxxxxxxxxxx |           74 |           74 |           74 |           74 |
bpred_2lev.ras_hits.PP               xxxxxxxxxxxxx |xxxxxxxxxxxxx |xxxxxxxxxxxxx |           63 |           63 |           63 |           63 |xxxxxxxxxxxxx |xxxxxxxxxxxxx |xxxxxxxxxxxxx |           69 |           69 |           69 |           69 |xxxxxxxxxxxxx |xxxxxxxxxxxxx |xxxxxxxxxxxxx |           71 |           71 |           71 |           71 |xxxxxxxxxxxxx |xxxxxxxxxxxxx |xxxxxxxxxxxxx |           69 |           69 |           69 |           69 |xxxxxxxxxxxxx |xxxxxxxxxxxxx |xxxxxxxxxxxxx |           71 |           71 |           71 |           71 |xxxxxxxxxxxxx |xxxxxxxxxxxxx |xxxxxxxxxxxxx |           69 |           69 |           69 |           69 |xxxxxxxxxxxxx |xxxxxxxxxxxxx |xxxxxxxxxxxxx |           71 |           71 |           71 |           71 |xxxxxxxxxxxxx |xxxxxxxxxxxxx |xxxxxxxxxxxxx |           69 |           69 |           69 |           69 |xxxxxxxxxxxxx |xxxxxxxxxxxxx |xxxxxxxxxxxxx |           74 |           74 |           74 |           74 |xxxxxxxxxxxxx |xxxxxxxxxxxxx |xxxxxxxxxxxxx |           72 |           72 |           72 |           72 |xxxxxxxxxxxxx |xxxxxxxxxxxxx |xxxxxxxxxxxxx |           74 |           74 |           74 |           74 |
bpred_2lev.ras_rate.PP               xxxxxxxxxxxxx |xxxxxxxxxxxxx |xxxxxxxxxxxxx |       1.0000 |       1.0000 |       1.0000 |       1.0000 |xxxxxxxxxxxxx |xxxxxxxxxxxxx |xxxxxxxxxxxxx |       0.9857 |       0.9857 |       0.9857 |       0.9857 |xxxxxxxxxxxxx |xxxxxxxxxxxxx |xxxxxxxxxxxxx |       0.9861 |       0.9861 |       0.9861 |       0.9861 |xxxxxxxxxxxxx |xxxxxxxxxxxxx |xxxxxxxxxxxxx |       0.9857 |       0.9857 |       0.9857 |       0.9857 |xxxxxxxxxxxxx |xxxxxxxxxxxxx |xxxxxxxxxxxxx |       0.9861 |       0.9861 |       0.9861 |       0.9861 |xxxxxxxxxxxxx |xxxxxxxxxxxxx |xxxxxxxxxxxxx |       0.9857 |       0.9857 |       0.9857 |       0.9857 |xxxxxxxxxxxxx |xxxxxxxxxxxxx |xxxxxxxxxxxxx |       0.9861 |       0.9861 |       0.9861 |       0.9861 |xxxxxxxxxxxxx |xxxxxxxxxxxxx |xxxxxxxxxxxxx |       0.9857 |       0.9857 |       0.9857 |       0.9857 |xxxxxxxxxxxxx |xxxxxxxxxxxxx |xxxxxxxxxxxxx |       1.0000 |       1.0000 |       1.0000 |       1.0000 |xxxxxxxxxxxxx |xxxxxxxxxxxxx |xxxxxxxxxxxxx |       1.0000 |       1.0000 |       1.0000 |       1.0000 |xxxxxxxxxxxxx |xxxxxxxxxxxxx |xxxxxxxxxxxxx |       1.0000 |       1.0000 |       1.0000 |       1.0000 |

Command list: 
	sslittle-na-sstrix-gcc -Wall -O3 -funroll-loops -finline-functions  -DRANDOM_SIZE=4096 -DOFFSET=5 -DSORT=algorithm_n sorts/algorithm_n1093289254.c simpleMain.c -o algorithm_n1231385167
	sim-cache -cache:dl1 dl1:256:32:1:l -cache:dl2 dl2:131072:32:1:l -cache:il1 il1:256:32:1:l -cache:il2 dl2 algorithm_n1231385167
	sim-cache -cache:dl1 dl1:256:32:1:l -cache:dl2 dl2:65536:32:1:l -cache:il1 il1:256:32:1:l -cache:il2 dl2 algorithm_n1231385167
	sim-cache -cache:dl1 dl1:1:32:256:l -cache:dl2 dl2:1:32:131072:l -cache:il1 il1:1:32:256:l -cache:il2 dl2 algorithm_n1231385167
	sim-cache -cache:dl1 dl1:1:32:256:l -cache:dl2 dl2:1:32:65536:l -cache:il1 il1:1:32:256:l -cache:il2 dl2 algorithm_n1231385167
	sim-bpred -bpred bimod -bpred:bimod 512 algorithm_n1231385167
	sim-bpred -bpred bimod -bpred:bimod 1024 algorithm_n1231385167
	sim-bpred -bpred bimod -bpred:bimod 2048 algorithm_n1231385167
	sim-bpred -bpred 2lev -bpred:2lev 1 512 10 1 algorithm_n1231385167
	sim-bpred -bpred 2lev -bpred:2lev 1 1024 10 1 algorithm_n1231385167
	sim-bpred -bpred 2lev -bpred:2lev 1 2048 10 1 algorithm_n1231385167
	sim-bpred -bpred 2lev -bpred:2lev 1 4096 10 1 algorithm_n1231385167
	sslittle-na-sstrix-gcc -Wall -O3 -funroll-loops -finline-functions  -DRANDOM_SIZE=8192 -DOFFSET=5 -DSORT=algorithm_n sorts/algorithm_n1093289254.c simpleMain.c -o algorithm_n1231385167
	sim-cache -cache:dl1 dl1:256:32:1:l -cache:dl2 dl2:131072:32:1:l -cache:il1 il1:256:32:1:l -cache:il2 dl2 algorithm_n1231385167
	sim-cache -cache:dl1 dl1:256:32:1:l -cache:dl2 dl2:65536:32:1:l -cache:il1 il1:256:32:1:l -cache:il2 dl2 algorithm_n1231385167
	sim-cache -cache:dl1 dl1:1:32:256:l -cache:dl2 dl2:1:32:131072:l -cache:il1 il1:1:32:256:l -cache:il2 dl2 algorithm_n1231385167
	sim-cache -cache:dl1 dl1:1:32:256:l -cache:dl2 dl2:1:32:65536:l -cache:il1 il1:1:32:256:l -cache:il2 dl2 algorithm_n1231385167
	sim-bpred -bpred bimod -bpred:bimod 512 algorithm_n1231385167
	sim-bpred -bpred bimod -bpred:bimod 1024 algorithm_n1231385167
	sim-bpred -bpred bimod -bpred:bimod 2048 algorithm_n1231385167
	sim-bpred -bpred 2lev -bpred:2lev 1 512 10 1 algorithm_n1231385167
	sim-bpred -bpred 2lev -bpred:2lev 1 1024 10 1 algorithm_n1231385167
	sim-bpred -bpred 2lev -bpred:2lev 1 2048 10 1 algorithm_n1231385167
	sim-bpred -bpred 2lev -bpred:2lev 1 4096 10 1 algorithm_n1231385167
	sslittle-na-sstrix-gcc -Wall -O3 -funroll-loops -finline-functions  -DRANDOM_SIZE=16384 -DOFFSET=5 -DSORT=algorithm_n sorts/algorithm_n1093289254.c simpleMain.c -o algorithm_n1231385167
	sim-cache -cache:dl1 dl1:256:32:1:l -cache:dl2 dl2:131072:32:1:l -cache:il1 il1:256:32:1:l -cache:il2 dl2 algorithm_n1231385167
	sim-cache -cache:dl1 dl1:256:32:1:l -cache:dl2 dl2:65536:32:1:l -cache:il1 il1:256:32:1:l -cache:il2 dl2 algorithm_n1231385167
	sim-cache -cache:dl1 dl1:1:32:256:l -cache:dl2 dl2:1:32:131072:l -cache:il1 il1:1:32:256:l -cache:il2 dl2 algorithm_n1231385167
	sim-cache -cache:dl1 dl1:1:32:256:l -cache:dl2 dl2:1:32:65536:l -cache:il1 il1:1:32:256:l -cache:il2 dl2 algorithm_n1231385167
	sim-bpred -bpred bimod -bpred:bimod 512 algorithm_n1231385167
	sim-bpred -bpred bimod -bpred:bimod 1024 algorithm_n1231385167
	sim-bpred -bpred bimod -bpred:bimod 2048 algorithm_n1231385167
	sim-bpred -bpred 2lev -bpred:2lev 1 512 10 1 algorithm_n1231385167
	sim-bpred -bpred 2lev -bpred:2lev 1 1024 10 1 algorithm_n1231385167
	sim-bpred -bpred 2lev -bpred:2lev 1 2048 10 1 algorithm_n1231385167
	sim-bpred -bpred 2lev -bpred:2lev 1 4096 10 1 algorithm_n1231385167
	sslittle-na-sstrix-gcc -Wall -O3 -funroll-loops -finline-functions  -DRANDOM_SIZE=32768 -DOFFSET=5 -DSORT=algorithm_n sorts/algorithm_n1093289254.c simpleMain.c -o algorithm_n1231385167
	sim-cache -cache:dl1 dl1:256:32:1:l -cache:dl2 dl2:131072:32:1:l -cache:il1 il1:256:32:1:l -cache:il2 dl2 algorithm_n1231385167
	sim-cache -cache:dl1 dl1:256:32:1:l -cache:dl2 dl2:65536:32:1:l -cache:il1 il1:256:32:1:l -cache:il2 dl2 algorithm_n1231385167
	sim-cache -cache:dl1 dl1:1:32:256:l -cache:dl2 dl2:1:32:131072:l -cache:il1 il1:1:32:256:l -cache:il2 dl2 algorithm_n1231385167
	sim-cache -cache:dl1 dl1:1:32:256:l -cache:dl2 dl2:1:32:65536:l -cache:il1 il1:1:32:256:l -cache:il2 dl2 algorithm_n1231385167
	sim-bpred -bpred bimod -bpred:bimod 512 algorithm_n1231385167
	sim-bpred -bpred bimod -bpred:bimod 1024 algorithm_n1231385167
	sim-bpred -bpred bimod -bpred:bimod 2048 algorithm_n1231385167
	sim-bpred -bpred 2lev -bpred:2lev 1 512 10 1 algorithm_n1231385167
	sim-bpred -bpred 2lev -bpred:2lev 1 1024 10 1 algorithm_n1231385167
	sim-bpred -bpred 2lev -bpred:2lev 1 2048 10 1 algorithm_n1231385167
	sim-bpred -bpred 2lev -bpred:2lev 1 4096 10 1 algorithm_n1231385167
	sslittle-na-sstrix-gcc -Wall -O3 -funroll-loops -finline-functions  -DRANDOM_SIZE=65536 -DOFFSET=5 -DSORT=algorithm_n sorts/algorithm_n1093289254.c simpleMain.c -o algorithm_n1231385167
	sim-cache -cache:dl1 dl1:256:32:1:l -cache:dl2 dl2:131072:32:1:l -cache:il1 il1:256:32:1:l -cache:il2 dl2 algorithm_n1231385167
	sim-cache -cache:dl1 dl1:256:32:1:l -cache:dl2 dl2:65536:32:1:l -cache:il1 il1:256:32:1:l -cache:il2 dl2 algorithm_n1231385167
	sim-cache -cache:dl1 dl1:1:32:256:l -cache:dl2 dl2:1:32:131072:l -cache:il1 il1:1:32:256:l -cache:il2 dl2 algorithm_n1231385167
	sim-cache -cache:dl1 dl1:1:32:256:l -cache:dl2 dl2:1:32:65536:l -cache:il1 il1:1:32:256:l -cache:il2 dl2 algorithm_n1231385167
	sim-bpred -bpred bimod -bpred:bimod 512 algorithm_n1231385167
	sim-bpred -bpred bimod -bpred:bimod 1024 algorithm_n1231385167
	sim-bpred -bpred bimod -bpred:bimod 2048 algorithm_n1231385167
	sim-bpred -bpred 2lev -bpred:2lev 1 512 10 1 algorithm_n1231385167
	sim-bpred -bpred 2lev -bpred:2lev 1 1024 10 1 algorithm_n1231385167
	sim-bpred -bpred 2lev -bpred:2lev 1 2048 10 1 algorithm_n1231385167
	sim-bpred -bpred 2lev -bpred:2lev 1 4096 10 1 algorithm_n1231385167
	sslittle-na-sstrix-gcc -Wall -O3 -funroll-loops -finline-functions  -DRANDOM_SIZE=131072 -DOFFSET=5 -DSORT=algorithm_n sorts/algorithm_n1093289254.c simpleMain.c -o algorithm_n1231385167
	sim-cache -cache:dl1 dl1:256:32:1:l -cache:dl2 dl2:131072:32:1:l -cache:il1 il1:256:32:1:l -cache:il2 dl2 algorithm_n1231385167
	sim-cache -cache:dl1 dl1:256:32:1:l -cache:dl2 dl2:65536:32:1:l -cache:il1 il1:256:32:1:l -cache:il2 dl2 algorithm_n1231385167
	sim-cache -cache:dl1 dl1:1:32:256:l -cache:dl2 dl2:1:32:131072:l -cache:il1 il1:1:32:256:l -cache:il2 dl2 algorithm_n1231385167
	sim-cache -cache:dl1 dl1:1:32:256:l -cache:dl2 dl2:1:32:65536:l -cache:il1 il1:1:32:256:l -cache:il2 dl2 algorithm_n1231385167
	sim-bpred -bpred bimod -bpred:bimod 512 algorithm_n1231385167
	sim-bpred -bpred bimod -bpred:bimod 1024 algorithm_n1231385167
	sim-bpred -bpred bimod -bpred:bimod 2048 algorithm_n1231385167
	sim-bpred -bpred 2lev -bpred:2lev 1 512 10 1 algorithm_n1231385167
	sim-bpred -bpred 2lev -bpred:2lev 1 1024 10 1 algorithm_n1231385167
	sim-bpred -bpred 2lev -bpred:2lev 1 2048 10 1 algorithm_n1231385167
	sim-bpred -bpred 2lev -bpred:2lev 1 4096 10 1 algorithm_n1231385167
	sslittle-na-sstrix-gcc -Wall -O3 -funroll-loops -finline-functions  -DRANDOM_SIZE=262144 -DOFFSET=5 -DSORT=algorithm_n sorts/algorithm_n1093289254.c simpleMain.c -o algorithm_n1231385167
	sim-cache -cache:dl1 dl1:256:32:1:l -cache:dl2 dl2:131072:32:1:l -cache:il1 il1:256:32:1:l -cache:il2 dl2 algorithm_n1231385167
	sim-cache -cache:dl1 dl1:256:32:1:l -cache:dl2 dl2:65536:32:1:l -cache:il1 il1:256:32:1:l -cache:il2 dl2 algorithm_n1231385167
	sim-cache -cache:dl1 dl1:1:32:256:l -cache:dl2 dl2:1:32:131072:l -cache:il1 il1:1:32:256:l -cache:il2 dl2 algorithm_n1231385167
	sim-cache -cache:dl1 dl1:1:32:256:l -cache:dl2 dl2:1:32:65536:l -cache:il1 il1:1:32:256:l -cache:il2 dl2 algorithm_n1231385167
	sim-bpred -bpred bimod -bpred:bimod 512 algorithm_n1231385167
	sim-bpred -bpred bimod -bpred:bimod 1024 algorithm_n1231385167
	sim-bpred -bpred bimod -bpred:bimod 2048 algorithm_n1231385167
	sim-bpred -bpred 2lev -bpred:2lev 1 512 10 1 algorithm_n1231385167
	sim-bpred -bpred 2lev -bpred:2lev 1 1024 10 1 algorithm_n1231385167
	sim-bpred -bpred 2lev -bpred:2lev 1 2048 10 1 algorithm_n1231385167
	sim-bpred -bpred 2lev -bpred:2lev 1 4096 10 1 algorithm_n1231385167
	sslittle-na-sstrix-gcc -Wall -O3 -funroll-loops -finline-functions  -DRANDOM_SIZE=524288 -DOFFSET=5 -DSORT=algorithm_n sorts/algorithm_n1093289254.c simpleMain.c -o algorithm_n1231385167
	sim-cache -cache:dl1 dl1:256:32:1:l -cache:dl2 dl2:131072:32:1:l -cache:il1 il1:256:32:1:l -cache:il2 dl2 algorithm_n1231385167
	sim-cache -cache:dl1 dl1:256:32:1:l -cache:dl2 dl2:65536:32:1:l -cache:il1 il1:256:32:1:l -cache:il2 dl2 algorithm_n1231385167
	sim-cache -cache:dl1 dl1:1:32:256:l -cache:dl2 dl2:1:32:131072:l -cache:il1 il1:1:32:256:l -cache:il2 dl2 algorithm_n1231385167
	sim-cache -cache:dl1 dl1:1:32:256:l -cache:dl2 dl2:1:32:65536:l -cache:il1 il1:1:32:256:l -cache:il2 dl2 algorithm_n1231385167
	sim-bpred -bpred bimod -bpred:bimod 512 algorithm_n1231385167
	sim-bpred -bpred bimod -bpred:bimod 1024 algorithm_n1231385167
	sim-bpred -bpred bimod -bpred:bimod 2048 algorithm_n1231385167
	sim-bpred -bpred 2lev -bpred:2lev 1 512 10 1 algorithm_n1231385167
	sim-bpred -bpred 2lev -bpred:2lev 1 1024 10 1 algorithm_n1231385167
	sim-bpred -bpred 2lev -bpred:2lev 1 2048 10 1 algorithm_n1231385167
	sim-bpred -bpred 2lev -bpred:2lev 1 4096 10 1 algorithm_n1231385167
	sslittle-na-sstrix-gcc -Wall -O3 -funroll-loops -finline-functions  -DRANDOM_SIZE=1048576 -DOFFSET=5 -DSORT=algorithm_n sorts/algorithm_n1093289254.c simpleMain.c -o algorithm_n1231385167
	sim-cache -cache:dl1 dl1:256:32:1:l -cache:dl2 dl2:131072:32:1:l -cache:il1 il1:256:32:1:l -cache:il2 dl2 algorithm_n1231385167
	sim-cache -cache:dl1 dl1:256:32:1:l -cache:dl2 dl2:65536:32:1:l -cache:il1 il1:256:32:1:l -cache:il2 dl2 algorithm_n1231385167
	sim-cache -cache:dl1 dl1:1:32:256:l -cache:dl2 dl2:1:32:131072:l -cache:il1 il1:1:32:256:l -cache:il2 dl2 algorithm_n1231385167
	sim-cache -cache:dl1 dl1:1:32:256:l -cache:dl2 dl2:1:32:65536:l -cache:il1 il1:1:32:256:l -cache:il2 dl2 algorithm_n1231385167
	sim-bpred -bpred bimod -bpred:bimod 512 algorithm_n1231385167
	sim-bpred -bpred bimod -bpred:bimod 1024 algorithm_n1231385167
	sim-bpred -bpred bimod -bpred:bimod 2048 algorithm_n1231385167
	sim-bpred -bpred 2lev -bpred:2lev 1 512 10 1 algorithm_n1231385167
	sim-bpred -bpred 2lev -bpred:2lev 1 1024 10 1 algorithm_n1231385167
	sim-bpred -bpred 2lev -bpred:2lev 1 2048 10 1 algorithm_n1231385167
	sim-bpred -bpred 2lev -bpred:2lev 1 4096 10 1 algorithm_n1231385167
	sslittle-na-sstrix-gcc -Wall -O3 -funroll-loops -finline-functions  -DRANDOM_SIZE=2097152 -DOFFSET=5 -DSORT=algorithm_n sorts/algorithm_n1093289254.c simpleMain.c -o algorithm_n1231385167
	sim-cache -cache:dl1 dl1:256:32:1:l -cache:dl2 dl2:131072:32:1:l -cache:il1 il1:256:32:1:l -cache:il2 dl2 algorithm_n1231385167
	sim-cache -cache:dl1 dl1:256:32:1:l -cache:dl2 dl2:65536:32:1:l -cache:il1 il1:256:32:1:l -cache:il2 dl2 algorithm_n1231385167
	sim-cache -cache:dl1 dl1:1:32:256:l -cache:dl2 dl2:1:32:131072:l -cache:il1 il1:1:32:256:l -cache:il2 dl2 algorithm_n1231385167
	sim-cache -cache:dl1 dl1:1:32:256:l -cache:dl2 dl2:1:32:65536:l -cache:il1 il1:1:32:256:l -cache:il2 dl2 algorithm_n1231385167
	sim-bpred -bpred bimod -bpred:bimod 512 algorithm_n1231385167
	sim-bpred -bpred bimod -bpred:bimod 1024 algorithm_n1231385167
	sim-bpred -bpred bimod -bpred:bimod 2048 algorithm_n1231385167
	sim-bpred -bpred 2lev -bpred:2lev 1 512 10 1 algorithm_n1231385167
	sim-bpred -bpred 2lev -bpred:2lev 1 1024 10 1 algorithm_n1231385167
	sim-bpred -bpred 2lev -bpred:2lev 1 2048 10 1 algorithm_n1231385167
	sim-bpred -bpred 2lev -bpred:2lev 1 4096 10 1 algorithm_n1231385167
	sslittle-na-sstrix-gcc -Wall -O3 -funroll-loops -finline-functions  -DRANDOM_SIZE=4194304 -DOFFSET=5 -DSORT=algorithm_n sorts/algorithm_n1093289254.c simpleMain.c -o algorithm_n1231385167
	sim-cache -cache:dl1 dl1:256:32:1:l -cache:dl2 dl2:131072:32:1:l -cache:il1 il1:256:32:1:l -cache:il2 dl2 algorithm_n1231385167
	sim-cache -cache:dl1 dl1:256:32:1:l -cache:dl2 dl2:65536:32:1:l -cache:il1 il1:256:32:1:l -cache:il2 dl2 algorithm_n1231385167
	sim-cache -cache:dl1 dl1:1:32:256:l -cache:dl2 dl2:1:32:131072:l -cache:il1 il1:1:32:256:l -cache:il2 dl2 algorithm_n1231385167
	sim-cache -cache:dl1 dl1:1:32:256:l -cache:dl2 dl2:1:32:65536:l -cache:il1 il1:1:32:256:l -cache:il2 dl2 algorithm_n1231385167
	sim-bpred -bpred bimod -bpred:bimod 512 algorithm_n1231385167
	sim-bpred -bpred bimod -bpred:bimod 1024 algorithm_n1231385167
	sim-bpred -bpred bimod -bpred:bimod 2048 algorithm_n1231385167
	sim-bpred -bpred 2lev -bpred:2lev 1 512 10 1 algorithm_n1231385167
	sim-bpred -bpred 2lev -bpred:2lev 1 1024 10 1 algorithm_n1231385167
	sim-bpred -bpred 2lev -bpred:2lev 1 2048 10 1 algorithm_n1231385167
	sim-bpred -bpred 2lev -bpred:2lev 1 4096 10 1 algorithm_n1231385167
