Wed Aug  3 18:37:01 2005
Run as: "./do_simple -c random.org9 -o 9 algorithm_s"
-------------------------------------------------------------------------------------------------
sim-cache                                     4096 |         4096 |         4096 |         4096 |         8192 |         8192 |         8192 |         8192 |        16384 |        16384 |        16384 |        16384 |        32768 |        32768 |        32768 |        32768 |        65536 |        65536 |        65536 |        65536 |       131072 |       131072 |       131072 |       131072 |       262144 |       262144 |       262144 |       262144 |       524288 |       524288 |       524288 |       524288 |      1048576 |      1048576 |      1048576 |      1048576 |      2097152 |      2097152 |      2097152 |      2097152 |      4194304 |      4194304 |      4194304 |      4194304 |
-cache:dl1 dl1:256:32:1:l -cache:dl2 dl2:131072:32:1:l -cache:il1 il1:256:32:1:l -cache:il2 dl2
-cache:dl1 dl1:256:32:1:l -cache:dl2 dl2:65536:32:1:l -cache:il1 il1:256:32:1:l -cache:il2 dl2
-cache:dl1 dl1:1:32:256:l -cache:dl2 dl2:1:32:131072:l -cache:il1 il1:1:32:256:l -cache:il2 dl2
-cache:dl1 dl1:1:32:256:l -cache:dl2 dl2:1:32:65536:l -cache:il1 il1:1:32:256:l -cache:il2 dl2
-------------------------------------------------------------------------------------------------
sim_num_insn                                766126 |       766126 |       766126 |       766126 |      1669662 |      1669662 |      1669662 |      1669662 |      3536882 |      3536882 |      3536882 |      3536882 |      7640556 |      7640556 |      7640556 |      7640556 |     16092216 |     16092216 |     16092216 |     16092216 |     34470762 |     34470762 |     34470762 |     34470762 |     72213432 |     72213432 |     72213432 |     72213432 |    153593164 |    153593164 |    153593164 |    153593164 |    320300121 |    320300121 |    320300121 |    320300121 |    677286615 |    677286615 |    677286615 |    677286615 |   1406991967 |   1406991967 |   1406991967 |   1406991967 |
sim_num_refs                                146002 |       146002 |       146002 |       146002 |       329404 |       329404 |       329404 |       329404 |       671236 |       671236 |       671236 |       671236 |      1502629 |      1502629 |      1502629 |      1502629 |      3066598 |      3066598 |      3066598 |      3066598 |      6784850 |      6784850 |      6784850 |      6784850 |     13828330 |     13828330 |     13828330 |     13828330 |     30273984 |     30273984 |     30273984 |     30273984 |     61601913 |     61601913 |     61601913 |     61601913 |    133682179 |    133682179 |    133682179 |    133682179 |    271551167 |    271551167 |    271551167 |    271551167 |
sim_elapsed_time                                 1 |            1 |            9 |            5 |            1 |            1 |           15 |            9 |            1 |            1 |           25 |           13 |            2 |            2 |           46 |           25 |            4 |            4 |           88 |           43 |            9 |            8 |          159 |           75 |           19 |           18 |          273 |          104 |           38 |           39 |          380 |          127 |           88 |           84 |          429 |          175 |          175 |         1275 |         3859 |         2069 |         2599 |         2599 |         5386 |         1103 |
sim_inst_rate                          766126.0000 |  766126.0000 |   85125.1111 |  153225.2000 | 1669662.0000 | 1669662.0000 |  111310.8000 |  185518.0000 | 3536882.0000 | 3536882.0000 |  141475.2800 |  272067.8462 | 3820278.0000 | 3820278.0000 |  166099.0435 |  305622.2400 | 4023054.0000 | 4023054.0000 |  182866.0909 |  374237.5814 | 3830084.6667 | 4308845.2500 |  216797.2453 |  459610.1600 | 3800706.9474 | 4011857.3333 |  264518.0659 |  694359.9231 | 4041925.3684 | 3938286.2564 |  404192.5368 | 1209394.9921 | 3639774.1023 | 3813096.6786 |  746620.3287 | 1830286.4057 | 3870209.2286 |  531205.1882 |  175508.3221 |  327349.7414 |  541358.9715 |  541358.9715 |  261231.3344 | 1275604.6845 |
il1.accesses                                766126 |       766126 |       766126 |       766126 |      1669662 |      1669662 |      1669662 |      1669662 |      3536882 |      3536882 |      3536882 |      3536882 |      7640556 |      7640556 |      7640556 |      7640556 |     16092216 |     16092216 |     16092216 |     16092216 |     34470762 |     34470762 |     34470762 |     34470762 |     72213432 |     72213432 |     72213432 |     72213432 |    153593164 |    153593164 |    153593164 |    153593164 |    320300121 |    320300121 |    320300121 |    320300121 |    677286615 |    677286615 |    677286615 |    677286615 |   1406991967 |   1406991967 |   1406991967 |   1406991967 |
il1.hits                                    765719 |       765719 |       765784 |       765784 |      1669198 |      1669198 |      1669307 |      1669307 |      3536448 |      3536448 |      3536545 |      3536545 |      7640089 |      7640089 |      7640199 |      7640199 |     16091772 |     16091772 |     16091882 |     16091882 |     34470296 |     34470296 |     34470405 |     34470405 |     72212989 |     72212989 |     72213098 |     72213098 |    153592698 |    153592698 |    153592807 |    153592807 |    320299654 |    320299654 |    320299731 |    320299731 |    677286141 |    677286141 |    677286221 |    677286221 |   1406991500 |   1406991500 |   1406991577 |   1406991577 |
il1.misses                                     407 |          407 |          342 |          342 |          464 |          464 |          355 |          355 |          434 |          434 |          337 |          337 |          467 |          467 |          357 |          357 |          444 |          444 |          334 |          334 |          466 |          466 |          357 |          357 |          443 |          443 |          334 |          334 |          466 |          466 |          357 |          357 |          467 |          467 |          390 |          390 |          474 |          474 |          394 |          394 |          467 |          467 |          390 |          390 |
il1.replacements                               221 |          221 |           86 |           86 |          263 |          263 |           99 |           99 |          249 |          249 |           81 |           81 |          266 |          266 |          101 |          101 |          262 |          262 |           78 |           78 |          265 |          265 |          101 |          101 |          261 |          261 |           78 |           78 |          265 |          265 |          101 |          101 |          249 |          249 |          134 |          134 |          256 |          256 |          138 |          138 |          249 |          249 |          134 |          134 |
il1.writebacks                                   0 |            0 |            0 |            0 |            0 |            0 |            0 |            0 |            0 |            0 |            0 |            0 |            0 |            0 |            0 |            0 |            0 |            0 |            0 |            0 |            0 |            0 |            0 |            0 |            0 |            0 |            0 |            0 |            0 |            0 |            0 |            0 |            0 |            0 |            0 |            0 |            0 |            0 |            0 |            0 |            0 |            0 |            0 |            0 |
il1.invalidations                                0 |            0 |            0 |            0 |            0 |            0 |            0 |            0 |            0 |            0 |            0 |            0 |            0 |            0 |            0 |            0 |            0 |            0 |            0 |            0 |            0 |            0 |            0 |            0 |            0 |            0 |            0 |            0 |            0 |            0 |            0 |            0 |            0 |            0 |            0 |            0 |            0 |            0 |            0 |            0 |            0 |            0 |            0 |            0 |
il1.miss_rate                               0.0005 |       0.0005 |       0.0004 |       0.0004 |       0.0003 |       0.0003 |       0.0002 |       0.0002 |       0.0001 |       0.0001 |       0.0001 |       0.0001 |       0.0001 |       0.0001 |       0.0000 |       0.0000 |       0.0000 |       0.0000 |       0.0000 |       0.0000 |       0.0000 |       0.0000 |       0.0000 |       0.0000 |       0.0000 |       0.0000 |       0.0000 |       0.0000 |       0.0000 |       0.0000 |       0.0000 |       0.0000 |       0.0000 |       0.0000 |       0.0000 |       0.0000 |       0.0000 |       0.0000 |       0.0000 |       0.0000 |       0.0000 |       0.0000 |       0.0000 |       0.0000 |
il1.repl_rate                               0.0003 |       0.0003 |       0.0001 |       0.0001 |       0.0002 |       0.0002 |       0.0001 |       0.0001 |       0.0001 |       0.0001 |       0.0000 |       0.0000 |       0.0000 |       0.0000 |       0.0000 |       0.0000 |       0.0000 |       0.0000 |       0.0000 |       0.0000 |       0.0000 |       0.0000 |       0.0000 |       0.0000 |       0.0000 |       0.0000 |       0.0000 |       0.0000 |       0.0000 |       0.0000 |       0.0000 |       0.0000 |       0.0000 |       0.0000 |       0.0000 |       0.0000 |       0.0000 |       0.0000 |       0.0000 |       0.0000 |       0.0000 |       0.0000 |       0.0000 |       0.0000 |
il1.wb_rate                                 0.0000 |       0.0000 |       0.0000 |       0.0000 |       0.0000 |       0.0000 |       0.0000 |       0.0000 |       0.0000 |       0.0000 |       0.0000 |       0.0000 |       0.0000 |       0.0000 |       0.0000 |       0.0000 |       0.0000 |       0.0000 |       0.0000 |       0.0000 |       0.0000 |       0.0000 |       0.0000 |       0.0000 |       0.0000 |       0.0000 |       0.0000 |       0.0000 |       0.0000 |       0.0000 |       0.0000 |       0.0000 |       0.0000 |       0.0000 |       0.0000 |       0.0000 |       0.0000 |       0.0000 |       0.0000 |       0.0000 |       0.0000 |       0.0000 |       0.0000 |       0.0000 |
il1.inv_rate                                0.0000 |       0.0000 |       0.0000 |       0.0000 |       0.0000 |       0.0000 |       0.0000 |       0.0000 |       0.0000 |       0.0000 |       0.0000 |       0.0000 |       0.0000 |       0.0000 |       0.0000 |       0.0000 |       0.0000 |       0.0000 |       0.0000 |       0.0000 |       0.0000 |       0.0000 |       0.0000 |       0.0000 |       0.0000 |       0.0000 |       0.0000 |       0.0000 |       0.0000 |       0.0000 |       0.0000 |       0.0000 |       0.0000 |       0.0000 |       0.0000 |       0.0000 |       0.0000 |       0.0000 |       0.0000 |       0.0000 |       0.0000 |       0.0000 |       0.0000 |       0.0000 |
dl1.accesses                                162468 |       162468 |       162468 |       162468 |       362254 |       362254 |       362254 |       362254 |       736854 |       736854 |       736854 |       736854 |      1633783 |      1633783 |      1633783 |      1633783 |      3328824 |      3328824 |      3328824 |      3328824 |      7309220 |      7309220 |      7309220 |      7309220 |     14876988 |     14876988 |     14876988 |     14876988 |     32371218 |     32371218 |     32371218 |     32371218 |     65796299 |     65796299 |     65796299 |     65796299 |    142070869 |    142070869 |    142070869 |    142070869 |    288328465 |    288328465 |    288328465 |    288328465 |
dl1.hits                                    148594 |       148594 |       149206 |       149206 |       330621 |       330621 |       332084 |       332084 |       673829 |       673829 |       676981 |       676981 |      1490932 |      1490932 |      1498108 |      1498108 |      3042034 |      3042034 |      3057942 |      3057942 |      6667956 |      6667956 |      6702376 |      6702376 |     13589158 |     13589158 |     13663769 |     13663769 |     29522238 |     29522238 |     29683093 |     29683093 |     60076826 |     60076826 |     60419360 |     60419360 |    129537786 |    129537786 |    130269264 |    130269264 |    263178301 |    263178301 |    264726117 |    264726117 |
dl1.misses                                   13874 |        13874 |        13262 |        13262 |        31633 |        31633 |        30170 |        30170 |        63025 |        63025 |        59873 |        59873 |       142851 |       142851 |       135675 |       135675 |       286790 |       286790 |       270882 |       270882 |       641264 |       641264 |       606844 |       606844 |      1287830 |      1287830 |      1213219 |      1213219 |      2848980 |      2848980 |      2688125 |      2688125 |      5719473 |      5719473 |      5376939 |      5376939 |     12533083 |     12533083 |     11801605 |     11801605 |     25150164 |     25150164 |     23602348 |     23602348 |
dl1.replacements                             13618 |        13618 |        13006 |        13006 |        31377 |        31377 |        29914 |        29914 |        62769 |        62769 |        59617 |        59617 |       142595 |       142595 |       135419 |       135419 |       286534 |       286534 |       270626 |       270626 |       641008 |       641008 |       606588 |       606588 |      1287574 |      1287574 |      1212963 |      1212963 |      2848724 |      2848724 |      2687869 |      2687869 |      5719217 |      5719217 |      5376683 |      5376683 |     12532827 |     12532827 |     11801349 |     11801349 |     25149908 |     25149908 |     23602092 |     23602092 |
dl1.writebacks                                7247 |         7247 |         6961 |         6961 |        16253 |        16253 |        15674 |        15674 |        32285 |        32285 |        31042 |        31042 |        72654 |        72654 |        69978 |        69978 |       145362 |       145362 |       139650 |       139650 |       324164 |       324164 |       311770 |       311770 |       650013 |       650013 |       623234 |       623234 |      1434136 |      1434136 |      1377242 |      1377242 |      2875481 |      2875481 |      2754951 |      2754951 |      6290244 |      6290244 |      6033886 |      6033886 |     12607189 |     12607189 |     12067462 |     12067462 |
dl1.invalidations                                0 |            0 |            0 |            0 |            0 |            0 |            0 |            0 |            0 |            0 |            0 |            0 |            0 |            0 |            0 |            0 |            0 |            0 |            0 |            0 |            0 |            0 |            0 |            0 |            0 |            0 |            0 |            0 |            0 |            0 |            0 |            0 |            0 |            0 |            0 |            0 |            0 |            0 |            0 |            0 |            0 |            0 |            0 |            0 |
dl1.miss_rate                               0.0854 |       0.0854 |       0.0816 |       0.0816 |       0.0873 |       0.0873 |       0.0833 |       0.0833 |       0.0855 |       0.0855 |       0.0813 |       0.0813 |       0.0874 |       0.0874 |       0.0830 |       0.0830 |       0.0862 |       0.0862 |       0.0814 |       0.0814 |       0.0877 |       0.0877 |       0.0830 |       0.0830 |       0.0866 |       0.0866 |       0.0816 |       0.0816 |       0.0880 |       0.0880 |       0.0830 |       0.0830 |       0.0869 |       0.0869 |       0.0817 |       0.0817 |       0.0882 |       0.0882 |       0.0831 |       0.0831 |       0.0872 |       0.0872 |       0.0819 |       0.0819 |
dl1.repl_rate                               0.0838 |       0.0838 |       0.0801 |       0.0801 |       0.0866 |       0.0866 |       0.0826 |       0.0826 |       0.0852 |       0.0852 |       0.0809 |       0.0809 |       0.0873 |       0.0873 |       0.0829 |       0.0829 |       0.0861 |       0.0861 |       0.0813 |       0.0813 |       0.0877 |       0.0877 |       0.0830 |       0.0830 |       0.0865 |       0.0865 |       0.0815 |       0.0815 |       0.0880 |       0.0880 |       0.0830 |       0.0830 |       0.0869 |       0.0869 |       0.0817 |       0.0817 |       0.0882 |       0.0882 |       0.0831 |       0.0831 |       0.0872 |       0.0872 |       0.0819 |       0.0819 |
dl1.wb_rate                                 0.0446 |       0.0446 |       0.0428 |       0.0428 |       0.0449 |       0.0449 |       0.0433 |       0.0433 |       0.0438 |       0.0438 |       0.0421 |       0.0421 |       0.0445 |       0.0445 |       0.0428 |       0.0428 |       0.0437 |       0.0437 |       0.0420 |       0.0420 |       0.0444 |       0.0444 |       0.0427 |       0.0427 |       0.0437 |       0.0437 |       0.0419 |       0.0419 |       0.0443 |       0.0443 |       0.0425 |       0.0425 |       0.0437 |       0.0437 |       0.0419 |       0.0419 |       0.0443 |       0.0443 |       0.0425 |       0.0425 |       0.0437 |       0.0437 |       0.0419 |       0.0419 |
dl1.inv_rate                                0.0000 |       0.0000 |       0.0000 |       0.0000 |       0.0000 |       0.0000 |       0.0000 |       0.0000 |       0.0000 |       0.0000 |       0.0000 |       0.0000 |       0.0000 |       0.0000 |       0.0000 |       0.0000 |       0.0000 |       0.0000 |       0.0000 |       0.0000 |       0.0000 |       0.0000 |       0.0000 |       0.0000 |       0.0000 |       0.0000 |       0.0000 |       0.0000 |       0.0000 |       0.0000 |       0.0000 |       0.0000 |       0.0000 |       0.0000 |       0.0000 |       0.0000 |       0.0000 |       0.0000 |       0.0000 |       0.0000 |       0.0000 |       0.0000 |       0.0000 |       0.0000 |
dl2.accesses                                 21528 |        21528 |        20565 |        20565 |        48350 |        48350 |        46199 |        46199 |        95744 |        95744 |        91252 |        91252 |       215972 |       215972 |       206010 |       206010 |       432596 |       432596 |       410866 |       410866 |       965894 |       965894 |       918971 |       918971 |      1938286 |      1938286 |      1836787 |      1836787 |      4283582 |      4283582 |      4065724 |      4065724 |      8595421 |      8595421 |      8132280 |      8132280 |     18823801 |     18823801 |     17835885 |     17835885 |     37757820 |     37757820 |     35670200 |     35670200 |
dl2.hits                                     19733 |        19733 |        18788 |        18788 |        45509 |        45509 |        43384 |        43384 |        90869 |        90869 |        86407 |        86407 |       206984 |       206984 |       197049 |       197049 |       415440 |       415440 |       393737 |       393737 |       932330 |       932330 |       885434 |       885434 |      1871977 |      1816944 |      1770506 |      1472282 |      4090547 |      1844546 |      3310432 |      1394266 |      3788701 |      3259063 |      2789202 |      2772764 |      7109309 |      7053782 |      6069255 |      6052871 |     14221072 |     14186091 |     12105175 |     12088791 |
dl2.misses                                    1795 |         1795 |         1777 |         1777 |         2841 |         2841 |         2815 |         2815 |         4875 |         4875 |         4845 |         4845 |         8988 |         8988 |         8961 |         8961 |        17156 |        17156 |        17129 |        17129 |        33564 |        33564 |        33537 |        33537 |        66309 |       121342 |        66281 |       364505 |       193035 |      2439036 |       755292 |      2671458 |      4806720 |      5336358 |      5343078 |      5359516 |     11714492 |     11770019 |     11766630 |     11783014 |     23536748 |     23571729 |     23565025 |     23581409 |
dl2.replacements                               183 |          183 |            0 |            0 |          211 |          211 |            0 |            0 |          230 |          230 |            0 |            0 |          233 |          233 |            0 |            0 |          224 |          224 |            0 |            0 |          233 |          233 |            0 |            0 |          225 |        56929 |            0 |       298969 |        63071 |      2373500 |       624220 |      2605922 |      4675648 |      5270822 |      5212006 |      5293980 |     11583420 |     11704483 |     11635558 |     11717478 |     23405676 |     23506193 |     23433953 |     23515873 |
dl2.writebacks                                 112 |          112 |            0 |            0 |          136 |          136 |            0 |            0 |          151 |          151 |            0 |            0 |          155 |          155 |            0 |            0 |          146 |          146 |            0 |            0 |          155 |          155 |            0 |            0 |          146 |        31322 |            0 |       298427 |        35232 |      1313185 |       623659 |      1343940 |      2709498 |      2711728 |      2688185 |      2720953 |      5902894 |      5968765 |      5965758 |      5998526 |     11977855 |     12022265 |     11996605 |     12029373 |
dl2.invalidations                                0 |            0 |            0 |            0 |            0 |            0 |            0 |            0 |            0 |            0 |            0 |            0 |            0 |            0 |            0 |            0 |            0 |            0 |            0 |            0 |            0 |            0 |            0 |            0 |            0 |            0 |            0 |            0 |            0 |            0 |            0 |            0 |            0 |            0 |            0 |            0 |            0 |            0 |            0 |            0 |            0 |            0 |            0 |            0 |
dl2.miss_rate                               0.0834 |       0.0834 |       0.0864 |       0.0864 |       0.0588 |       0.0588 |       0.0609 |       0.0609 |       0.0509 |       0.0509 |       0.0531 |       0.0531 |       0.0416 |       0.0416 |       0.0435 |       0.0435 |       0.0397 |       0.0397 |       0.0417 |       0.0417 |       0.0347 |       0.0347 |       0.0365 |       0.0365 |       0.0342 |       0.0626 |       0.0361 |       0.1984 |       0.0451 |       0.5694 |       0.1858 |       0.6571 |       0.5592 |       0.6208 |       0.6570 |       0.6590 |       0.6223 |       0.6253 |       0.6597 |       0.6606 |       0.6234 |       0.6243 |       0.6606 |       0.6611 |
dl2.repl_rate                               0.0085 |       0.0085 |       0.0000 |       0.0000 |       0.0044 |       0.0044 |       0.0000 |       0.0000 |       0.0024 |       0.0024 |       0.0000 |       0.0000 |       0.0011 |       0.0011 |       0.0000 |       0.0000 |       0.0005 |       0.0005 |       0.0000 |       0.0000 |       0.0002 |       0.0002 |       0.0000 |       0.0000 |       0.0001 |       0.0294 |       0.0000 |       0.1628 |       0.0147 |       0.5541 |       0.1535 |       0.6409 |       0.5440 |       0.6132 |       0.6409 |       0.6510 |       0.6154 |       0.6218 |       0.6524 |       0.6570 |       0.6199 |       0.6226 |       0.6570 |       0.6593 |
dl2.wb_rate                                 0.0052 |       0.0052 |       0.0000 |       0.0000 |       0.0028 |       0.0028 |       0.0000 |       0.0000 |       0.0016 |       0.0016 |       0.0000 |       0.0000 |       0.0007 |       0.0007 |       0.0000 |       0.0000 |       0.0003 |       0.0003 |       0.0000 |       0.0000 |       0.0002 |       0.0002 |       0.0000 |       0.0000 |       0.0001 |       0.0162 |       0.0000 |       0.1625 |       0.0082 |       0.3066 |       0.1534 |       0.3306 |       0.3152 |       0.3155 |       0.3306 |       0.3346 |       0.3136 |       0.3171 |       0.3345 |       0.3363 |       0.3172 |       0.3184 |       0.3363 |       0.3372 |
dl2.inv_rate                                0.0000 |       0.0000 |       0.0000 |       0.0000 |       0.0000 |       0.0000 |       0.0000 |       0.0000 |       0.0000 |       0.0000 |       0.0000 |       0.0000 |       0.0000 |       0.0000 |       0.0000 |       0.0000 |       0.0000 |       0.0000 |       0.0000 |       0.0000 |       0.0000 |       0.0000 |       0.0000 |       0.0000 |       0.0000 |       0.0000 |       0.0000 |       0.0000 |       0.0000 |       0.0000 |       0.0000 |       0.0000 |       0.0000 |       0.0000 |       0.0000 |       0.0000 |       0.0000 |       0.0000 |       0.0000 |       0.0000 |       0.0000 |       0.0000 |       0.0000 |       0.0000 |
itlb.accesses                               766126 |       766126 |       766126 |       766126 |      1669662 |      1669662 |      1669662 |      1669662 |      3536882 |      3536882 |      3536882 |      3536882 |      7640556 |      7640556 |      7640556 |      7640556 |     16092216 |     16092216 |     16092216 |     16092216 |     34470762 |     34470762 |     34470762 |     34470762 |     72213432 |     72213432 |     72213432 |     72213432 |    153593164 |    153593164 |    153593164 |    153593164 |    320300121 |    320300121 |    320300121 |    320300121 |    677286615 |    677286615 |    677286615 |    677286615 |   1406991967 |   1406991967 |   1406991967 |   1406991967 |
itlb.hits                                   766117 |       766117 |       766117 |       766117 |      1669653 |      1669653 |      1669653 |      1669653 |      3536873 |      3536873 |      3536873 |      3536873 |      7640547 |      7640547 |      7640547 |      7640547 |     16092207 |     16092207 |     16092207 |     16092207 |     34470753 |     34470753 |     34470753 |     34470753 |     72213423 |     72213423 |     72213423 |     72213423 |    153593155 |    153593155 |    153593155 |    153593155 |    320300112 |    320300112 |    320300112 |    320300112 |    677286606 |    677286606 |    677286606 |    677286606 |   1406991958 |   1406991958 |   1406991958 |   1406991958 |
itlb.misses                                      9 |            9 |            9 |            9 |            9 |            9 |            9 |            9 |            9 |            9 |            9 |            9 |            9 |            9 |            9 |            9 |            9 |            9 |            9 |            9 |            9 |            9 |            9 |            9 |            9 |            9 |            9 |            9 |            9 |            9 |            9 |            9 |            9 |            9 |            9 |            9 |            9 |            9 |            9 |            9 |            9 |            9 |            9 |            9 |
itlb.replacements                                0 |            0 |            0 |            0 |            0 |            0 |            0 |            0 |            0 |            0 |            0 |            0 |            0 |            0 |            0 |            0 |            0 |            0 |            0 |            0 |            0 |            0 |            0 |            0 |            0 |            0 |            0 |            0 |            0 |            0 |            0 |            0 |            0 |            0 |            0 |            0 |            0 |            0 |            0 |            0 |            0 |            0 |            0 |            0 |
itlb.writebacks                                  0 |            0 |            0 |            0 |            0 |            0 |            0 |            0 |            0 |            0 |            0 |            0 |            0 |            0 |            0 |            0 |            0 |            0 |            0 |            0 |            0 |            0 |            0 |            0 |            0 |            0 |            0 |            0 |            0 |            0 |            0 |            0 |            0 |            0 |            0 |            0 |            0 |            0 |            0 |            0 |            0 |            0 |            0 |            0 |
itlb.invalidations                               0 |            0 |            0 |            0 |            0 |            0 |            0 |            0 |            0 |            0 |            0 |            0 |            0 |            0 |            0 |            0 |            0 |            0 |            0 |            0 |            0 |            0 |            0 |            0 |            0 |            0 |            0 |            0 |            0 |            0 |            0 |            0 |            0 |            0 |            0 |            0 |            0 |            0 |            0 |            0 |            0 |            0 |            0 |            0 |
itlb.miss_rate                              0.0000 |       0.0000 |       0.0000 |       0.0000 |       0.0000 |       0.0000 |       0.0000 |       0.0000 |       0.0000 |       0.0000 |       0.0000 |       0.0000 |       0.0000 |       0.0000 |       0.0000 |       0.0000 |       0.0000 |       0.0000 |       0.0000 |       0.0000 |       0.0000 |       0.0000 |       0.0000 |       0.0000 |       0.0000 |       0.0000 |       0.0000 |       0.0000 |       0.0000 |       0.0000 |       0.0000 |       0.0000 |       0.0000 |       0.0000 |       0.0000 |       0.0000 |       0.0000 |       0.0000 |       0.0000 |       0.0000 |       0.0000 |       0.0000 |       0.0000 |       0.0000 |
itlb.repl_rate                              0.0000 |       0.0000 |       0.0000 |       0.0000 |       0.0000 |       0.0000 |       0.0000 |       0.0000 |       0.0000 |       0.0000 |       0.0000 |       0.0000 |       0.0000 |       0.0000 |       0.0000 |       0.0000 |       0.0000 |       0.0000 |       0.0000 |       0.0000 |       0.0000 |       0.0000 |       0.0000 |       0.0000 |       0.0000 |       0.0000 |       0.0000 |       0.0000 |       0.0000 |       0.0000 |       0.0000 |       0.0000 |       0.0000 |       0.0000 |       0.0000 |       0.0000 |       0.0000 |       0.0000 |       0.0000 |       0.0000 |       0.0000 |       0.0000 |       0.0000 |       0.0000 |
itlb.wb_rate                                0.0000 |       0.0000 |       0.0000 |       0.0000 |       0.0000 |       0.0000 |       0.0000 |       0.0000 |       0.0000 |       0.0000 |       0.0000 |       0.0000 |       0.0000 |       0.0000 |       0.0000 |       0.0000 |       0.0000 |       0.0000 |       0.0000 |       0.0000 |       0.0000 |       0.0000 |       0.0000 |       0.0000 |       0.0000 |       0.0000 |       0.0000 |       0.0000 |       0.0000 |       0.0000 |       0.0000 |       0.0000 |       0.0000 |       0.0000 |       0.0000 |       0.0000 |       0.0000 |       0.0000 |       0.0000 |       0.0000 |       0.0000 |       0.0000 |       0.0000 |       0.0000 |
itlb.inv_rate                               0.0000 |       0.0000 |       0.0000 |       0.0000 |       0.0000 |       0.0000 |       0.0000 |       0.0000 |       0.0000 |       0.0000 |       0.0000 |       0.0000 |       0.0000 |       0.0000 |       0.0000 |       0.0000 |       0.0000 |       0.0000 |       0.0000 |       0.0000 |       0.0000 |       0.0000 |       0.0000 |       0.0000 |       0.0000 |       0.0000 |       0.0000 |       0.0000 |       0.0000 |       0.0000 |       0.0000 |       0.0000 |       0.0000 |       0.0000 |       0.0000 |       0.0000 |       0.0000 |       0.0000 |       0.0000 |       0.0000 |       0.0000 |       0.0000 |       0.0000 |       0.0000 |
dtlb.accesses                               162468 |       162468 |       162468 |       162468 |       362254 |       362254 |       362254 |       362254 |       736854 |       736854 |       736854 |       736854 |      1633783 |      1633783 |      1633783 |      1633783 |      3328824 |      3328824 |      3328824 |      3328824 |      7309220 |      7309220 |      7309220 |      7309220 |     14876988 |     14876988 |     14876988 |     14876988 |     32371218 |     32371218 |     32371218 |     32371218 |     65796299 |     65796299 |     65796299 |     65796299 |    142070869 |    142070869 |    142070869 |    142070869 |    288328465 |    288328465 |    288328465 |    288328465 |
dtlb.hits                                   162453 |       162453 |       162453 |       162453 |       362231 |       362231 |       362231 |       362231 |       736815 |       736815 |       736815 |       736815 |      1633712 |      1633712 |      1633712 |      1633712 |      3328613 |      3328613 |      3328613 |      3328613 |      7304529 |      7304529 |      7304529 |      7304529 |     14867514 |     14867514 |     14867514 |     14867514 |     32350215 |     32350215 |     32350215 |     32350215 |     65754289 |     65754289 |     65754289 |     65754289 |    141978653 |    141978653 |    141978653 |    141978653 |    288144031 |    288144031 |    288144031 |    288144031 |
dtlb.misses                                     15 |           15 |           15 |           15 |           23 |           23 |           23 |           23 |           39 |           39 |           39 |           39 |           71 |           71 |           71 |           71 |          211 |          211 |          211 |          211 |         4691 |         4691 |         4691 |         4691 |         9474 |         9474 |         9474 |         9474 |        21003 |        21003 |        21003 |        21003 |        42010 |        42010 |        42010 |        42010 |        92216 |        92216 |        92216 |        92216 |       184434 |       184434 |       184434 |       184434 |
dtlb.replacements                                0 |            0 |            0 |            0 |            0 |            0 |            0 |            0 |            0 |            0 |            0 |            0 |            0 |            0 |            0 |            0 |           83 |           83 |           83 |           83 |         4563 |         4563 |         4563 |         4563 |         9346 |         9346 |         9346 |         9346 |        20875 |        20875 |        20875 |        20875 |        41882 |        41882 |        41882 |        41882 |        92088 |        92088 |        92088 |        92088 |       184306 |       184306 |       184306 |       184306 |
dtlb.writebacks                                  0 |            0 |            0 |            0 |            0 |            0 |            0 |            0 |            0 |            0 |            0 |            0 |            0 |            0 |            0 |            0 |           47 |           47 |           47 |           47 |         2389 |         2389 |         2389 |         2389 |         4821 |         4821 |         4821 |         4821 |        10718 |        10718 |        10718 |        10718 |        21483 |        21483 |        21483 |        21483 |        47112 |        47112 |        47112 |        47112 |        94269 |        94269 |        94269 |        94269 |
dtlb.invalidations                               0 |            0 |            0 |            0 |            0 |            0 |            0 |            0 |            0 |            0 |            0 |            0 |            0 |            0 |            0 |            0 |            0 |            0 |            0 |            0 |            0 |            0 |            0 |            0 |            0 |            0 |            0 |            0 |            0 |            0 |            0 |            0 |            0 |            0 |            0 |            0 |            0 |            0 |            0 |            0 |            0 |            0 |            0 |            0 |
dtlb.miss_rate                              0.0001 |       0.0001 |       0.0001 |       0.0001 |       0.0001 |       0.0001 |       0.0001 |       0.0001 |       0.0001 |       0.0001 |       0.0001 |       0.0001 |       0.0000 |       0.0000 |       0.0000 |       0.0000 |       0.0001 |       0.0001 |       0.0001 |       0.0001 |       0.0006 |       0.0006 |       0.0006 |       0.0006 |       0.0006 |       0.0006 |       0.0006 |       0.0006 |       0.0006 |       0.0006 |       0.0006 |       0.0006 |       0.0006 |       0.0006 |       0.0006 |       0.0006 |       0.0006 |       0.0006 |       0.0006 |       0.0006 |       0.0006 |       0.0006 |       0.0006 |       0.0006 |
dtlb.repl_rate                              0.0000 |       0.0000 |       0.0000 |       0.0000 |       0.0000 |       0.0000 |       0.0000 |       0.0000 |       0.0000 |       0.0000 |       0.0000 |       0.0000 |       0.0000 |       0.0000 |       0.0000 |       0.0000 |       0.0000 |       0.0000 |       0.0000 |       0.0000 |       0.0006 |       0.0006 |       0.0006 |       0.0006 |       0.0006 |       0.0006 |       0.0006 |       0.0006 |       0.0006 |       0.0006 |       0.0006 |       0.0006 |       0.0006 |       0.0006 |       0.0006 |       0.0006 |       0.0006 |       0.0006 |       0.0006 |       0.0006 |       0.0006 |       0.0006 |       0.0006 |       0.0006 |
dtlb.wb_rate                                0.0000 |       0.0000 |       0.0000 |       0.0000 |       0.0000 |       0.0000 |       0.0000 |       0.0000 |       0.0000 |       0.0000 |       0.0000 |       0.0000 |       0.0000 |       0.0000 |       0.0000 |       0.0000 |       0.0000 |       0.0000 |       0.0000 |       0.0000 |       0.0003 |       0.0003 |       0.0003 |       0.0003 |       0.0003 |       0.0003 |       0.0003 |       0.0003 |       0.0003 |       0.0003 |       0.0003 |       0.0003 |       0.0003 |       0.0003 |       0.0003 |       0.0003 |       0.0003 |       0.0003 |       0.0003 |       0.0003 |       0.0003 |       0.0003 |       0.0003 |       0.0003 |
dtlb.inv_rate                               0.0000 |       0.0000 |       0.0000 |       0.0000 |       0.0000 |       0.0000 |       0.0000 |       0.0000 |       0.0000 |       0.0000 |       0.0000 |       0.0000 |       0.0000 |       0.0000 |       0.0000 |       0.0000 |       0.0000 |       0.0000 |       0.0000 |       0.0000 |       0.0000 |       0.0000 |       0.0000 |       0.0000 |       0.0000 |       0.0000 |       0.0000 |       0.0000 |       0.0000 |       0.0000 |       0.0000 |       0.0000 |       0.0000 |       0.0000 |       0.0000 |       0.0000 |       0.0000 |       0.0000 |       0.0000 |       0.0000 |       0.0000 |       0.0000 |       0.0000 |       0.0000 |
ld_text_base                            0x00400000 |   0x00400000 |   0x00400000 |   0x00400000 |   0x00400000 |   0x00400000 |   0x00400000 |   0x00400000 |   0x00400000 |   0x00400000 |   0x00400000 |   0x00400000 |   0x00400000 |   0x00400000 |   0x00400000 |   0x00400000 |   0x00400000 |   0x00400000 |   0x00400000 |   0x00400000 |   0x00400000 |   0x00400000 |   0x00400000 |   0x00400000 |   0x00400000 |   0x00400000 |   0x00400000 |   0x00400000 |   0x00400000 |   0x00400000 |   0x00400000 |   0x00400000 |   0x00400000 |   0x00400000 |   0x00400000 |   0x00400000 |   0x00400000 |   0x00400000 |   0x00400000 |   0x00400000 |   0x00400000 |   0x00400000 |   0x00400000 |   0x00400000 |
ld_text_size                                 71456 |        71456 |        71456 |        71456 |        71488 |        71488 |        71488 |        71488 |        71504 |        71504 |        71504 |        71504 |        71520 |        71520 |        71520 |        71520 |        71520 |        71520 |        71520 |        71520 |        71520 |        71520 |        71520 |        71520 |        71520 |        71520 |        71520 |        71520 |        71520 |        71520 |        71520 |        71520 |        71520 |        71520 |        71520 |        71520 |        71520 |        71520 |        71520 |        71520 |        71520 |        71520 |        71520 |        71520 |
ld_data_base                            0x10000000 |   0x10000000 |   0x10000000 |   0x10000000 |   0x10000000 |   0x10000000 |   0x10000000 |   0x10000000 |   0x10000000 |   0x10000000 |   0x10000000 |   0x10000000 |   0x10000000 |   0x10000000 |   0x10000000 |   0x10000000 |   0x10000000 |   0x10000000 |   0x10000000 |   0x10000000 |   0x10000000 |   0x10000000 |   0x10000000 |   0x10000000 |   0x10000000 |   0x10000000 |   0x10000000 |   0x10000000 |   0x10000000 |   0x10000000 |   0x10000000 |   0x10000000 |   0x10000000 |   0x10000000 |   0x10000000 |   0x10000000 |   0x10000000 |   0x10000000 |   0x10000000 |   0x10000000 |   0x10000000 |   0x10000000 |   0x10000000 |   0x10000000 |
ld_data_size                                  8192 |         8192 |         8192 |         8192 |         8192 |         8192 |         8192 |         8192 |         8192 |         8192 |         8192 |         8192 |         8192 |         8192 |         8192 |         8192 |         8192 |         8192 |         8192 |         8192 |         8192 |         8192 |         8192 |         8192 |         8192 |         8192 |         8192 |         8192 |         8192 |         8192 |         8192 |         8192 |         8192 |         8192 |         8192 |         8192 |         8192 |         8192 |         8192 |         8192 |         8192 |         8192 |         8192 |         8192 |
ld_stack_base                           0x7fffc000 |   0x7fffc000 |   0x7fffc000 |   0x7fffc000 |   0x7fffc000 |   0x7fffc000 |   0x7fffc000 |   0x7fffc000 |   0x7fffc000 |   0x7fffc000 |   0x7fffc000 |   0x7fffc000 |   0x7fffc000 |   0x7fffc000 |   0x7fffc000 |   0x7fffc000 |   0x7fffc000 |   0x7fffc000 |   0x7fffc000 |   0x7fffc000 |   0x7fffc000 |   0x7fffc000 |   0x7fffc000 |   0x7fffc000 |   0x7fffc000 |   0x7fffc000 |   0x7fffc000 |   0x7fffc000 |   0x7fffc000 |   0x7fffc000 |   0x7fffc000 |   0x7fffc000 |   0x7fffc000 |   0x7fffc000 |   0x7fffc000 |   0x7fffc000 |   0x7fffc000 |   0x7fffc000 |   0x7fffc000 |   0x7fffc000 |   0x7fffc000 |   0x7fffc000 |   0x7fffc000 |   0x7fffc000 |
ld_stack_size                                16384 |        16384 |        16384 |        16384 |        16384 |        16384 |        16384 |        16384 |        16384 |        16384 |        16384 |        16384 |        16384 |        16384 |        16384 |        16384 |        16384 |        16384 |        16384 |        16384 |        16384 |        16384 |        16384 |        16384 |        16384 |        16384 |        16384 |        16384 |        16384 |        16384 |        16384 |        16384 |        16384 |        16384 |        16384 |        16384 |        16384 |        16384 |        16384 |        16384 |        16384 |        16384 |        16384 |        16384 |
ld_prog_entry                           0x00400140 |   0x00400140 |   0x00400140 |   0x00400140 |   0x00400140 |   0x00400140 |   0x00400140 |   0x00400140 |   0x00400140 |   0x00400140 |   0x00400140 |   0x00400140 |   0x00400140 |   0x00400140 |   0x00400140 |   0x00400140 |   0x00400140 |   0x00400140 |   0x00400140 |   0x00400140 |   0x00400140 |   0x00400140 |   0x00400140 |   0x00400140 |   0x00400140 |   0x00400140 |   0x00400140 |   0x00400140 |   0x00400140 |   0x00400140 |   0x00400140 |   0x00400140 |   0x00400140 |   0x00400140 |   0x00400140 |   0x00400140 |   0x00400140 |   0x00400140 |   0x00400140 |   0x00400140 |   0x00400140 |   0x00400140 |   0x00400140 |   0x00400140 |
ld_environ_base                         0x7fff8000 |   0x7fff8000 |   0x7fff8000 |   0x7fff8000 |   0x7fff8000 |   0x7fff8000 |   0x7fff8000 |   0x7fff8000 |   0x7fff8000 |   0x7fff8000 |   0x7fff8000 |   0x7fff8000 |   0x7fff8000 |   0x7fff8000 |   0x7fff8000 |   0x7fff8000 |   0x7fff8000 |   0x7fff8000 |   0x7fff8000 |   0x7fff8000 |   0x7fff8000 |   0x7fff8000 |   0x7fff8000 |   0x7fff8000 |   0x7fff8000 |   0x7fff8000 |   0x7fff8000 |   0x7fff8000 |   0x7fff8000 |   0x7fff8000 |   0x7fff8000 |   0x7fff8000 |   0x7fff8000 |   0x7fff8000 |   0x7fff8000 |   0x7fff8000 |   0x7fff8000 |   0x7fff8000 |   0x7fff8000 |   0x7fff8000 |   0x7fff8000 |   0x7fff8000 |   0x7fff8000 |   0x7fff8000 |
ld_target_big_endian                             0 |            0 |            0 |            0 |            0 |            0 |            0 |            0 |            0 |            0 |            0 |            0 |            0 |            0 |            0 |            0 |            0 |            0 |            0 |            0 |            0 |            0 |            0 |            0 |            0 |            0 |            0 |            0 |            0 |            0 |            0 |            0 |            0 |            0 |            0 |            0 |            0 |            0 |            0 |            0 |            0 |            0 |            0 |            0 |
mem.page_count                                  33 |           33 |           33 |           33 |           41 |           41 |           41 |           41 |           57 |           57 |           57 |           57 |           89 |           89 |           89 |           89 |          153 |          153 |          153 |          153 |          281 |          281 |          281 |          281 |          537 |          537 |          537 |          537 |         1049 |         1049 |         1049 |         1049 |         2079 |         2079 |         2079 |         2079 |         4133 |         4133 |         4133 |         4133 |         8241 |         8241 |         8241 |         8241 |
mem.page_mem                                  132k |         132k |         132k |         132k |         164k |         164k |         164k |         164k |         228k |         228k |         228k |         228k |         356k |         356k |         356k |         356k |         612k |         612k |         612k |         612k |        1124k |        1124k |        1124k |        1124k |        2148k |        2148k |        2148k |        2148k |        4196k |        4196k |        4196k |        4196k |        8316k |        8316k |        8316k |        8316k |       16532k |       16532k |       16532k |       16532k |       32964k |       32964k |       32964k |       32964k |
mem.ptab_misses                                 33 |           33 |           33 |           33 |           41 |           41 |           41 |           41 |           57 |           57 |           57 |           57 |           89 |           89 |           89 |           89 |          153 |          153 |          153 |          153 |          281 |          281 |          281 |          281 |          537 |          537 |          537 |          537 |         1049 |         1049 |         1049 |         1049 |        62649 |        62649 |        62649 |        62649 |        68599 |        68599 |        68599 |        68599 |        75017 |        75017 |        75017 |        75017 |
mem.ptab_accesses                          3832748 |      3832748 |      3832748 |      3832748 |      7846656 |      7846656 |      7846656 |      7846656 |     16064832 |     16064832 |     16064832 |     16064832 |     34273482 |     34273482 |     34273482 |     34273482 |     71470204 |     71470204 |     71470204 |     71470204 |    152945180 |    152945180 |    152945180 |    152945180 |    319051396 |    319051396 |    319051396 |    319051396 |    679558784 |    679558784 |    679558784 |    679558784 |   1413236774 |   1413236774 |   1413236774 |   1413236774 |   2993731890 |   2993731890 |   2993731890 |   2993731890 |   6205068490 |   6205068490 |   6205068490 |   6205068490 |
mem.ptab_miss_rate                          0.0000 |       0.0000 |       0.0000 |       0.0000 |       0.0000 |       0.0000 |       0.0000 |       0.0000 |       0.0000 |       0.0000 |       0.0000 |       0.0000 |       0.0000 |       0.0000 |       0.0000 |       0.0000 |       0.0000 |       0.0000 |       0.0000 |       0.0000 |       0.0000 |       0.0000 |       0.0000 |       0.0000 |       0.0000 |       0.0000 |       0.0000 |       0.0000 |       0.0000 |       0.0000 |       0.0000 |       0.0000 |       0.0000 |       0.0000 |       0.0000 |       0.0000 |       0.0000 |       0.0000 |       0.0000 |       0.0000 |       0.0000 |       0.0000 |       0.0000 |       0.0000 |
-------------------------------------------------------------------------------------------------
sim-bpred                                     4096 |         4096 |         4096 |         4096 |         4096 |         4096 |         4096 |         8192 |         8192 |         8192 |         8192 |         8192 |         8192 |         8192 |        16384 |        16384 |        16384 |        16384 |        16384 |        16384 |        16384 |        32768 |        32768 |        32768 |        32768 |        32768 |        32768 |        32768 |        65536 |        65536 |        65536 |        65536 |        65536 |        65536 |        65536 |       131072 |       131072 |       131072 |       131072 |       131072 |       131072 |       131072 |       262144 |       262144 |       262144 |       262144 |       262144 |       262144 |       262144 |       524288 |       524288 |       524288 |       524288 |       524288 |       524288 |       524288 |      1048576 |      1048576 |      1048576 |      1048576 |      1048576 |      1048576 |      1048576 |      2097152 |      2097152 |      2097152 |      2097152 |      2097152 |      2097152 |      2097152 |      4194304 |      4194304 |      4194304 |      4194304 |      4194304 |      4194304 |      4194304 |
-bpred bimod -bpred:bimod 512
-bpred bimod -bpred:bimod 1024
-bpred bimod -bpred:bimod 2048
-bpred 2lev -bpred:2lev 1 512 10 1
-bpred 2lev -bpred:2lev 1 1024 10 1
-bpred 2lev -bpred:2lev 1 2048 10 1
-bpred 2lev -bpred:2lev 1 4096 10 1
-------------------------------------------------------------------------------------------------
sim_num_insn                                766126 |       766126 |       766126 |       766126 |       766126 |       766126 |       766126 |      1669662 |      1669662 |      1669662 |      1669662 |      1669662 |      1669662 |      1669662 |      3536882 |      3536882 |      3536882 |      3536882 |      3536882 |      3536882 |      3536882 |      7640556 |      7640556 |      7640556 |      7640556 |      7640556 |      7640556 |      7640556 |     16092216 |     16092216 |     16092216 |     16092216 |     16092216 |     16092216 |     16092216 |     34470762 |     34470762 |     34470762 |     34470762 |     34470762 |     34470762 |     34470762 |     72213432 |     72213432 |     72213432 |     72213432 |     72213432 |     72213432 |     72213432 |    153593164 |    153593164 |    153593164 |    153593164 |    153593164 |    153593164 |    153593164 |    320300121 |    320300121 |    320300121 |    320300121 |    320300121 |    320300121 |    320300121 |    677286615 |    677286615 |    677286615 |    677286615 |    677286615 |    677286615 |    677286615 |   1406991967 |   1406991967 |   1406991967 |   1406991967 |   1406991967 |   1406991967 |   1406991967 |
sim_num_refs                                146002 |       146002 |       146002 |       146002 |       146002 |       146002 |       146002 |       329404 |       329404 |       329404 |       329404 |       329404 |       329404 |       329404 |       671236 |       671236 |       671236 |       671236 |       671236 |       671236 |       671236 |      1502629 |      1502629 |      1502629 |      1502629 |      1502629 |      1502629 |      1502629 |      3066598 |      3066598 |      3066598 |      3066598 |      3066598 |      3066598 |      3066598 |      6784850 |      6784850 |      6784850 |      6784850 |      6784850 |      6784850 |      6784850 |     13828330 |     13828330 |     13828330 |     13828330 |     13828330 |     13828330 |     13828330 |     30273984 |     30273984 |     30273984 |     30273984 |     30273984 |     30273984 |     30273984 |     61601913 |     61601913 |     61601913 |     61601913 |     61601913 |     61601913 |     61601913 |    133682179 |    133682179 |    133682179 |    133682179 |    133682179 |    133682179 |    133682179 |    271551167 |    271551167 |    271551167 |    271551167 |    271551167 |    271551167 |    271551167 |
sim_elapsed_time                                 1 |            1 |            1 |            1 |            1 |            1 |            1 |            1 |            1 |            1 |            1 |            1 |            1 |            1 |            1 |            1 |            1 |            1 |            1 |            1 |            1 |            1 |            1 |            1 |            1 |            1 |            1 |            1 |            2 |            2 |            1 |            2 |            2 |            2 |            2 |            3 |            4 |            4 |            4 |            4 |            3 |            4 |            8 |            8 |            8 |            8 |            8 |            8 |            9 |           16 |           17 |           17 |           18 |           17 |           17 |           17 |           35 |           35 |           36 |           36 |           36 |           36 |           36 |          544 |          530 |          528 |          539 |          526 |          525 |          542 |          154 |          155 |          156 |          157 |          156 |          157 |          158 |
sim_inst_rate                          766126.0000 |  766126.0000 |  766126.0000 |  766126.0000 |  766126.0000 |  766126.0000 |  766126.0000 | 1669662.0000 | 1669662.0000 | 1669662.0000 | 1669662.0000 | 1669662.0000 | 1669662.0000 | 1669662.0000 | 3536882.0000 | 3536882.0000 | 3536882.0000 | 3536882.0000 | 3536882.0000 | 3536882.0000 | 3536882.0000 | 7640556.0000 | 7640556.0000 | 7640556.0000 | 7640556.0000 | 7640556.0000 | 7640556.0000 | 7640556.0000 | 8046108.0000 | 8046108.0000 |16092216.0000 | 8046108.0000 | 8046108.0000 | 8046108.0000 | 8046108.0000 |11490254.0000 | 8617690.5000 | 8617690.5000 | 8617690.5000 | 8617690.5000 |11490254.0000 | 8617690.5000 | 9026679.0000 | 9026679.0000 | 9026679.0000 | 9026679.0000 | 9026679.0000 | 9026679.0000 | 8023714.6667 | 9599572.7500 | 9034892.0000 | 9034892.0000 | 8532953.5556 | 9034892.0000 | 9034892.0000 | 9034892.0000 | 9151432.0286 | 9151432.0286 | 8897225.5833 | 8897225.5833 | 8897225.5833 | 8897225.5833 | 8897225.5833 | 1245012.1599 | 1277899.2736 | 1282739.8011 | 1256561.4378 | 1287617.1388 | 1290069.7429 | 1249606.3007 | 9136311.4740 | 9077367.5290 | 9019179.2756 | 8961732.2739 | 9019179.2756 | 8961732.2739 | 8905012.4494 |
sim_num_branches                            109369 |       109369 |       109369 |       109369 |       109369 |       109369 |       109369 |       235328 |       235328 |       235328 |       235328 |       235328 |       235328 |       235328 |       500705 |       500705 |       500705 |       500705 |       500705 |       500705 |       500705 |      1069899 |      1069899 |      1069899 |      1069899 |      1069899 |      1069899 |      1069899 |      2262146 |      2262146 |      2262146 |      2262146 |      2262146 |      2262146 |      2262146 |      4801016 |      4801016 |      4801016 |      4801016 |      4801016 |      4801016 |      4801016 |     10093525 |     10093525 |     10093525 |     10093525 |     10093525 |     10093525 |     10093525 |     21299718 |     21299718 |     21299718 |     21299718 |     21299718 |     21299718 |     21299718 |     44566835 |     44566835 |     44566835 |     44566835 |     44566835 |     44566835 |     44566835 |     93587577 |     93587577 |     93587577 |     93587577 |     93587577 |     93587577 |     93587577 |    195041019 |    195041019 |    195041019 |    195041019 |    195041019 |    195041019 |    195041019 |
sim_IPB                                     7.0050 |       7.0050 |       7.0050 |       7.0050 |       7.0050 |       7.0050 |       7.0050 |       7.0950 |       7.0950 |       7.0950 |       7.0950 |       7.0950 |       7.0950 |       7.0950 |       7.0638 |       7.0638 |       7.0638 |       7.0638 |       7.0638 |       7.0638 |       7.0638 |       7.1414 |       7.1414 |       7.1414 |       7.1414 |       7.1414 |       7.1414 |       7.1414 |       7.1137 |       7.1137 |       7.1137 |       7.1137 |       7.1137 |       7.1137 |       7.1137 |       7.1799 |       7.1799 |       7.1799 |       7.1799 |       7.1799 |       7.1799 |       7.1799 |       7.1544 |       7.1544 |       7.1544 |       7.1544 |       7.1544 |       7.1544 |       7.1544 |       7.2110 |       7.2110 |       7.2110 |       7.2110 |       7.2110 |       7.2110 |       7.2110 |       7.1870 |       7.1870 |       7.1870 |       7.1870 |       7.1870 |       7.1870 |       7.1870 |       7.2369 |       7.2369 |       7.2369 |       7.2369 |       7.2369 |       7.2369 |       7.2369 |       7.2138 |       7.2138 |       7.2138 |       7.2138 |       7.2138 |       7.2138 |       7.2138 |
bpred_bimod.lookups                         109369 |       109369 |       109369 |xxxxxxxxxxxxx |xxxxxxxxxxxxx |xxxxxxxxxxxxx |xxxxxxxxxxxxx |       235328 |       235328 |       235328 |xxxxxxxxxxxxx |xxxxxxxxxxxxx |xxxxxxxxxxxxx |xxxxxxxxxxxxx |       500705 |       500705 |       500705 |xxxxxxxxxxxxx |xxxxxxxxxxxxx |xxxxxxxxxxxxx |xxxxxxxxxxxxx |      1069899 |      1069899 |      1069899 |xxxxxxxxxxxxx |xxxxxxxxxxxxx |xxxxxxxxxxxxx |xxxxxxxxxxxxx |      2262146 |      2262146 |      2262146 |xxxxxxxxxxxxx |xxxxxxxxxxxxx |xxxxxxxxxxxxx |xxxxxxxxxxxxx |      4801016 |      4801016 |      4801016 |xxxxxxxxxxxxx |xxxxxxxxxxxxx |xxxxxxxxxxxxx |xxxxxxxxxxxxx |     10093525 |     10093525 |     10093525 |xxxxxxxxxxxxx |xxxxxxxxxxxxx |xxxxxxxxxxxxx |xxxxxxxxxxxxx |     21299718 |     21299718 |     21299718 |xxxxxxxxxxxxx |xxxxxxxxxxxxx |xxxxxxxxxxxxx |xxxxxxxxxxxxx |     44566835 |     44566835 |     44566835 |xxxxxxxxxxxxx |xxxxxxxxxxxxx |xxxxxxxxxxxxx |xxxxxxxxxxxxx |     93587577 |     93587577 |     93587577 |xxxxxxxxxxxxx |xxxxxxxxxxxxx |xxxxxxxxxxxxx |xxxxxxxxxxxxx |    195041019 |    195041019 |    195041019 |
bpred_bimod.updates                         109369 |       109369 |       109369 |xxxxxxxxxxxxx |xxxxxxxxxxxxx |xxxxxxxxxxxxx |xxxxxxxxxxxxx |       235328 |       235328 |       235328 |xxxxxxxxxxxxx |xxxxxxxxxxxxx |xxxxxxxxxxxxx |xxxxxxxxxxxxx |       500705 |       500705 |       500705 |xxxxxxxxxxxxx |xxxxxxxxxxxxx |xxxxxxxxxxxxx |xxxxxxxxxxxxx |      1069899 |      1069899 |      1069899 |xxxxxxxxxxxxx |xxxxxxxxxxxxx |xxxxxxxxxxxxx |xxxxxxxxxxxxx |      2262146 |      2262146 |      2262146 |xxxxxxxxxxxxx |xxxxxxxxxxxxx |xxxxxxxxxxxxx |xxxxxxxxxxxxx |      4801016 |      4801016 |      4801016 |xxxxxxxxxxxxx |xxxxxxxxxxxxx |xxxxxxxxxxxxx |xxxxxxxxxxxxx |     10093525 |     10093525 |     10093525 |xxxxxxxxxxxxx |xxxxxxxxxxxxx |xxxxxxxxxxxxx |xxxxxxxxxxxxx |     21299718 |     21299718 |     21299718 |xxxxxxxxxxxxx |xxxxxxxxxxxxx |xxxxxxxxxxxxx |xxxxxxxxxxxxx |     44566835 |     44566835 |     44566835 |xxxxxxxxxxxxx |xxxxxxxxxxxxx |xxxxxxxxxxxxx |xxxxxxxxxxxxx |     93587577 |     93587577 |     93587577 |xxxxxxxxxxxxx |xxxxxxxxxxxxx |xxxxxxxxxxxxx |xxxxxxxxxxxxx |    195041019 |    195041019 |    195041019 |
bpred_bimod.addr_hits                        83149 |        83151 |        83156 |xxxxxxxxxxxxx |xxxxxxxxxxxxx |xxxxxxxxxxxxx |xxxxxxxxxxxxx |       179072 |       179075 |       179080 |xxxxxxxxxxxxx |xxxxxxxxxxxxx |xxxxxxxxxxxxx |xxxxxxxxxxxxx |       380351 |       380353 |       380359 |xxxxxxxxxxxxx |xxxxxxxxxxxxx |xxxxxxxxxxxxx |xxxxxxxxxxxxx |       813060 |       813063 |       813069 |xxxxxxxxxxxxx |xxxxxxxxxxxxx |xxxxxxxxxxxxx |xxxxxxxxxxxxx |      1716585 |      1716587 |      1716593 |xxxxxxxxxxxxx |xxxxxxxxxxxxx |xxxxxxxxxxxxx |xxxxxxxxxxxxx |      3643036 |      3643039 |      3643045 |xxxxxxxxxxxxx |xxxxxxxxxxxxx |xxxxxxxxxxxxx |xxxxxxxxxxxxx |      7646530 |      7646532 |      7646538 |xxxxxxxxxxxxx |xxxxxxxxxxxxx |xxxxxxxxxxxxx |xxxxxxxxxxxxx |     16145438 |     16145441 |     16145447 |xxxxxxxxxxxxx |xxxxxxxxxxxxx |xxxxxxxxxxxxx |xxxxxxxxxxxxx |     33731604 |     33731607 |     33731612 |xxxxxxxxxxxxx |xxxxxxxxxxxxx |xxxxxxxxxxxxx |xxxxxxxxxxxxx |     70874567 |     70874570 |     70874575 |xxxxxxxxxxxxx |xxxxxxxxxxxxx |xxxxxxxxxxxxx |xxxxxxxxxxxxx |    147510752 |    147510755 |    147510761 |
bpred_bimod.dir_hits                         83248 |        83250 |        83254 |xxxxxxxxxxxxx |xxxxxxxxxxxxx |xxxxxxxxxxxxx |xxxxxxxxxxxxx |       179181 |       179183 |       179188 |xxxxxxxxxxxxx |xxxxxxxxxxxxx |xxxxxxxxxxxxx |xxxxxxxxxxxxx |       380456 |       380457 |       380461 |xxxxxxxxxxxxx |xxxxxxxxxxxxx |xxxxxxxxxxxxx |xxxxxxxxxxxxx |       813168 |       813170 |       813176 |xxxxxxxxxxxxx |xxxxxxxxxxxxx |xxxxxxxxxxxxx |xxxxxxxxxxxxx |      1716687 |      1716688 |      1716694 |xxxxxxxxxxxxx |xxxxxxxxxxxxx |xxxxxxxxxxxxx |xxxxxxxxxxxxx |      3643145 |      3643147 |      3643153 |xxxxxxxxxxxxx |xxxxxxxxxxxxx |xxxxxxxxxxxxx |xxxxxxxxxxxxx |      7646633 |      7646634 |      7646640 |xxxxxxxxxxxxx |xxxxxxxxxxxxx |xxxxxxxxxxxxx |xxxxxxxxxxxxx |     16145547 |     16145549 |     16145555 |xxxxxxxxxxxxx |xxxxxxxxxxxxx |xxxxxxxxxxxxx |xxxxxxxxxxxxx |     33731718 |     33731720 |     33731725 |xxxxxxxxxxxxx |xxxxxxxxxxxxx |xxxxxxxxxxxxx |xxxxxxxxxxxxx |     70874682 |     70874684 |     70874689 |xxxxxxxxxxxxx |xxxxxxxxxxxxx |xxxxxxxxxxxxx |xxxxxxxxxxxxx |    147510866 |    147510868 |    147510874 |
bpred_bimod.misses                           26121 |        26119 |        26115 |xxxxxxxxxxxxx |xxxxxxxxxxxxx |xxxxxxxxxxxxx |xxxxxxxxxxxxx |        56147 |        56145 |        56140 |xxxxxxxxxxxxx |xxxxxxxxxxxxx |xxxxxxxxxxxxx |xxxxxxxxxxxxx |       120249 |       120248 |       120244 |xxxxxxxxxxxxx |xxxxxxxxxxxxx |xxxxxxxxxxxxx |xxxxxxxxxxxxx |       256731 |       256729 |       256723 |xxxxxxxxxxxxx |xxxxxxxxxxxxx |xxxxxxxxxxxxx |xxxxxxxxxxxxx |       545459 |       545458 |       545452 |xxxxxxxxxxxxx |xxxxxxxxxxxxx |xxxxxxxxxxxxx |xxxxxxxxxxxxx |      1157871 |      1157869 |      1157863 |xxxxxxxxxxxxx |xxxxxxxxxxxxx |xxxxxxxxxxxxx |xxxxxxxxxxxxx |      2446892 |      2446891 |      2446885 |xxxxxxxxxxxxx |xxxxxxxxxxxxx |xxxxxxxxxxxxx |xxxxxxxxxxxxx |      5154171 |      5154169 |      5154163 |xxxxxxxxxxxxx |xxxxxxxxxxxxx |xxxxxxxxxxxxx |xxxxxxxxxxxxx |     10835117 |     10835115 |     10835110 |xxxxxxxxxxxxx |xxxxxxxxxxxxx |xxxxxxxxxxxxx |xxxxxxxxxxxxx |     22712895 |     22712893 |     22712888 |xxxxxxxxxxxxx |xxxxxxxxxxxxx |xxxxxxxxxxxxx |xxxxxxxxxxxxx |     47530153 |     47530151 |     47530145 |
bpred_bimod.jr_hits                             61 |           61 |           61 |xxxxxxxxxxxxx |xxxxxxxxxxxxx |xxxxxxxxxxxxx |xxxxxxxxxxxxx |           71 |           71 |           71 |xxxxxxxxxxxxx |xxxxxxxxxxxxx |xxxxxxxxxxxxx |xxxxxxxxxxxxx |           69 |           69 |           69 |xxxxxxxxxxxxx |xxxxxxxxxxxxx |xxxxxxxxxxxxx |xxxxxxxxxxxxx |           71 |           71 |           71 |xxxxxxxxxxxxx |xxxxxxxxxxxxx |xxxxxxxxxxxxx |xxxxxxxxxxxxx |           69 |           69 |           69 |xxxxxxxxxxxxx |xxxxxxxxxxxxx |xxxxxxxxxxxxx |xxxxxxxxxxxxx |           71 |           71 |           71 |xxxxxxxxxxxxx |xxxxxxxxxxxxx |xxxxxxxxxxxxx |xxxxxxxxxxxxx |           69 |           69 |           69 |xxxxxxxxxxxxx |xxxxxxxxxxxxx |xxxxxxxxxxxxx |xxxxxxxxxxxxx |           71 |           71 |           71 |xxxxxxxxxxxxx |xxxxxxxxxxxxx |xxxxxxxxxxxxx |xxxxxxxxxxxxx |           72 |           72 |           72 |xxxxxxxxxxxxx |xxxxxxxxxxxxx |xxxxxxxxxxxxx |xxxxxxxxxxxxx |           75 |           75 |           75 |xxxxxxxxxxxxx |xxxxxxxxxxxxx |xxxxxxxxxxxxx |xxxxxxxxxxxxx |           72 |           72 |           72 |
bpred_bimod.jr_seen                             61 |           61 |           61 |xxxxxxxxxxxxx |xxxxxxxxxxxxx |xxxxxxxxxxxxx |xxxxxxxxxxxxx |           73 |           73 |           73 |xxxxxxxxxxxxx |xxxxxxxxxxxxx |xxxxxxxxxxxxx |xxxxxxxxxxxxx |           70 |           70 |           70 |xxxxxxxxxxxxx |xxxxxxxxxxxxx |xxxxxxxxxxxxx |xxxxxxxxxxxxx |           73 |           73 |           73 |xxxxxxxxxxxxx |xxxxxxxxxxxxx |xxxxxxxxxxxxx |xxxxxxxxxxxxx |           70 |           70 |           70 |xxxxxxxxxxxxx |xxxxxxxxxxxxx |xxxxxxxxxxxxx |xxxxxxxxxxxxx |           73 |           73 |           73 |xxxxxxxxxxxxx |xxxxxxxxxxxxx |xxxxxxxxxxxxx |xxxxxxxxxxxxx |           70 |           70 |           70 |xxxxxxxxxxxxx |xxxxxxxxxxxxx |xxxxxxxxxxxxx |xxxxxxxxxxxxx |           73 |           73 |           73 |xxxxxxxxxxxxx |xxxxxxxxxxxxx |xxxxxxxxxxxxx |xxxxxxxxxxxxx |           73 |           73 |           73 |xxxxxxxxxxxxx |xxxxxxxxxxxxx |xxxxxxxxxxxxx |xxxxxxxxxxxxx |           76 |           76 |           76 |xxxxxxxxxxxxx |xxxxxxxxxxxxx |xxxxxxxxxxxxx |xxxxxxxxxxxxx |           73 |           73 |           73 |
bpred_bimod.jr_non_ras_hits.PP                   0 |            0 |            0 |xxxxxxxxxxxxx |xxxxxxxxxxxxx |xxxxxxxxxxxxx |xxxxxxxxxxxxx |            0 |            0 |            0 |xxxxxxxxxxxxx |xxxxxxxxxxxxx |xxxxxxxxxxxxx |xxxxxxxxxxxxx |            0 |            0 |            0 |xxxxxxxxxxxxx |xxxxxxxxxxxxx |xxxxxxxxxxxxx |xxxxxxxxxxxxx |            0 |            0 |            0 |xxxxxxxxxxxxx |xxxxxxxxxxxxx |xxxxxxxxxxxxx |xxxxxxxxxxxxx |            0 |            0 |            0 |xxxxxxxxxxxxx |xxxxxxxxxxxxx |xxxxxxxxxxxxx |xxxxxxxxxxxxx |            0 |            0 |            0 |xxxxxxxxxxxxx |xxxxxxxxxxxxx |xxxxxxxxxxxxx |xxxxxxxxxxxxx |            0 |            0 |            0 |xxxxxxxxxxxxx |xxxxxxxxxxxxx |xxxxxxxxxxxxx |xxxxxxxxxxxxx |            0 |            0 |            0 |xxxxxxxxxxxxx |xxxxxxxxxxxxx |xxxxxxxxxxxxx |xxxxxxxxxxxxx |            0 |            0 |            0 |xxxxxxxxxxxxx |xxxxxxxxxxxxx |xxxxxxxxxxxxx |xxxxxxxxxxxxx |            1 |            1 |            1 |xxxxxxxxxxxxx |xxxxxxxxxxxxx |xxxxxxxxxxxxx |xxxxxxxxxxxxx |            0 |            0 |            0 |
bpred_bimod.jr_non_ras_seen.PP                   0 |            0 |            0 |xxxxxxxxxxxxx |xxxxxxxxxxxxx |xxxxxxxxxxxxx |xxxxxxxxxxxxx |            1 |            1 |            1 |xxxxxxxxxxxxx |xxxxxxxxxxxxx |xxxxxxxxxxxxx |xxxxxxxxxxxxx |            0 |            0 |            0 |xxxxxxxxxxxxx |xxxxxxxxxxxxx |xxxxxxxxxxxxx |xxxxxxxxxxxxx |            1 |            1 |            1 |xxxxxxxxxxxxx |xxxxxxxxxxxxx |xxxxxxxxxxxxx |xxxxxxxxxxxxx |            0 |            0 |            0 |xxxxxxxxxxxxx |xxxxxxxxxxxxx |xxxxxxxxxxxxx |xxxxxxxxxxxxx |            1 |            1 |            1 |xxxxxxxxxxxxx |xxxxxxxxxxxxx |xxxxxxxxxxxxx |xxxxxxxxxxxxx |            0 |            0 |            0 |xxxxxxxxxxxxx |xxxxxxxxxxxxx |xxxxxxxxxxxxx |xxxxxxxxxxxxx |            1 |            1 |            1 |xxxxxxxxxxxxx |xxxxxxxxxxxxx |xxxxxxxxxxxxx |xxxxxxxxxxxxx |            1 |            1 |            1 |xxxxxxxxxxxxx |xxxxxxxxxxxxx |xxxxxxxxxxxxx |xxxxxxxxxxxxx |            2 |            2 |            2 |xxxxxxxxxxxxx |xxxxxxxxxxxxx |xxxxxxxxxxxxx |xxxxxxxxxxxxx |            1 |            1 |            1 |
bpred_bimod.bpred_addr_rate                 0.7603 |       0.7603 |       0.7603 |xxxxxxxxxxxxx |xxxxxxxxxxxxx |xxxxxxxxxxxxx |xxxxxxxxxxxxx |       0.7609 |       0.7610 |       0.7610 |xxxxxxxxxxxxx |xxxxxxxxxxxxx |xxxxxxxxxxxxx |xxxxxxxxxxxxx |       0.7596 |       0.7596 |       0.7596 |xxxxxxxxxxxxx |xxxxxxxxxxxxx |xxxxxxxxxxxxx |xxxxxxxxxxxxx |       0.7599 |       0.7599 |       0.7599 |xxxxxxxxxxxxx |xxxxxxxxxxxxx |xxxxxxxxxxxxx |xxxxxxxxxxxxx |       0.7588 |       0.7588 |       0.7588 |xxxxxxxxxxxxx |xxxxxxxxxxxxx |xxxxxxxxxxxxx |xxxxxxxxxxxxx |       0.7588 |       0.7588 |       0.7588 |xxxxxxxxxxxxx |xxxxxxxxxxxxx |xxxxxxxxxxxxx |xxxxxxxxxxxxx |       0.7576 |       0.7576 |       0.7576 |xxxxxxxxxxxxx |xxxxxxxxxxxxx |xxxxxxxxxxxxx |xxxxxxxxxxxxx |       0.7580 |       0.7580 |       0.7580 |xxxxxxxxxxxxx |xxxxxxxxxxxxx |xxxxxxxxxxxxx |xxxxxxxxxxxxx |       0.7569 |       0.7569 |       0.7569 |xxxxxxxxxxxxx |xxxxxxxxxxxxx |xxxxxxxxxxxxx |xxxxxxxxxxxxx |       0.7573 |       0.7573 |       0.7573 |xxxxxxxxxxxxx |xxxxxxxxxxxxx |xxxxxxxxxxxxx |xxxxxxxxxxxxx |       0.7563 |       0.7563 |       0.7563 |
bpred_bimod.bpred_dir_rate                  0.7612 |       0.7612 |       0.7612 |xxxxxxxxxxxxx |xxxxxxxxxxxxx |xxxxxxxxxxxxx |xxxxxxxxxxxxx |       0.7614 |       0.7614 |       0.7614 |xxxxxxxxxxxxx |xxxxxxxxxxxxx |xxxxxxxxxxxxx |xxxxxxxxxxxxx |       0.7598 |       0.7598 |       0.7599 |xxxxxxxxxxxxx |xxxxxxxxxxxxx |xxxxxxxxxxxxx |xxxxxxxxxxxxx |       0.7600 |       0.7600 |       0.7600 |xxxxxxxxxxxxx |xxxxxxxxxxxxx |xxxxxxxxxxxxx |xxxxxxxxxxxxx |       0.7589 |       0.7589 |       0.7589 |xxxxxxxxxxxxx |xxxxxxxxxxxxx |xxxxxxxxxxxxx |xxxxxxxxxxxxx |       0.7588 |       0.7588 |       0.7588 |xxxxxxxxxxxxx |xxxxxxxxxxxxx |xxxxxxxxxxxxx |xxxxxxxxxxxxx |       0.7576 |       0.7576 |       0.7576 |xxxxxxxxxxxxx |xxxxxxxxxxxxx |xxxxxxxxxxxxx |xxxxxxxxxxxxx |       0.7580 |       0.7580 |       0.7580 |xxxxxxxxxxxxx |xxxxxxxxxxxxx |xxxxxxxxxxxxx |xxxxxxxxxxxxx |       0.7569 |       0.7569 |       0.7569 |xxxxxxxxxxxxx |xxxxxxxxxxxxx |xxxxxxxxxxxxx |xxxxxxxxxxxxx |       0.7573 |       0.7573 |       0.7573 |xxxxxxxxxxxxx |xxxxxxxxxxxxx |xxxxxxxxxxxxx |xxxxxxxxxxxxx |       0.7563 |       0.7563 |       0.7563 |
bpred_bimod.bpred_jr_rate                   1.0000 |       1.0000 |       1.0000 |xxxxxxxxxxxxx |xxxxxxxxxxxxx |xxxxxxxxxxxxx |xxxxxxxxxxxxx |       0.9726 |       0.9726 |       0.9726 |xxxxxxxxxxxxx |xxxxxxxxxxxxx |xxxxxxxxxxxxx |xxxxxxxxxxxxx |       0.9857 |       0.9857 |       0.9857 |xxxxxxxxxxxxx |xxxxxxxxxxxxx |xxxxxxxxxxxxx |xxxxxxxxxxxxx |       0.9726 |       0.9726 |       0.9726 |xxxxxxxxxxxxx |xxxxxxxxxxxxx |xxxxxxxxxxxxx |xxxxxxxxxxxxx |       0.9857 |       0.9857 |       0.9857 |xxxxxxxxxxxxx |xxxxxxxxxxxxx |xxxxxxxxxxxxx |xxxxxxxxxxxxx |       0.9726 |       0.9726 |       0.9726 |xxxxxxxxxxxxx |xxxxxxxxxxxxx |xxxxxxxxxxxxx |xxxxxxxxxxxxx |       0.9857 |       0.9857 |       0.9857 |xxxxxxxxxxxxx |xxxxxxxxxxxxx |xxxxxxxxxxxxx |xxxxxxxxxxxxx |       0.9726 |       0.9726 |       0.9726 |xxxxxxxxxxxxx |xxxxxxxxxxxxx |xxxxxxxxxxxxx |xxxxxxxxxxxxx |       0.9863 |       0.9863 |       0.9863 |xxxxxxxxxxxxx |xxxxxxxxxxxxx |xxxxxxxxxxxxx |xxxxxxxxxxxxx |       0.9868 |       0.9868 |       0.9868 |xxxxxxxxxxxxx |xxxxxxxxxxxxx |xxxxxxxxxxxxx |xxxxxxxxxxxxx |       0.9863 |       0.9863 |       0.9863 |
bpred_bimod.bpred_jr_non_ras_rate.PP       <error: |      <error: |      <error: |xxxxxxxxxxxxx |xxxxxxxxxxxxx |xxxxxxxxxxxxx |xxxxxxxxxxxxx |       0.0000 |       0.0000 |       0.0000 |xxxxxxxxxxxxx |xxxxxxxxxxxxx |xxxxxxxxxxxxx |xxxxxxxxxxxxx |      <error: |      <error: |      <error: |xxxxxxxxxxxxx |xxxxxxxxxxxxx |xxxxxxxxxxxxx |xxxxxxxxxxxxx |       0.0000 |       0.0000 |       0.0000 |xxxxxxxxxxxxx |xxxxxxxxxxxxx |xxxxxxxxxxxxx |xxxxxxxxxxxxx |      <error: |      <error: |      <error: |xxxxxxxxxxxxx |xxxxxxxxxxxxx |xxxxxxxxxxxxx |xxxxxxxxxxxxx |       0.0000 |       0.0000 |       0.0000 |xxxxxxxxxxxxx |xxxxxxxxxxxxx |xxxxxxxxxxxxx |xxxxxxxxxxxxx |      <error: |      <error: |      <error: |xxxxxxxxxxxxx |xxxxxxxxxxxxx |xxxxxxxxxxxxx |xxxxxxxxxxxxx |       0.0000 |       0.0000 |       0.0000 |xxxxxxxxxxxxx |xxxxxxxxxxxxx |xxxxxxxxxxxxx |xxxxxxxxxxxxx |       0.0000 |       0.0000 |       0.0000 |xxxxxxxxxxxxx |xxxxxxxxxxxxx |xxxxxxxxxxxxx |xxxxxxxxxxxxx |       0.5000 |       0.5000 |       0.5000 |xxxxxxxxxxxxx |xxxxxxxxxxxxx |xxxxxxxxxxxxx |xxxxxxxxxxxxx |       0.0000 |       0.0000 |       0.0000 |
bpred_bimod.retstack_pushes                     63 |           63 |           63 |xxxxxxxxxxxxx |xxxxxxxxxxxxx |xxxxxxxxxxxxx |xxxxxxxxxxxxx |           74 |           74 |           74 |xxxxxxxxxxxxx |xxxxxxxxxxxxx |xxxxxxxxxxxxx |xxxxxxxxxxxxx |           72 |           72 |           72 |xxxxxxxxxxxxx |xxxxxxxxxxxxx |xxxxxxxxxxxxx |xxxxxxxxxxxxx |           74 |           74 |           74 |xxxxxxxxxxxxx |xxxxxxxxxxxxx |xxxxxxxxxxxxx |xxxxxxxxxxxxx |           72 |           72 |           72 |xxxxxxxxxxxxx |xxxxxxxxxxxxx |xxxxxxxxxxxxx |xxxxxxxxxxxxx |           74 |           74 |           74 |xxxxxxxxxxxxx |xxxxxxxxxxxxx |xxxxxxxxxxxxx |xxxxxxxxxxxxx |           72 |           72 |           72 |xxxxxxxxxxxxx |xxxxxxxxxxxxx |xxxxxxxxxxxxx |xxxxxxxxxxxxx |           74 |           74 |           74 |xxxxxxxxxxxxx |xxxxxxxxxxxxx |xxxxxxxxxxxxx |xxxxxxxxxxxxx |           74 |           74 |           74 |xxxxxxxxxxxxx |xxxxxxxxxxxxx |xxxxxxxxxxxxx |xxxxxxxxxxxxx |           76 |           76 |           76 |xxxxxxxxxxxxx |xxxxxxxxxxxxx |xxxxxxxxxxxxx |xxxxxxxxxxxxx |           74 |           74 |           74 |
bpred_bimod.retstack_pops                       61 |           61 |           61 |xxxxxxxxxxxxx |xxxxxxxxxxxxx |xxxxxxxxxxxxx |xxxxxxxxxxxxx |           72 |           72 |           72 |xxxxxxxxxxxxx |xxxxxxxxxxxxx |xxxxxxxxxxxxx |xxxxxxxxxxxxx |           70 |           70 |           70 |xxxxxxxxxxxxx |xxxxxxxxxxxxx |xxxxxxxxxxxxx |xxxxxxxxxxxxx |           72 |           72 |           72 |xxxxxxxxxxxxx |xxxxxxxxxxxxx |xxxxxxxxxxxxx |xxxxxxxxxxxxx |           70 |           70 |           70 |xxxxxxxxxxxxx |xxxxxxxxxxxxx |xxxxxxxxxxxxx |xxxxxxxxxxxxx |           72 |           72 |           72 |xxxxxxxxxxxxx |xxxxxxxxxxxxx |xxxxxxxxxxxxx |xxxxxxxxxxxxx |           70 |           70 |           70 |xxxxxxxxxxxxx |xxxxxxxxxxxxx |xxxxxxxxxxxxx |xxxxxxxxxxxxx |           72 |           72 |           72 |xxxxxxxxxxxxx |xxxxxxxxxxxxx |xxxxxxxxxxxxx |xxxxxxxxxxxxx |           72 |           72 |           72 |xxxxxxxxxxxxx |xxxxxxxxxxxxx |xxxxxxxxxxxxx |xxxxxxxxxxxxx |           74 |           74 |           74 |xxxxxxxxxxxxx |xxxxxxxxxxxxx |xxxxxxxxxxxxx |xxxxxxxxxxxxx |           72 |           72 |           72 |
bpred_bimod.used_ras.PP                         61 |           61 |           61 |xxxxxxxxxxxxx |xxxxxxxxxxxxx |xxxxxxxxxxxxx |xxxxxxxxxxxxx |           72 |           72 |           72 |xxxxxxxxxxxxx |xxxxxxxxxxxxx |xxxxxxxxxxxxx |xxxxxxxxxxxxx |           70 |           70 |           70 |xxxxxxxxxxxxx |xxxxxxxxxxxxx |xxxxxxxxxxxxx |xxxxxxxxxxxxx |           72 |           72 |           72 |xxxxxxxxxxxxx |xxxxxxxxxxxxx |xxxxxxxxxxxxx |xxxxxxxxxxxxx |           70 |           70 |           70 |xxxxxxxxxxxxx |xxxxxxxxxxxxx |xxxxxxxxxxxxx |xxxxxxxxxxxxx |           72 |           72 |           72 |xxxxxxxxxxxxx |xxxxxxxxxxxxx |xxxxxxxxxxxxx |xxxxxxxxxxxxx |           70 |           70 |           70 |xxxxxxxxxxxxx |xxxxxxxxxxxxx |xxxxxxxxxxxxx |xxxxxxxxxxxxx |           72 |           72 |           72 |xxxxxxxxxxxxx |xxxxxxxxxxxxx |xxxxxxxxxxxxx |xxxxxxxxxxxxx |           72 |           72 |           72 |xxxxxxxxxxxxx |xxxxxxxxxxxxx |xxxxxxxxxxxxx |xxxxxxxxxxxxx |           74 |           74 |           74 |xxxxxxxxxxxxx |xxxxxxxxxxxxx |xxxxxxxxxxxxx |xxxxxxxxxxxxx |           72 |           72 |           72 |
bpred_bimod.ras_hits.PP                         61 |           61 |           61 |xxxxxxxxxxxxx |xxxxxxxxxxxxx |xxxxxxxxxxxxx |xxxxxxxxxxxxx |           71 |           71 |           71 |xxxxxxxxxxxxx |xxxxxxxxxxxxx |xxxxxxxxxxxxx |xxxxxxxxxxxxx |           69 |           69 |           69 |xxxxxxxxxxxxx |xxxxxxxxxxxxx |xxxxxxxxxxxxx |xxxxxxxxxxxxx |           71 |           71 |           71 |xxxxxxxxxxxxx |xxxxxxxxxxxxx |xxxxxxxxxxxxx |xxxxxxxxxxxxx |           69 |           69 |           69 |xxxxxxxxxxxxx |xxxxxxxxxxxxx |xxxxxxxxxxxxx |xxxxxxxxxxxxx |           71 |           71 |           71 |xxxxxxxxxxxxx |xxxxxxxxxxxxx |xxxxxxxxxxxxx |xxxxxxxxxxxxx |           69 |           69 |           69 |xxxxxxxxxxxxx |xxxxxxxxxxxxx |xxxxxxxxxxxxx |xxxxxxxxxxxxx |           71 |           71 |           71 |xxxxxxxxxxxxx |xxxxxxxxxxxxx |xxxxxxxxxxxxx |xxxxxxxxxxxxx |           72 |           72 |           72 |xxxxxxxxxxxxx |xxxxxxxxxxxxx |xxxxxxxxxxxxx |xxxxxxxxxxxxx |           74 |           74 |           74 |xxxxxxxxxxxxx |xxxxxxxxxxxxx |xxxxxxxxxxxxx |xxxxxxxxxxxxx |           72 |           72 |           72 |
bpred_bimod.ras_rate.PP                     1.0000 |       1.0000 |       1.0000 |xxxxxxxxxxxxx |xxxxxxxxxxxxx |xxxxxxxxxxxxx |xxxxxxxxxxxxx |       0.9861 |       0.9861 |       0.9861 |xxxxxxxxxxxxx |xxxxxxxxxxxxx |xxxxxxxxxxxxx |xxxxxxxxxxxxx |       0.9857 |       0.9857 |       0.9857 |xxxxxxxxxxxxx |xxxxxxxxxxxxx |xxxxxxxxxxxxx |xxxxxxxxxxxxx |       0.9861 |       0.9861 |       0.9861 |xxxxxxxxxxxxx |xxxxxxxxxxxxx |xxxxxxxxxxxxx |xxxxxxxxxxxxx |       0.9857 |       0.9857 |       0.9857 |xxxxxxxxxxxxx |xxxxxxxxxxxxx |xxxxxxxxxxxxx |xxxxxxxxxxxxx |       0.9861 |       0.9861 |       0.9861 |xxxxxxxxxxxxx |xxxxxxxxxxxxx |xxxxxxxxxxxxx |xxxxxxxxxxxxx |       0.9857 |       0.9857 |       0.9857 |xxxxxxxxxxxxx |xxxxxxxxxxxxx |xxxxxxxxxxxxx |xxxxxxxxxxxxx |       0.9861 |       0.9861 |       0.9861 |xxxxxxxxxxxxx |xxxxxxxxxxxxx |xxxxxxxxxxxxx |xxxxxxxxxxxxx |       1.0000 |       1.0000 |       1.0000 |xxxxxxxxxxxxx |xxxxxxxxxxxxx |xxxxxxxxxxxxx |xxxxxxxxxxxxx |       1.0000 |       1.0000 |       1.0000 |xxxxxxxxxxxxx |xxxxxxxxxxxxx |xxxxxxxxxxxxx |xxxxxxxxxxxxx |       1.0000 |       1.0000 |       1.0000 |
bpred_2lev.lookups                   xxxxxxxxxxxxx |xxxxxxxxxxxxx |xxxxxxxxxxxxx |       109369 |       109369 |       109369 |       109369 |xxxxxxxxxxxxx |xxxxxxxxxxxxx |xxxxxxxxxxxxx |       235328 |       235328 |       235328 |       235328 |xxxxxxxxxxxxx |xxxxxxxxxxxxx |xxxxxxxxxxxxx |       500705 |       500705 |       500705 |       500705 |xxxxxxxxxxxxx |xxxxxxxxxxxxx |xxxxxxxxxxxxx |      1069899 |      1069899 |      1069899 |      1069899 |xxxxxxxxxxxxx |xxxxxxxxxxxxx |xxxxxxxxxxxxx |      2262146 |      2262146 |      2262146 |      2262146 |xxxxxxxxxxxxx |xxxxxxxxxxxxx |xxxxxxxxxxxxx |      4801016 |      4801016 |      4801016 |      4801016 |xxxxxxxxxxxxx |xxxxxxxxxxxxx |xxxxxxxxxxxxx |     10093525 |     10093525 |     10093525 |     10093525 |xxxxxxxxxxxxx |xxxxxxxxxxxxx |xxxxxxxxxxxxx |     21299718 |     21299718 |     21299718 |     21299718 |xxxxxxxxxxxxx |xxxxxxxxxxxxx |xxxxxxxxxxxxx |     44566835 |     44566835 |     44566835 |     44566835 |xxxxxxxxxxxxx |xxxxxxxxxxxxx |xxxxxxxxxxxxx |     93587577 |     93587577 |     93587577 |     93587577 |xxxxxxxxxxxxx |xxxxxxxxxxxxx |xxxxxxxxxxxxx |    195041019 |    195041019 |    195041019 |    195041019 |
[...]
bpred_2lev.bpred_jr_non_ras_rate.PP  xxxxxxxxxxxxx |xxxxxxxxxxxxx |xxxxxxxxxxxxx |      <error: |      <error: |      <error: |      <error: |xxxxxxxxxxxxx |xxxxxxxxxxxxx |xxxxxxxxxxxxx |       0.0000 |       0.0000 |       0.0000 |       0.0000 |xxxxxxxxxxxxx |xxxxxxxxxxxxx |xxxxxxxxxxxxx |      <error: |      <error: |      <error: |      <error: |xxxxxxxxxxxxx |xxxxxxxxxxxxx |xxxxxxxxxxxxx |       0.0000 |       0.0000 |       0.0000 |       0.0000 |xxxxxxxxxxxxx |xxxxxxxxxxxxx |xxxxxxxxxxxxx |      <error: |      <error: |      <error: |      <error: |xxxxxxxxxxxxx |xxxxxxxxxxxxx |xxxxxxxxxxxxx |       0.0000 |       0.0000 |       0.0000 |       0.0000 |xxxxxxxxxxxxx |xxxxxxxxxxxxx |xxxxxxxxxxxxx |      <error: |      <error: |      <error: |      <error: |xxxxxxxxxxxxx |xxxxxxxxxxxxx |xxxxxxxxxxxxx |       0.0000 |       0.0000 |       0.0000 |       0.0000 |xxxxxxxxxxxxx |xxxxxxxxxxxxx |xxxxxxxxxxxxx |       0.0000 |       0.0000 |       0.0000 |       0.0000 |xxxxxxxxxxxxx |xxxxxxxxxxxxx |xxxxxxxxxxxxx |       0.5000 |       0.5000 |       0.5000 |       0.5000 |xxxxxxxxxxxxx |xxxxxxxxxxxxx |xxxxxxxxxxxxx |       0.0000 |       0.0000 |       0.0000 |       0.0000 |
bpred_2lev.retstack_pushes           xxxxxxxxxxxxx |xxxxxxxxxxxxx |xxxxxxxxxxxxx |           63 |           63 |           63 |           63 |xxxxxxxxxxxxx |xxxxxxxxxxxxx |xxxxxxxxxxxxx |           74 |           74 |           74 |           74 |xxxxxxxxxxxxx |xxxxxxxxxxxxx |xxxxxxxxxxxxx |           72 |           72 |           72 |           72 |xxxxxxxxxxxxx |xxxxxxxxxxxxx |xxxxxxxxxxxxx |           74 |           74 |           74 |           74 |xxxxxxxxxxxxx |xxxxxxxxxxxxx |xxxxxxxxxxxxx |           72 |           72 |           72 |           72 |xxxxxxxxxxxxx |xxxxxxxxxxxxx |xxxxxxxxxxxxx |           74 |           74 |           74 |           74 |xxxxxxxxxxxxx |xxxxxxxxxxxxx |xxxxxxxxxxxxx |           72 |           72 |           72 |           72 |xxxxxxxxxxxxx |xxxxxxxxxxxxx |xxxxxxxxxxxxx |           74 |           74 |           74 |           74 |xxxxxxxxxxxxx |xxxxxxxxxxxxx |xxxxxxxxxxxxx |           74 |           74 |           74 |           74 |xxxxxxxxxxxxx |xxxxxxxxxxxxx |xxxxxxxxxxxxx |           76 |           76 |           76 |           76 |xxxxxxxxxxxxx |xxxxxxxxxxxxx |xxxxxxxxxxxxx |           74 |           74 |           74 |           74 |
bpred_2lev.retstack_pops             xxxxxxxxxxxxx |xxxxxxxxxxxxx |xxxxxxxxxxxxx |           61 |           61 |           61 |           61 |xxxxxxxxxxxxx |xxxxxxxxxxxxx |xxxxxxxxxxxxx |           72 |           72 |           72 |           72 |xxxxxxxxxxxxx |xxxxxxxxxxxxx |xxxxxxxxxxxxx |           70 |           70 |           70 |           70 |xxxxxxxxxxxxx |xxxxxxxxxxxxx |xxxxxxxxxxxxx |           72 |           72 |           72 |           72 |xxxxxxxxxxxxx |xxxxxxxxxxxxx |xxxxxxxxxxxxx |           70 |           70 |           70 |           70 |xxxxxxxxxxxxx |xxxxxxxxxxxxx |xxxxxxxxxxxxx |           72 |           72 |           72 |           72 |xxxxxxxxxxxxx |xxxxxxxxxxxxx |xxxxxxxxxxxxx |           70 |           70 |           70 |           70 |xxxxxxxxxxxxx |xxxxxxxxxxxxx |xxxxxxxxxxxxx |           72 |           72 |           72 |           72 |xxxxxxxxxxxxx |xxxxxxxxxxxxx |xxxxxxxxxxxxx |           72 |           72 |           72 |           72 |xxxxxxxxxxxxx |xxxxxxxxxxxxx |xxxxxxxxxxxxx |           74 |           74 |           74 |           74 |xxxxxxxxxxxxx |xxxxxxxxxxxxx |xxxxxxxxxxxxx |           72 |           72 |           72 |           72 |
bpred_2lev.used_ras.PP               xxxxxxxxxxxxx |xxxxxxxxxxxxx |xxxxxxxxxxxxx |           61 |           61 |           61 |           61 |xxxxxxxxxxxxx |xxxxxxxxxxxxx |xxxxxxxxxxxxx |           72 |           72 |           72 |           72 |xxxxxxxxxxxxx |xxxxxxxxxxxxx |xxxxxxxxxxxxx |           70 |           70 |           70 |           70 |xxxxxxxxxxxxx |xxxxxxxxxxxxx |xxxxxxxxxxxxx |           72 |           72 |           72 |           72 |xxxxxxxxxxxxx |xxxxxxxxxxxxx |xxxxxxxxxxxxx |           70 |           70 |           70 |           70 |xxxxxxxxxxxxx |xxxxxxxxxxxxx |xxxxxxxxxxxxx |           72 |           72 |           72 |           72 |xxxxxxxxxxxxx |xxxxxxxxxxxxx |xxxxxxxxxxxxx |           70 |           70 |           70 |           70 |xxxxxxxxxxxxx |xxxxxxxxxxxxx |xxxxxxxxxxxxx |           72 |           72 |           72 |           72 |xxxxxxxxxxxxx |xxxxxxxxxxxxx |xxxxxxxxxxxxx |           72 |           72 |           72 |           72 |xxxxxxxxxxxxx |xxxxxxxxxxxxx |xxxxxxxxxxxxx |           74 |           74 |           74 |           74 |xxxxxxxxxxxxx |xxxxxxxxxxxxx |xxxxxxxxxxxxx |           72 |           72 |           72 |           72 |
bpred_2lev.ras_hits.PP               xxxxxxxxxxxxx |xxxxxxxxxxxxx |xxxxxxxxxxxxx |           61 |           61 |           61 |           61 |xxxxxxxxxxxxx |xxxxxxxxxxxxx |xxxxxxxxxxxxx |           71 |           71 |           71 |           71 |xxxxxxxxxxxxx |xxxxxxxxxxxxx |xxxxxxxxxxxxx |           69 |           69 |           69 |           69 |xxxxxxxxxxxxx |xxxxxxxxxxxxx |xxxxxxxxxxxxx |           71 |           71 |           71 |           71 |xxxxxxxxxxxxx |xxxxxxxxxxxxx |xxxxxxxxxxxxx |           69 |           69 |           69 |           69 |xxxxxxxxxxxxx |xxxxxxxxxxxxx |xxxxxxxxxxxxx |           71 |           71 |           71 |           71 |xxxxxxxxxxxxx |xxxxxxxxxxxxx |xxxxxxxxxxxxx |           69 |           69 |           69 |           69 |xxxxxxxxxxxxx |xxxxxxxxxxxxx |xxxxxxxxxxxxx |           71 |           71 |           71 |           71 |xxxxxxxxxxxxx |xxxxxxxxxxxxx |xxxxxxxxxxxxx |           72 |           72 |           72 |           72 |xxxxxxxxxxxxx |xxxxxxxxxxxxx |xxxxxxxxxxxxx |           74 |           74 |           74 |           74 |xxxxxxxxxxxxx |xxxxxxxxxxxxx |xxxxxxxxxxxxx |           72 |           72 |           72 |           72 |
bpred_2lev.ras_rate.PP               xxxxxxxxxxxxx |xxxxxxxxxxxxx |xxxxxxxxxxxxx |       1.0000 |       1.0000 |       1.0000 |       1.0000 |xxxxxxxxxxxxx |xxxxxxxxxxxxx |xxxxxxxxxxxxx |       0.9861 |       0.9861 |       0.9861 |       0.9861 |xxxxxxxxxxxxx |xxxxxxxxxxxxx |xxxxxxxxxxxxx |       0.9857 |       0.9857 |       0.9857 |       0.9857 |xxxxxxxxxxxxx |xxxxxxxxxxxxx |xxxxxxxxxxxxx |       0.9861 |       0.9861 |       0.9861 |       0.9861 |xxxxxxxxxxxxx |xxxxxxxxxxxxx |xxxxxxxxxxxxx |       0.9857 |       0.9857 |       0.9857 |       0.9857 |xxxxxxxxxxxxx |xxxxxxxxxxxxx |xxxxxxxxxxxxx |       0.9861 |       0.9861 |       0.9861 |       0.9861 |xxxxxxxxxxxxx |xxxxxxxxxxxxx |xxxxxxxxxxxxx |       0.9857 |       0.9857 |       0.9857 |       0.9857 |xxxxxxxxxxxxx |xxxxxxxxxxxxx |xxxxxxxxxxxxx |       0.9861 |       0.9861 |       0.9861 |       0.9861 |xxxxxxxxxxxxx |xxxxxxxxxxxxx |xxxxxxxxxxxxx |       1.0000 |       1.0000 |       1.0000 |       1.0000 |xxxxxxxxxxxxx |xxxxxxxxxxxxx |xxxxxxxxxxxxx |       1.0000 |       1.0000 |       1.0000 |       1.0000 |xxxxxxxxxxxxx |xxxxxxxxxxxxx |xxxxxxxxxxxxx |       1.0000 |       1.0000 |       1.0000 |       1.0000 |

Command list: 
	sslittle-na-sstrix-gcc -Wall -O3 -funroll-loops -finline-functions  -DRANDOM_SIZE=4096 -DOFFSET=9 -DSORT=algorithm_s sorts/algorithm_s91390553.c simpleMain.c -o algorithm_s2024857551
	sim-cache -cache:dl1 dl1:256:32:1:l -cache:dl2 dl2:131072:32:1:l -cache:il1 il1:256:32:1:l -cache:il2 dl2 algorithm_s2024857551
	sim-cache -cache:dl1 dl1:256:32:1:l -cache:dl2 dl2:65536:32:1:l -cache:il1 il1:256:32:1:l -cache:il2 dl2 algorithm_s2024857551
	sim-cache -cache:dl1 dl1:1:32:256:l -cache:dl2 dl2:1:32:131072:l -cache:il1 il1:1:32:256:l -cache:il2 dl2 algorithm_s2024857551
	sim-cache -cache:dl1 dl1:1:32:256:l -cache:dl2 dl2:1:32:65536:l -cache:il1 il1:1:32:256:l -cache:il2 dl2 algorithm_s2024857551
	sim-bpred -bpred bimod -bpred:bimod 512 algorithm_s2024857551
	sim-bpred -bpred bimod -bpred:bimod 1024 algorithm_s2024857551
	sim-bpred -bpred bimod -bpred:bimod 2048 algorithm_s2024857551
	sim-bpred -bpred 2lev -bpred:2lev 1 512 10 1 algorithm_s2024857551
	sim-bpred -bpred 2lev -bpred:2lev 1 1024 10 1 algorithm_s2024857551
	sim-bpred -bpred 2lev -bpred:2lev 1 2048 10 1 algorithm_s2024857551
	sim-bpred -bpred 2lev -bpred:2lev 1 4096 10 1 algorithm_s2024857551
	sslittle-na-sstrix-gcc -Wall -O3 -funroll-loops -finline-functions  -DRANDOM_SIZE=8192 -DOFFSET=9 -DSORT=algorithm_s sorts/algorithm_s91390553.c simpleMain.c -o algorithm_s2024857551
	sim-cache -cache:dl1 dl1:256:32:1:l -cache:dl2 dl2:131072:32:1:l -cache:il1 il1:256:32:1:l -cache:il2 dl2 algorithm_s2024857551
	sim-cache -cache:dl1 dl1:256:32:1:l -cache:dl2 dl2:65536:32:1:l -cache:il1 il1:256:32:1:l -cache:il2 dl2 algorithm_s2024857551
	sim-cache -cache:dl1 dl1:1:32:256:l -cache:dl2 dl2:1:32:131072:l -cache:il1 il1:1:32:256:l -cache:il2 dl2 algorithm_s2024857551
	sim-cache -cache:dl1 dl1:1:32:256:l -cache:dl2 dl2:1:32:65536:l -cache:il1 il1:1:32:256:l -cache:il2 dl2 algorithm_s2024857551
	sim-bpred -bpred bimod -bpred:bimod 512 algorithm_s2024857551
	sim-bpred -bpred bimod -bpred:bimod 1024 algorithm_s2024857551
	sim-bpred -bpred bimod -bpred:bimod 2048 algorithm_s2024857551
	sim-bpred -bpred 2lev -bpred:2lev 1 512 10 1 algorithm_s2024857551
	sim-bpred -bpred 2lev -bpred:2lev 1 1024 10 1 algorithm_s2024857551
	sim-bpred -bpred 2lev -bpred:2lev 1 2048 10 1 algorithm_s2024857551
	sim-bpred -bpred 2lev -bpred:2lev 1 4096 10 1 algorithm_s2024857551
	sslittle-na-sstrix-gcc -Wall -O3 -funroll-loops -finline-functions  -DRANDOM_SIZE=16384 -DOFFSET=9 -DSORT=algorithm_s sorts/algorithm_s91390553.c simpleMain.c -o algorithm_s2024857551
	sim-cache -cache:dl1 dl1:256:32:1:l -cache:dl2 dl2:131072:32:1:l -cache:il1 il1:256:32:1:l -cache:il2 dl2 algorithm_s2024857551
	sim-cache -cache:dl1 dl1:256:32:1:l -cache:dl2 dl2:65536:32:1:l -cache:il1 il1:256:32:1:l -cache:il2 dl2 algorithm_s2024857551
	sim-cache -cache:dl1 dl1:1:32:256:l -cache:dl2 dl2:1:32:131072:l -cache:il1 il1:1:32:256:l -cache:il2 dl2 algorithm_s2024857551
	sim-cache -cache:dl1 dl1:1:32:256:l -cache:dl2 dl2:1:32:65536:l -cache:il1 il1:1:32:256:l -cache:il2 dl2 algorithm_s2024857551
	sim-bpred -bpred bimod -bpred:bimod 512 algorithm_s2024857551
	sim-bpred -bpred bimod -bpred:bimod 1024 algorithm_s2024857551
	sim-bpred -bpred bimod -bpred:bimod 2048 algorithm_s2024857551
	sim-bpred -bpred 2lev -bpred:2lev 1 512 10 1 algorithm_s2024857551
	sim-bpred -bpred 2lev -bpred:2lev 1 1024 10 1 algorithm_s2024857551
	sim-bpred -bpred 2lev -bpred:2lev 1 2048 10 1 algorithm_s2024857551
	sim-bpred -bpred 2lev -bpred:2lev 1 4096 10 1 algorithm_s2024857551
	sslittle-na-sstrix-gcc -Wall -O3 -funroll-loops -finline-functions  -DRANDOM_SIZE=32768 -DOFFSET=9 -DSORT=algorithm_s sorts/algorithm_s91390553.c simpleMain.c -o algorithm_s2024857551
	sim-cache -cache:dl1 dl1:256:32:1:l -cache:dl2 dl2:131072:32:1:l -cache:il1 il1:256:32:1:l -cache:il2 dl2 algorithm_s2024857551
	sim-cache -cache:dl1 dl1:256:32:1:l -cache:dl2 dl2:65536:32:1:l -cache:il1 il1:256:32:1:l -cache:il2 dl2 algorithm_s2024857551
	sim-cache -cache:dl1 dl1:1:32:256:l -cache:dl2 dl2:1:32:131072:l -cache:il1 il1:1:32:256:l -cache:il2 dl2 algorithm_s2024857551
	sim-cache -cache:dl1 dl1:1:32:256:l -cache:dl2 dl2:1:32:65536:l -cache:il1 il1:1:32:256:l -cache:il2 dl2 algorithm_s2024857551
	sim-bpred -bpred bimod -bpred:bimod 512 algorithm_s2024857551
	sim-bpred -bpred bimod -bpred:bimod 1024 algorithm_s2024857551
	sim-bpred -bpred bimod -bpred:bimod 2048 algorithm_s2024857551
	sim-bpred -bpred 2lev -bpred:2lev 1 512 10 1 algorithm_s2024857551
	sim-bpred -bpred 2lev -bpred:2lev 1 1024 10 1 algorithm_s2024857551
	sim-bpred -bpred 2lev -bpred:2lev 1 2048 10 1 algorithm_s2024857551
	sim-bpred -bpred 2lev -bpred:2lev 1 4096 10 1 algorithm_s2024857551
	sslittle-na-sstrix-gcc -Wall -O3 -funroll-loops -finline-functions  -DRANDOM_SIZE=65536 -DOFFSET=9 -DSORT=algorithm_s sorts/algorithm_s91390553.c simpleMain.c -o algorithm_s2024857551
	sim-cache -cache:dl1 dl1:256:32:1:l -cache:dl2 dl2:131072:32:1:l -cache:il1 il1:256:32:1:l -cache:il2 dl2 algorithm_s2024857551
	sim-cache -cache:dl1 dl1:256:32:1:l -cache:dl2 dl2:65536:32:1:l -cache:il1 il1:256:32:1:l -cache:il2 dl2 algorithm_s2024857551
	sim-cache -cache:dl1 dl1:1:32:256:l -cache:dl2 dl2:1:32:131072:l -cache:il1 il1:1:32:256:l -cache:il2 dl2 algorithm_s2024857551
	sim-cache -cache:dl1 dl1:1:32:256:l -cache:dl2 dl2:1:32:65536:l -cache:il1 il1:1:32:256:l -cache:il2 dl2 algorithm_s2024857551
	sim-bpred -bpred bimod -bpred:bimod 512 algorithm_s2024857551
	sim-bpred -bpred bimod -bpred:bimod 1024 algorithm_s2024857551
	sim-bpred -bpred bimod -bpred:bimod 2048 algorithm_s2024857551
	sim-bpred -bpred 2lev -bpred:2lev 1 512 10 1 algorithm_s2024857551
	sim-bpred -bpred 2lev -bpred:2lev 1 1024 10 1 algorithm_s2024857551
	sim-bpred -bpred 2lev -bpred:2lev 1 2048 10 1 algorithm_s2024857551
	sim-bpred -bpred 2lev -bpred:2lev 1 4096 10 1 algorithm_s2024857551
	sslittle-na-sstrix-gcc -Wall -O3 -funroll-loops -finline-functions  -DRANDOM_SIZE=131072 -DOFFSET=9 -DSORT=algorithm_s sorts/algorithm_s91390553.c simpleMain.c -o algorithm_s2024857551
	sim-cache -cache:dl1 dl1:256:32:1:l -cache:dl2 dl2:131072:32:1:l -cache:il1 il1:256:32:1:l -cache:il2 dl2 algorithm_s2024857551
	sim-cache -cache:dl1 dl1:256:32:1:l -cache:dl2 dl2:65536:32:1:l -cache:il1 il1:256:32:1:l -cache:il2 dl2 algorithm_s2024857551
	sim-cache -cache:dl1 dl1:1:32:256:l -cache:dl2 dl2:1:32:131072:l -cache:il1 il1:1:32:256:l -cache:il2 dl2 algorithm_s2024857551
	sim-cache -cache:dl1 dl1:1:32:256:l -cache:dl2 dl2:1:32:65536:l -cache:il1 il1:1:32:256:l -cache:il2 dl2 algorithm_s2024857551
	sim-bpred -bpred bimod -bpred:bimod 512 algorithm_s2024857551
	sim-bpred -bpred bimod -bpred:bimod 1024 algorithm_s2024857551
	sim-bpred -bpred bimod -bpred:bimod 2048 algorithm_s2024857551
	sim-bpred -bpred 2lev -bpred:2lev 1 512 10 1 algorithm_s2024857551
	sim-bpred -bpred 2lev -bpred:2lev 1 1024 10 1 algorithm_s2024857551
	sim-bpred -bpred 2lev -bpred:2lev 1 2048 10 1 algorithm_s2024857551
	sim-bpred -bpred 2lev -bpred:2lev 1 4096 10 1 algorithm_s2024857551
	sslittle-na-sstrix-gcc -Wall -O3 -funroll-loops -finline-functions  -DRANDOM_SIZE=262144 -DOFFSET=9 -DSORT=algorithm_s sorts/algorithm_s91390553.c simpleMain.c -o algorithm_s2024857551
	sim-cache -cache:dl1 dl1:256:32:1:l -cache:dl2 dl2:131072:32:1:l -cache:il1 il1:256:32:1:l -cache:il2 dl2 algorithm_s2024857551
	sim-cache -cache:dl1 dl1:256:32:1:l -cache:dl2 dl2:65536:32:1:l -cache:il1 il1:256:32:1:l -cache:il2 dl2 algorithm_s2024857551
	sim-cache -cache:dl1 dl1:1:32:256:l -cache:dl2 dl2:1:32:131072:l -cache:il1 il1:1:32:256:l -cache:il2 dl2 algorithm_s2024857551
	sim-cache -cache:dl1 dl1:1:32:256:l -cache:dl2 dl2:1:32:65536:l -cache:il1 il1:1:32:256:l -cache:il2 dl2 algorithm_s2024857551
	sim-bpred -bpred bimod -bpred:bimod 512 algorithm_s2024857551
	sim-bpred -bpred bimod -bpred:bimod 1024 algorithm_s2024857551
	sim-bpred -bpred bimod -bpred:bimod 2048 algorithm_s2024857551
	sim-bpred -bpred 2lev -bpred:2lev 1 512 10 1 algorithm_s2024857551
	sim-bpred -bpred 2lev -bpred:2lev 1 1024 10 1 algorithm_s2024857551
	sim-bpred -bpred 2lev -bpred:2lev 1 2048 10 1 algorithm_s2024857551
	sim-bpred -bpred 2lev -bpred:2lev 1 4096 10 1 algorithm_s2024857551
	sslittle-na-sstrix-gcc -Wall -O3 -funroll-loops -finline-functions  -DRANDOM_SIZE=524288 -DOFFSET=9 -DSORT=algorithm_s sorts/algorithm_s91390553.c simpleMain.c -o algorithm_s2024857551
	sim-cache -cache:dl1 dl1:256:32:1:l -cache:dl2 dl2:131072:32:1:l -cache:il1 il1:256:32:1:l -cache:il2 dl2 algorithm_s2024857551
	sim-cache -cache:dl1 dl1:256:32:1:l -cache:dl2 dl2:65536:32:1:l -cache:il1 il1:256:32:1:l -cache:il2 dl2 algorithm_s2024857551
	sim-cache -cache:dl1 dl1:1:32:256:l -cache:dl2 dl2:1:32:131072:l -cache:il1 il1:1:32:256:l -cache:il2 dl2 algorithm_s2024857551
	sim-cache -cache:dl1 dl1:1:32:256:l -cache:dl2 dl2:1:32:65536:l -cache:il1 il1:1:32:256:l -cache:il2 dl2 algorithm_s2024857551
	sim-bpred -bpred bimod -bpred:bimod 512 algorithm_s2024857551
	sim-bpred -bpred bimod -bpred:bimod 1024 algorithm_s2024857551
	sim-bpred -bpred bimod -bpred:bimod 2048 algorithm_s2024857551
	sim-bpred -bpred 2lev -bpred:2lev 1 512 10 1 algorithm_s2024857551
	sim-bpred -bpred 2lev -bpred:2lev 1 1024 10 1 algorithm_s2024857551
	sim-bpred -bpred 2lev -bpred:2lev 1 2048 10 1 algorithm_s2024857551
	sim-bpred -bpred 2lev -bpred:2lev 1 4096 10 1 algorithm_s2024857551
	sslittle-na-sstrix-gcc -Wall -O3 -funroll-loops -finline-functions  -DRANDOM_SIZE=1048576 -DOFFSET=9 -DSORT=algorithm_s sorts/algorithm_s91390553.c simpleMain.c -o algorithm_s2024857551
	sim-cache -cache:dl1 dl1:256:32:1:l -cache:dl2 dl2:131072:32:1:l -cache:il1 il1:256:32:1:l -cache:il2 dl2 algorithm_s2024857551
	sim-cache -cache:dl1 dl1:256:32:1:l -cache:dl2 dl2:65536:32:1:l -cache:il1 il1:256:32:1:l -cache:il2 dl2 algorithm_s2024857551
	sim-cache -cache:dl1 dl1:1:32:256:l -cache:dl2 dl2:1:32:131072:l -cache:il1 il1:1:32:256:l -cache:il2 dl2 algorithm_s2024857551
	sim-cache -cache:dl1 dl1:1:32:256:l -cache:dl2 dl2:1:32:65536:l -cache:il1 il1:1:32:256:l -cache:il2 dl2 algorithm_s2024857551
	sim-bpred -bpred bimod -bpred:bimod 512 algorithm_s2024857551
	sim-bpred -bpred bimod -bpred:bimod 1024 algorithm_s2024857551
	sim-bpred -bpred bimod -bpred:bimod 2048 algorithm_s2024857551
	sim-bpred -bpred 2lev -bpred:2lev 1 512 10 1 algorithm_s2024857551
	sim-bpred -bpred 2lev -bpred:2lev 1 1024 10 1 algorithm_s2024857551
	sim-bpred -bpred 2lev -bpred:2lev 1 2048 10 1 algorithm_s2024857551
	sim-bpred -bpred 2lev -bpred:2lev 1 4096 10 1 algorithm_s2024857551
	sslittle-na-sstrix-gcc -Wall -O3 -funroll-loops -finline-functions  -DRANDOM_SIZE=2097152 -DOFFSET=9 -DSORT=algorithm_s sorts/algorithm_s91390553.c simpleMain.c -o algorithm_s2024857551
	sim-cache -cache:dl1 dl1:256:32:1:l -cache:dl2 dl2:131072:32:1:l -cache:il1 il1:256:32:1:l -cache:il2 dl2 algorithm_s2024857551
	sim-cache -cache:dl1 dl1:256:32:1:l -cache:dl2 dl2:65536:32:1:l -cache:il1 il1:256:32:1:l -cache:il2 dl2 algorithm_s2024857551
	sim-cache -cache:dl1 dl1:1:32:256:l -cache:dl2 dl2:1:32:131072:l -cache:il1 il1:1:32:256:l -cache:il2 dl2 algorithm_s2024857551
	sim-cache -cache:dl1 dl1:1:32:256:l -cache:dl2 dl2:1:32:65536:l -cache:il1 il1:1:32:256:l -cache:il2 dl2 algorithm_s2024857551
	sim-bpred -bpred bimod -bpred:bimod 512 algorithm_s2024857551
	sim-bpred -bpred bimod -bpred:bimod 1024 algorithm_s2024857551
	sim-bpred -bpred bimod -bpred:bimod 2048 algorithm_s2024857551
	sim-bpred -bpred 2lev -bpred:2lev 1 512 10 1 algorithm_s2024857551
	sim-bpred -bpred 2lev -bpred:2lev 1 1024 10 1 algorithm_s2024857551
	sim-bpred -bpred 2lev -bpred:2lev 1 2048 10 1 algorithm_s2024857551
	sim-bpred -bpred 2lev -bpred:2lev 1 4096 10 1 algorithm_s2024857551
	sslittle-na-sstrix-gcc -Wall -O3 -funroll-loops -finline-functions  -DRANDOM_SIZE=4194304 -DOFFSET=9 -DSORT=algorithm_s sorts/algorithm_s91390553.c simpleMain.c -o algorithm_s2024857551
	sim-cache -cache:dl1 dl1:256:32:1:l -cache:dl2 dl2:131072:32:1:l -cache:il1 il1:256:32:1:l -cache:il2 dl2 algorithm_s2024857551
	sim-cache -cache:dl1 dl1:256:32:1:l -cache:dl2 dl2:65536:32:1:l -cache:il1 il1:256:32:1:l -cache:il2 dl2 algorithm_s2024857551
	sim-cache -cache:dl1 dl1:1:32:256:l -cache:dl2 dl2:1:32:131072:l -cache:il1 il1:1:32:256:l -cache:il2 dl2 algorithm_s2024857551
	sim-cache -cache:dl1 dl1:1:32:256:l -cache:dl2 dl2:1:32:65536:l -cache:il1 il1:1:32:256:l -cache:il2 dl2 algorithm_s2024857551
	sim-bpred -bpred bimod -bpred:bimod 512 algorithm_s2024857551
	sim-bpred -bpred bimod -bpred:bimod 1024 algorithm_s2024857551
	sim-bpred -bpred bimod -bpred:bimod 2048 algorithm_s2024857551
	sim-bpred -bpred 2lev -bpred:2lev 1 512 10 1 algorithm_s2024857551
	sim-bpred -bpred 2lev -bpred:2lev 1 1024 10 1 algorithm_s2024857551
	sim-bpred -bpred 2lev -bpred:2lev 1 2048 10 1 algorithm_s2024857551
	sim-bpred -bpred 2lev -bpred:2lev 1 4096 10 1 algorithm_s2024857551
