Mon Jun 27 07:00:53 2005
Run as: "./do_simple -c random.org2 -o 2 algorithm_n"
-------------------------------------------------------------------------------------------------
sim-cache                                     4096 |         4096 |         4096 |         4096 |         8192 |         8192 |         8192 |         8192 |        16384 |        16384 |        16384 |        16384 |        32768 |        32768 |        32768 |        32768 |        65536 |        65536 |        65536 |        65536 |       131072 |       131072 |       131072 |       131072 |       262144 |       262144 |       262144 |       262144 |       524288 |       524288 |       524288 |       524288 |      1048576 |      1048576 |      1048576 |      1048576 |      2097152 |      2097152 |      2097152 |      2097152 |      4194304 |      4194304 |      4194304 |      4194304 |
-cache:dl1 dl1:256:32:1:l -cache:dl2 dl2:131072:32:1:l -cache:il1 il1:256:32:1:l -cache:il2 dl2
-cache:dl1 dl1:256:32:1:l -cache:dl2 dl2:65536:32:1:l -cache:il1 il1:256:32:1:l -cache:il2 dl2
-cache:dl1 dl1:1:32:256:l -cache:dl2 dl2:1:32:131072:l -cache:il1 il1:1:32:256:l -cache:il2 dl2
-cache:dl1 dl1:1:32:256:l -cache:dl2 dl2:1:32:65536:l -cache:il1 il1:1:32:256:l -cache:il2 dl2
-------------------------------------------------------------------------------------------------
sim_num_insn                                891920 |       891920 |       891920 |       891920 |      1916674 |      1916674 |      1916674 |      1916674 |      4186402 |      4186402 |      4186402 |      4186402 |      8923562 |      8923562 |      8923562 |      8923562 |     19281830 |     19281830 |     19281830 |     19281830 |     40785215 |     40785215 |     40785215 |     40785215 |     87329854 |     87329854 |     87329854 |     87329854 |    183571322 |    183571322 |    183571322 |    183571322 |    390206685 |    390206685 |    390206685 |    390206685 |    816062307 |    816062307 |    816062307 |    816062307 |   1724391334 |   1724391334 |   1724391334 |   1724391334 |
sim_num_refs                                234149 |       234149 |       234149 |       234149 |       489158 |       489158 |       489158 |       489158 |      1089117 |      1089117 |      1089117 |      1089117 |      2272891 |      2272891 |      2272891 |      2272891 |      5000655 |      5000655 |      5000655 |      5000655 |     10390363 |     10390363 |     10390363 |     10390363 |     22611983 |     22611983 |     22611983 |     22611983 |     46794243 |     46794243 |     46794243 |     46794243 |    100931665 |    100931665 |    100931665 |    100931665 |    208149319 |    208149319 |    208149319 |    208149319 |    445652965 |    445652965 |    445652965 |    445652965 |
sim_elapsed_time                                 1 |            1 |            9 |            5 |            1 |            1 |           14 |            7 |            1 |            1 |           25 |           13 |            2 |            3 |           45 |           23 |            5 |            5 |           84 |           42 |           10 |           10 |          154 |           72 |           22 |           22 |          267 |          103 |           46 |           46 |          371 |          131 |           99 |           99 |          431 |          190 |          206 |          206 |          552 |          311 |          436 |          436 |          815 |          573 |
sim_inst_rate                          891920.0000 |  891920.0000 |   99102.2222 |  178384.0000 | 1916674.0000 | 1916674.0000 |  136905.2857 |  273810.5714 | 4186402.0000 | 4186402.0000 |  167456.0800 |  322030.9231 | 4461781.0000 | 2974520.6667 |  198301.3778 |  387980.9565 | 3856366.0000 | 3856366.0000 |  229545.5952 |  459091.1905 | 4078521.5000 | 4078521.5000 |  264839.0584 |  566461.3194 | 3969538.8182 | 3969538.8182 |  327078.1049 |  847862.6602 | 3990680.9130 | 3990680.9130 |  494801.4070 | 1401307.8015 | 3941481.6667 | 3941481.6667 |  905351.9374 | 2053719.3947 | 3961467.5097 | 3961467.5097 | 1478373.7446 | 2623994.5563 | 3955025.9954 | 3955025.9954 | 2115817.5877 | 3009408.9599 |
il1.accesses                                891920 |       891920 |       891920 |       891920 |      1916674 |      1916674 |      1916674 |      1916674 |      4186402 |      4186402 |      4186402 |      4186402 |      8923562 |      8923562 |      8923562 |      8923562 |     19281830 |     19281830 |     19281830 |     19281830 |     40785215 |     40785215 |     40785215 |     40785215 |     87329854 |     87329854 |     87329854 |     87329854 |    183571322 |    183571322 |    183571322 |    183571322 |    390206685 |    390206685 |    390206685 |    390206685 |    816062307 |    816062307 |    816062307 |    816062307 |   1724391334 |   1724391334 |   1724391334 |   1724391334 |
il1.hits                                    891487 |       891487 |       891552 |       891552 |      1916230 |      1916230 |      1916339 |      1916339 |      4185945 |      4185945 |      4186042 |      4186042 |      8923115 |      8923115 |      8923225 |      8923225 |     19281360 |     19281360 |     19281470 |     19281470 |     40784769 |     40784769 |     40784878 |     40784878 |     87329385 |     87329385 |     87329494 |     87329494 |    183570876 |    183570876 |    183570985 |    183570985 |    390206208 |    390206208 |    390206285 |    390206285 |    816061837 |    816061837 |    816061911 |    816061911 |   1724390857 |   1724390857 |   1724390934 |   1724390934 |
il1.misses                                     433 |          433 |          368 |          368 |          444 |          444 |          335 |          335 |          457 |          457 |          360 |          360 |          447 |          447 |          337 |          337 |          470 |          470 |          360 |          360 |          446 |          446 |          337 |          337 |          469 |          469 |          360 |          360 |          446 |          446 |          337 |          337 |          477 |          477 |          400 |          400 |          470 |          470 |          396 |          396 |          477 |          477 |          400 |          400 |
il1.replacements                               226 |          226 |          112 |          112 |          262 |          262 |           79 |           79 |          256 |          256 |          104 |          104 |          265 |          265 |           81 |           81 |          269 |          269 |          104 |          104 |          264 |          264 |           81 |           81 |          268 |          268 |          104 |          104 |          264 |          264 |           81 |           81 |          256 |          256 |          144 |          144 |          249 |          249 |          140 |          140 |          256 |          256 |          144 |          144 |
il1.writebacks                                   0 |            0 |            0 |            0 |            0 |            0 |            0 |            0 |            0 |            0 |            0 |            0 |            0 |            0 |            0 |            0 |            0 |            0 |            0 |            0 |            0 |            0 |            0 |            0 |            0 |            0 |            0 |            0 |            0 |            0 |            0 |            0 |            0 |            0 |            0 |            0 |            0 |            0 |            0 |            0 |            0 |            0 |            0 |            0 |
il1.invalidations                                0 |            0 |            0 |            0 |            0 |            0 |            0 |            0 |            0 |            0 |            0 |            0 |            0 |            0 |            0 |            0 |            0 |            0 |            0 |            0 |            0 |            0 |            0 |            0 |            0 |            0 |            0 |            0 |            0 |            0 |            0 |            0 |            0 |            0 |            0 |            0 |            0 |            0 |            0 |            0 |            0 |            0 |            0 |            0 |
il1.miss_rate                               0.0005 |       0.0005 |       0.0004 |       0.0004 |       0.0002 |       0.0002 |       0.0002 |       0.0002 |       0.0001 |       0.0001 |       0.0001 |       0.0001 |       0.0001 |       0.0001 |       0.0000 |       0.0000 |       0.0000 |       0.0000 |       0.0000 |       0.0000 |       0.0000 |       0.0000 |       0.0000 |       0.0000 |       0.0000 |       0.0000 |       0.0000 |       0.0000 |       0.0000 |       0.0000 |       0.0000 |       0.0000 |       0.0000 |       0.0000 |       0.0000 |       0.0000 |       0.0000 |       0.0000 |       0.0000 |       0.0000 |       0.0000 |       0.0000 |       0.0000 |       0.0000 |
il1.repl_rate                               0.0003 |       0.0003 |       0.0001 |       0.0001 |       0.0001 |       0.0001 |       0.0000 |       0.0000 |       0.0001 |       0.0001 |       0.0000 |       0.0000 |       0.0000 |       0.0000 |       0.0000 |       0.0000 |       0.0000 |       0.0000 |       0.0000 |       0.0000 |       0.0000 |       0.0000 |       0.0000 |       0.0000 |       0.0000 |       0.0000 |       0.0000 |       0.0000 |       0.0000 |       0.0000 |       0.0000 |       0.0000 |       0.0000 |       0.0000 |       0.0000 |       0.0000 |       0.0000 |       0.0000 |       0.0000 |       0.0000 |       0.0000 |       0.0000 |       0.0000 |       0.0000 |
il1.wb_rate                                 0.0000 |       0.0000 |       0.0000 |       0.0000 |       0.0000 |       0.0000 |       0.0000 |       0.0000 |       0.0000 |       0.0000 |       0.0000 |       0.0000 |       0.0000 |       0.0000 |       0.0000 |       0.0000 |       0.0000 |       0.0000 |       0.0000 |       0.0000 |       0.0000 |       0.0000 |       0.0000 |       0.0000 |       0.0000 |       0.0000 |       0.0000 |       0.0000 |       0.0000 |       0.0000 |       0.0000 |       0.0000 |       0.0000 |       0.0000 |       0.0000 |       0.0000 |       0.0000 |       0.0000 |       0.0000 |       0.0000 |       0.0000 |       0.0000 |       0.0000 |       0.0000 |
il1.inv_rate                                0.0000 |       0.0000 |       0.0000 |       0.0000 |       0.0000 |       0.0000 |       0.0000 |       0.0000 |       0.0000 |       0.0000 |       0.0000 |       0.0000 |       0.0000 |       0.0000 |       0.0000 |       0.0000 |       0.0000 |       0.0000 |       0.0000 |       0.0000 |       0.0000 |       0.0000 |       0.0000 |       0.0000 |       0.0000 |       0.0000 |       0.0000 |       0.0000 |       0.0000 |       0.0000 |       0.0000 |       0.0000 |       0.0000 |       0.0000 |       0.0000 |       0.0000 |       0.0000 |       0.0000 |       0.0000 |       0.0000 |       0.0000 |       0.0000 |       0.0000 |       0.0000 |
dl1.accesses                                250615 |       250615 |       250615 |       250615 |       522008 |       522008 |       522008 |       522008 |      1154735 |      1154735 |      1154735 |      1154735 |      2404045 |      2404045 |      2404045 |      2404045 |      5262881 |      5262881 |      5262881 |      5262881 |     10914733 |     10914733 |     10914733 |     10914733 |     23660641 |     23660641 |     23660641 |     23660641 |     48891477 |     48891477 |     48891477 |     48891477 |    105126051 |    105126051 |    105126051 |    105126051 |    216538009 |    216538009 |    216538009 |    216538009 |    462430263 |    462430263 |    462430263 |    462430263 |
dl1.hits                                    236733 |       236733 |       237352 |       237352 |       494312 |       494312 |       495937 |       495937 |      1091101 |      1091101 |      1094853 |      1094853 |      2276171 |      2276171 |      2284752 |      2284752 |      4973351 |      4973351 |      4991974 |      4991974 |     10334053 |     10334053 |     10373391 |     10373391 |     22359573 |     22359573 |     22447333 |     22447333 |     46276413 |     46276413 |     46465343 |     46465343 |     99348665 |     99348665 |     99748780 |     99748780 |    204910789 |    204910789 |    205784323 |    205784323 |    436839549 |    436839549 |    438826660 |    438826660 |
dl1.misses                                   13882 |        13882 |        13263 |        13263 |        27696 |        27696 |        26071 |        26071 |        63634 |        63634 |        59882 |        59882 |       127874 |       127874 |       119293 |       119293 |       289530 |       289530 |       270907 |       270907 |       580680 |       580680 |       541342 |       541342 |      1301068 |      1301068 |      1213308 |      1213308 |      2615064 |      2615064 |      2426134 |      2426134 |      5777386 |      5777386 |      5377271 |      5377271 |     11627220 |     11627220 |     10753686 |     10753686 |     25590714 |     25590714 |     23603603 |     23603603 |
dl1.replacements                             13626 |        13626 |        13007 |        13007 |        27440 |        27440 |        25815 |        25815 |        63378 |        63378 |        59626 |        59626 |       127618 |       127618 |       119037 |       119037 |       289274 |       289274 |       270651 |       270651 |       580424 |       580424 |       541086 |       541086 |      1300812 |      1300812 |      1213052 |      1213052 |      2614808 |      2614808 |      2425878 |      2425878 |      5777130 |      5777130 |      5377015 |      5377015 |     11626964 |     11626964 |     10753430 |     10753430 |     25590458 |     25590458 |     23603347 |     23603347 |
dl1.writebacks                                7201 |         7201 |         6961 |         6961 |        14158 |        14158 |        13625 |        13625 |        32214 |        32214 |        31050 |        31050 |        64336 |        64336 |        61790 |        61790 |       145213 |       145213 |       139674 |       139674 |       290281 |       290281 |       279038 |       279038 |       648834 |       648834 |       623322 |       623322 |      1301933 |      1301933 |      1246325 |      1246325 |      2875103 |      2875103 |      2755281 |      2755281 |      5774749 |      5774749 |      5510257 |      5510257 |     12699431 |     12699431 |     12068716 |     12068716 |
dl1.invalidations                                0 |            0 |            0 |            0 |            0 |            0 |            0 |            0 |            0 |            0 |            0 |            0 |            0 |            0 |            0 |            0 |            0 |            0 |            0 |            0 |            0 |            0 |            0 |            0 |            0 |            0 |            0 |            0 |            0 |            0 |            0 |            0 |            0 |            0 |            0 |            0 |            0 |            0 |            0 |            0 |            0 |            0 |            0 |            0 |
dl1.miss_rate                               0.0554 |       0.0554 |       0.0529 |       0.0529 |       0.0531 |       0.0531 |       0.0499 |       0.0499 |       0.0551 |       0.0551 |       0.0519 |       0.0519 |       0.0532 |       0.0532 |       0.0496 |       0.0496 |       0.0550 |       0.0550 |       0.0515 |       0.0515 |       0.0532 |       0.0532 |       0.0496 |       0.0496 |       0.0550 |       0.0550 |       0.0513 |       0.0513 |       0.0535 |       0.0535 |       0.0496 |       0.0496 |       0.0550 |       0.0550 |       0.0512 |       0.0512 |       0.0537 |       0.0537 |       0.0497 |       0.0497 |       0.0553 |       0.0553 |       0.0510 |       0.0510 |
dl1.repl_rate                               0.0544 |       0.0544 |       0.0519 |       0.0519 |       0.0526 |       0.0526 |       0.0495 |       0.0495 |       0.0549 |       0.0549 |       0.0516 |       0.0516 |       0.0531 |       0.0531 |       0.0495 |       0.0495 |       0.0550 |       0.0550 |       0.0514 |       0.0514 |       0.0532 |       0.0532 |       0.0496 |       0.0496 |       0.0550 |       0.0550 |       0.0513 |       0.0513 |       0.0535 |       0.0535 |       0.0496 |       0.0496 |       0.0550 |       0.0550 |       0.0511 |       0.0511 |       0.0537 |       0.0537 |       0.0497 |       0.0497 |       0.0553 |       0.0553 |       0.0510 |       0.0510 |
dl1.wb_rate                                 0.0287 |       0.0287 |       0.0278 |       0.0278 |       0.0271 |       0.0271 |       0.0261 |       0.0261 |       0.0279 |       0.0279 |       0.0269 |       0.0269 |       0.0268 |       0.0268 |       0.0257 |       0.0257 |       0.0276 |       0.0276 |       0.0265 |       0.0265 |       0.0266 |       0.0266 |       0.0256 |       0.0256 |       0.0274 |       0.0274 |       0.0263 |       0.0263 |       0.0266 |       0.0266 |       0.0255 |       0.0255 |       0.0273 |       0.0273 |       0.0262 |       0.0262 |       0.0267 |       0.0267 |       0.0254 |       0.0254 |       0.0275 |       0.0275 |       0.0261 |       0.0261 |
dl1.inv_rate                                0.0000 |       0.0000 |       0.0000 |       0.0000 |       0.0000 |       0.0000 |       0.0000 |       0.0000 |       0.0000 |       0.0000 |       0.0000 |       0.0000 |       0.0000 |       0.0000 |       0.0000 |       0.0000 |       0.0000 |       0.0000 |       0.0000 |       0.0000 |       0.0000 |       0.0000 |       0.0000 |       0.0000 |       0.0000 |       0.0000 |       0.0000 |       0.0000 |       0.0000 |       0.0000 |       0.0000 |       0.0000 |       0.0000 |       0.0000 |       0.0000 |       0.0000 |       0.0000 |       0.0000 |       0.0000 |       0.0000 |       0.0000 |       0.0000 |       0.0000 |       0.0000 |
dl2.accesses                                 21516 |        21516 |        20592 |        20592 |        42298 |        42298 |        40031 |        40031 |        96305 |        96305 |        91292 |        91292 |       192657 |       192657 |       181420 |       181420 |       435213 |       435213 |       410941 |       410941 |       871407 |       871407 |       820717 |       820717 |      1950371 |      1950371 |      1836990 |      1836990 |      3917443 |      3917443 |      3672796 |      3672796 |      8652966 |      8652966 |      8132952 |      8132952 |     17402439 |     17402439 |     16264339 |     16264339 |     38290622 |     38290622 |     35672719 |     35672719 |
dl2.hits                                     19694 |        19694 |        18788 |        18788 |        39479 |        39479 |        37237 |        37237 |        91409 |        91409 |        86423 |        86423 |       183692 |       183692 |       172480 |       172480 |       418033 |       418033 |       393785 |       393785 |       837867 |       837867 |       787201 |       787201 |      1884038 |      1828641 |      1770682 |      1535712 |      3730787 |      1713365 |      3043881 |      1263906 |      3882639 |      3318485 |      2790657 |      2773416 |      6731488 |      6679054 |      5546295 |      5529916 |     14750605 |     14714864 |     12107703 |     12091287 |
dl2.misses                                    1822 |         1822 |         1804 |         1804 |         2819 |         2819 |         2794 |         2794 |         4896 |         4896 |         4869 |         4869 |         8965 |         8965 |         8940 |         8940 |        17180 |        17180 |        17156 |        17156 |        33540 |        33540 |        33516 |        33516 |        66333 |       121730 |        66308 |       301278 |       186656 |      2204078 |       628915 |      2408890 |      4770327 |      5334481 |      5342295 |      5359536 |     10670951 |     10723385 |     10718044 |     10734423 |     23540017 |     23575758 |     23565016 |     23581432 |
dl2.replacements                               195 |          195 |            0 |            0 |          204 |          204 |            0 |            0 |          239 |          239 |            0 |            0 |          224 |          224 |            0 |            0 |          232 |          232 |            0 |            0 |          223 |          223 |            0 |            0 |          233 |        57301 |            0 |       235742 |        56706 |      2138542 |       497843 |      2343354 |      4639255 |      5268945 |      5211223 |      5294000 |     10539879 |     10657849 |     10586972 |     10668887 |     23408945 |     23510222 |     23433944 |     23515896 |
dl2.writebacks                                 122 |          122 |            0 |            0 |          128 |          128 |            0 |            0 |          160 |          160 |            0 |            0 |          147 |          147 |            0 |            0 |          156 |          156 |            0 |            0 |          147 |          147 |            0 |            0 |          156 |        31882 |            0 |       235022 |        31321 |      1223453 |       496651 |      1212863 |      2625199 |      2690924 |      2688190 |      2720961 |      5423064 |      5467293 |      5441470 |      5474243 |     11936123 |     12002454 |     11996617 |     12029398 |
dl2.invalidations                                0 |            0 |            0 |            0 |            0 |            0 |            0 |            0 |            0 |            0 |            0 |            0 |            0 |            0 |            0 |            0 |            0 |            0 |            0 |            0 |            0 |            0 |            0 |            0 |            0 |            0 |            0 |            0 |            0 |            0 |            0 |            0 |            0 |            0 |            0 |            0 |            0 |            0 |            0 |            0 |            0 |            0 |            0 |            0 |
dl2.miss_rate                               0.0847 |       0.0847 |       0.0876 |       0.0876 |       0.0666 |       0.0666 |       0.0698 |       0.0698 |       0.0508 |       0.0508 |       0.0533 |       0.0533 |       0.0465 |       0.0465 |       0.0493 |       0.0493 |       0.0395 |       0.0395 |       0.0417 |       0.0417 |       0.0385 |       0.0385 |       0.0408 |       0.0408 |       0.0340 |       0.0624 |       0.0361 |       0.1640 |       0.0476 |       0.5626 |       0.1712 |       0.6559 |       0.5513 |       0.6165 |       0.6569 |       0.6590 |       0.6132 |       0.6162 |       0.6590 |       0.6600 |       0.6148 |       0.6157 |       0.6606 |       0.6610 |
dl2.repl_rate                               0.0091 |       0.0091 |       0.0000 |       0.0000 |       0.0048 |       0.0048 |       0.0000 |       0.0000 |       0.0025 |       0.0025 |       0.0000 |       0.0000 |       0.0012 |       0.0012 |       0.0000 |       0.0000 |       0.0005 |       0.0005 |       0.0000 |       0.0000 |       0.0003 |       0.0003 |       0.0000 |       0.0000 |       0.0001 |       0.0294 |       0.0000 |       0.1283 |       0.0145 |       0.5459 |       0.1355 |       0.6380 |       0.5361 |       0.6089 |       0.6408 |       0.6509 |       0.6057 |       0.6124 |       0.6509 |       0.6560 |       0.6113 |       0.6140 |       0.6569 |       0.6592 |
dl2.wb_rate                                 0.0057 |       0.0057 |       0.0000 |       0.0000 |       0.0030 |       0.0030 |       0.0000 |       0.0000 |       0.0017 |       0.0017 |       0.0000 |       0.0000 |       0.0008 |       0.0008 |       0.0000 |       0.0000 |       0.0004 |       0.0004 |       0.0000 |       0.0000 |       0.0002 |       0.0002 |       0.0000 |       0.0000 |       0.0001 |       0.0163 |       0.0000 |       0.1279 |       0.0080 |       0.3123 |       0.1352 |       0.3302 |       0.3034 |       0.3110 |       0.3305 |       0.3346 |       0.3116 |       0.3142 |       0.3346 |       0.3366 |       0.3117 |       0.3135 |       0.3363 |       0.3372 |
dl2.inv_rate                                0.0000 |       0.0000 |       0.0000 |       0.0000 |       0.0000 |       0.0000 |       0.0000 |       0.0000 |       0.0000 |       0.0000 |       0.0000 |       0.0000 |       0.0000 |       0.0000 |       0.0000 |       0.0000 |       0.0000 |       0.0000 |       0.0000 |       0.0000 |       0.0000 |       0.0000 |       0.0000 |       0.0000 |       0.0000 |       0.0000 |       0.0000 |       0.0000 |       0.0000 |       0.0000 |       0.0000 |       0.0000 |       0.0000 |       0.0000 |       0.0000 |       0.0000 |       0.0000 |       0.0000 |       0.0000 |       0.0000 |       0.0000 |       0.0000 |       0.0000 |       0.0000 |
itlb.accesses                               891920 |       891920 |       891920 |       891920 |      1916674 |      1916674 |      1916674 |      1916674 |      4186402 |      4186402 |      4186402 |      4186402 |      8923562 |      8923562 |      8923562 |      8923562 |     19281830 |     19281830 |     19281830 |     19281830 |     40785215 |     40785215 |     40785215 |     40785215 |     87329854 |     87329854 |     87329854 |     87329854 |    183571322 |    183571322 |    183571322 |    183571322 |    390206685 |    390206685 |    390206685 |    390206685 |    816062307 |    816062307 |    816062307 |    816062307 |   1724391334 |   1724391334 |   1724391334 |   1724391334 |
itlb.hits                                   891911 |       891911 |       891911 |       891911 |      1916665 |      1916665 |      1916665 |      1916665 |      4186393 |      4186393 |      4186393 |      4186393 |      8923553 |      8923553 |      8923553 |      8923553 |     19281821 |     19281821 |     19281821 |     19281821 |     40785206 |     40785206 |     40785206 |     40785206 |     87329845 |     87329845 |     87329845 |     87329845 |    183571313 |    183571313 |    183571313 |    183571313 |    390206676 |    390206676 |    390206676 |    390206676 |    816062298 |    816062298 |    816062298 |    816062298 |   1724391325 |   1724391325 |   1724391325 |   1724391325 |
itlb.misses                                      9 |            9 |            9 |            9 |            9 |            9 |            9 |            9 |            9 |            9 |            9 |            9 |            9 |            9 |            9 |            9 |            9 |            9 |            9 |            9 |            9 |            9 |            9 |            9 |            9 |            9 |            9 |            9 |            9 |            9 |            9 |            9 |            9 |            9 |            9 |            9 |            9 |            9 |            9 |            9 |            9 |            9 |            9 |            9 |
itlb.replacements                                0 |            0 |            0 |            0 |            0 |            0 |            0 |            0 |            0 |            0 |            0 |            0 |            0 |            0 |            0 |            0 |            0 |            0 |            0 |            0 |            0 |            0 |            0 |            0 |            0 |            0 |            0 |            0 |            0 |            0 |            0 |            0 |            0 |            0 |            0 |            0 |            0 |            0 |            0 |            0 |            0 |            0 |            0 |            0 |
itlb.writebacks                                  0 |            0 |            0 |            0 |            0 |            0 |            0 |            0 |            0 |            0 |            0 |            0 |            0 |            0 |            0 |            0 |            0 |            0 |            0 |            0 |            0 |            0 |            0 |            0 |            0 |            0 |            0 |            0 |            0 |            0 |            0 |            0 |            0 |            0 |            0 |            0 |            0 |            0 |            0 |            0 |            0 |            0 |            0 |            0 |
itlb.invalidations                               0 |            0 |            0 |            0 |            0 |            0 |            0 |            0 |            0 |            0 |            0 |            0 |            0 |            0 |            0 |            0 |            0 |            0 |            0 |            0 |            0 |            0 |            0 |            0 |            0 |            0 |            0 |            0 |            0 |            0 |            0 |            0 |            0 |            0 |            0 |            0 |            0 |            0 |            0 |            0 |            0 |            0 |            0 |            0 |
itlb.miss_rate                              0.0000 |       0.0000 |       0.0000 |       0.0000 |       0.0000 |       0.0000 |       0.0000 |       0.0000 |       0.0000 |       0.0000 |       0.0000 |       0.0000 |       0.0000 |       0.0000 |       0.0000 |       0.0000 |       0.0000 |       0.0000 |       0.0000 |       0.0000 |       0.0000 |       0.0000 |       0.0000 |       0.0000 |       0.0000 |       0.0000 |       0.0000 |       0.0000 |       0.0000 |       0.0000 |       0.0000 |       0.0000 |       0.0000 |       0.0000 |       0.0000 |       0.0000 |       0.0000 |       0.0000 |       0.0000 |       0.0000 |       0.0000 |       0.0000 |       0.0000 |       0.0000 |
itlb.repl_rate                              0.0000 |       0.0000 |       0.0000 |       0.0000 |       0.0000 |       0.0000 |       0.0000 |       0.0000 |       0.0000 |       0.0000 |       0.0000 |       0.0000 |       0.0000 |       0.0000 |       0.0000 |       0.0000 |       0.0000 |       0.0000 |       0.0000 |       0.0000 |       0.0000 |       0.0000 |       0.0000 |       0.0000 |       0.0000 |       0.0000 |       0.0000 |       0.0000 |       0.0000 |       0.0000 |       0.0000 |       0.0000 |       0.0000 |       0.0000 |       0.0000 |       0.0000 |       0.0000 |       0.0000 |       0.0000 |       0.0000 |       0.0000 |       0.0000 |       0.0000 |       0.0000 |
itlb.wb_rate                                0.0000 |       0.0000 |       0.0000 |       0.0000 |       0.0000 |       0.0000 |       0.0000 |       0.0000 |       0.0000 |       0.0000 |       0.0000 |       0.0000 |       0.0000 |       0.0000 |       0.0000 |       0.0000 |       0.0000 |       0.0000 |       0.0000 |       0.0000 |       0.0000 |       0.0000 |       0.0000 |       0.0000 |       0.0000 |       0.0000 |       0.0000 |       0.0000 |       0.0000 |       0.0000 |       0.0000 |       0.0000 |       0.0000 |       0.0000 |       0.0000 |       0.0000 |       0.0000 |       0.0000 |       0.0000 |       0.0000 |       0.0000 |       0.0000 |       0.0000 |       0.0000 |
itlb.inv_rate                               0.0000 |       0.0000 |       0.0000 |       0.0000 |       0.0000 |       0.0000 |       0.0000 |       0.0000 |       0.0000 |       0.0000 |       0.0000 |       0.0000 |       0.0000 |       0.0000 |       0.0000 |       0.0000 |       0.0000 |       0.0000 |       0.0000 |       0.0000 |       0.0000 |       0.0000 |       0.0000 |       0.0000 |       0.0000 |       0.0000 |       0.0000 |       0.0000 |       0.0000 |       0.0000 |       0.0000 |       0.0000 |       0.0000 |       0.0000 |       0.0000 |       0.0000 |       0.0000 |       0.0000 |       0.0000 |       0.0000 |       0.0000 |       0.0000 |       0.0000 |       0.0000 |
dtlb.accesses                               250615 |       250615 |       250615 |       250615 |       522008 |       522008 |       522008 |       522008 |      1154735 |      1154735 |      1154735 |      1154735 |      2404045 |      2404045 |      2404045 |      2404045 |      5262881 |      5262881 |      5262881 |      5262881 |     10914733 |     10914733 |     10914733 |     10914733 |     23660641 |     23660641 |     23660641 |     23660641 |     48891477 |     48891477 |     48891477 |     48891477 |    105126051 |    105126051 |    105126051 |    105126051 |    216538009 |    216538009 |    216538009 |    216538009 |    462430263 |    462430263 |    462430263 |    462430263 |
dtlb.hits                                   250600 |       250600 |       250600 |       250600 |       521985 |       521985 |       521985 |       521985 |      1154696 |      1154696 |      1154696 |      1154696 |      2403974 |      2403974 |      2403974 |      2403974 |      5262668 |      5262668 |      5262668 |      5262668 |     10910550 |     10910550 |     10910550 |     10910550 |     23651166 |     23651166 |     23651166 |     23651166 |     48872523 |     48872523 |     48872523 |     48872523 |    105084033 |    105084033 |    105084033 |    105084033 |    216453971 |    216453971 |    216453971 |    216453971 |    462245790 |    462245790 |    462245790 |    462245790 |
dtlb.misses                                     15 |           15 |           15 |           15 |           23 |           23 |           23 |           23 |           39 |           39 |           39 |           39 |           71 |           71 |           71 |           71 |          213 |          213 |          213 |          213 |         4183 |         4183 |         4183 |         4183 |         9475 |         9475 |         9475 |         9475 |        18954 |        18954 |        18954 |        18954 |        42018 |        42018 |        42018 |        42018 |        84038 |        84038 |        84038 |        84038 |       184473 |       184473 |       184473 |       184473 |
dtlb.replacements                                0 |            0 |            0 |            0 |            0 |            0 |            0 |            0 |            0 |            0 |            0 |            0 |            0 |            0 |            0 |            0 |           85 |           85 |           85 |           85 |         4055 |         4055 |         4055 |         4055 |         9347 |         9347 |         9347 |         9347 |        18826 |        18826 |        18826 |        18826 |        41890 |        41890 |        41890 |        41890 |        83910 |        83910 |        83910 |        83910 |       184345 |       184345 |       184345 |       184345 |
dtlb.writebacks                                  0 |            0 |            0 |            0 |            0 |            0 |            0 |            0 |            0 |            0 |            0 |            0 |            0 |            0 |            0 |            0 |           51 |           51 |           51 |           51 |         2129 |         2129 |         2129 |         2129 |         4823 |         4823 |         4823 |         4823 |         9695 |         9695 |         9695 |         9695 |        21491 |        21491 |        21491 |        21491 |        43033 |        43033 |        43033 |        43033 |        94308 |        94308 |        94308 |        94308 |
dtlb.invalidations                               0 |            0 |            0 |            0 |            0 |            0 |            0 |            0 |            0 |            0 |            0 |            0 |            0 |            0 |            0 |            0 |            0 |            0 |            0 |            0 |            0 |            0 |            0 |            0 |            0 |            0 |            0 |            0 |            0 |            0 |            0 |            0 |            0 |            0 |            0 |            0 |            0 |            0 |            0 |            0 |            0 |            0 |            0 |            0 |
dtlb.miss_rate                              0.0001 |       0.0001 |       0.0001 |       0.0001 |       0.0000 |       0.0000 |       0.0000 |       0.0000 |       0.0000 |       0.0000 |       0.0000 |       0.0000 |       0.0000 |       0.0000 |       0.0000 |       0.0000 |       0.0000 |       0.0000 |       0.0000 |       0.0000 |       0.0004 |       0.0004 |       0.0004 |       0.0004 |       0.0004 |       0.0004 |       0.0004 |       0.0004 |       0.0004 |       0.0004 |       0.0004 |       0.0004 |       0.0004 |       0.0004 |       0.0004 |       0.0004 |       0.0004 |       0.0004 |       0.0004 |       0.0004 |       0.0004 |       0.0004 |       0.0004 |       0.0004 |
dtlb.repl_rate                              0.0000 |       0.0000 |       0.0000 |       0.0000 |       0.0000 |       0.0000 |       0.0000 |       0.0000 |       0.0000 |       0.0000 |       0.0000 |       0.0000 |       0.0000 |       0.0000 |       0.0000 |       0.0000 |       0.0000 |       0.0000 |       0.0000 |       0.0000 |       0.0004 |       0.0004 |       0.0004 |       0.0004 |       0.0004 |       0.0004 |       0.0004 |       0.0004 |       0.0004 |       0.0004 |       0.0004 |       0.0004 |       0.0004 |       0.0004 |       0.0004 |       0.0004 |       0.0004 |       0.0004 |       0.0004 |       0.0004 |       0.0004 |       0.0004 |       0.0004 |       0.0004 |
dtlb.wb_rate                                0.0000 |       0.0000 |       0.0000 |       0.0000 |       0.0000 |       0.0000 |       0.0000 |       0.0000 |       0.0000 |       0.0000 |       0.0000 |       0.0000 |       0.0000 |       0.0000 |       0.0000 |       0.0000 |       0.0000 |       0.0000 |       0.0000 |       0.0000 |       0.0002 |       0.0002 |       0.0002 |       0.0002 |       0.0002 |       0.0002 |       0.0002 |       0.0002 |       0.0002 |       0.0002 |       0.0002 |       0.0002 |       0.0002 |       0.0002 |       0.0002 |       0.0002 |       0.0002 |       0.0002 |       0.0002 |       0.0002 |       0.0002 |       0.0002 |       0.0002 |       0.0002 |
dtlb.inv_rate                               0.0000 |       0.0000 |       0.0000 |       0.0000 |       0.0000 |       0.0000 |       0.0000 |       0.0000 |       0.0000 |       0.0000 |       0.0000 |       0.0000 |       0.0000 |       0.0000 |       0.0000 |       0.0000 |       0.0000 |       0.0000 |       0.0000 |       0.0000 |       0.0000 |       0.0000 |       0.0000 |       0.0000 |       0.0000 |       0.0000 |       0.0000 |       0.0000 |       0.0000 |       0.0000 |       0.0000 |       0.0000 |       0.0000 |       0.0000 |       0.0000 |       0.0000 |       0.0000 |       0.0000 |       0.0000 |       0.0000 |       0.0000 |       0.0000 |       0.0000 |       0.0000 |
ld_text_base                            0x00400000 |   0x00400000 |   0x00400000 |   0x00400000 |   0x00400000 |   0x00400000 |   0x00400000 |   0x00400000 |   0x00400000 |   0x00400000 |   0x00400000 |   0x00400000 |   0x00400000 |   0x00400000 |   0x00400000 |   0x00400000 |   0x00400000 |   0x00400000 |   0x00400000 |   0x00400000 |   0x00400000 |   0x00400000 |   0x00400000 |   0x00400000 |   0x00400000 |   0x00400000 |   0x00400000 |   0x00400000 |   0x00400000 |   0x00400000 |   0x00400000 |   0x00400000 |   0x00400000 |   0x00400000 |   0x00400000 |   0x00400000 |   0x00400000 |   0x00400000 |   0x00400000 |   0x00400000 |   0x00400000 |   0x00400000 |   0x00400000 |   0x00400000 |
ld_text_size                                 71552 |        71552 |        71552 |        71552 |        71584 |        71584 |        71584 |        71584 |        71600 |        71600 |        71600 |        71600 |        71616 |        71616 |        71616 |        71616 |        71616 |        71616 |        71616 |        71616 |        71616 |        71616 |        71616 |        71616 |        71616 |        71616 |        71616 |        71616 |        71616 |        71616 |        71616 |        71616 |        71616 |        71616 |        71616 |        71616 |        71616 |        71616 |        71616 |        71616 |        71616 |        71616 |        71616 |        71616 |
ld_data_base                            0x10000000 |   0x10000000 |   0x10000000 |   0x10000000 |   0x10000000 |   0x10000000 |   0x10000000 |   0x10000000 |   0x10000000 |   0x10000000 |   0x10000000 |   0x10000000 |   0x10000000 |   0x10000000 |   0x10000000 |   0x10000000 |   0x10000000 |   0x10000000 |   0x10000000 |   0x10000000 |   0x10000000 |   0x10000000 |   0x10000000 |   0x10000000 |   0x10000000 |   0x10000000 |   0x10000000 |   0x10000000 |   0x10000000 |   0x10000000 |   0x10000000 |   0x10000000 |   0x10000000 |   0x10000000 |   0x10000000 |   0x10000000 |   0x10000000 |   0x10000000 |   0x10000000 |   0x10000000 |   0x10000000 |   0x10000000 |   0x10000000 |   0x10000000 |
ld_data_size                                  8192 |         8192 |         8192 |         8192 |         8192 |         8192 |         8192 |         8192 |         8192 |         8192 |         8192 |         8192 |         8192 |         8192 |         8192 |         8192 |         8192 |         8192 |         8192 |         8192 |         8192 |         8192 |         8192 |         8192 |         8192 |         8192 |         8192 |         8192 |         8192 |         8192 |         8192 |         8192 |         8192 |         8192 |         8192 |         8192 |         8192 |         8192 |         8192 |         8192 |         8192 |         8192 |         8192 |         8192 |
ld_stack_base                           0x7fffc000 |   0x7fffc000 |   0x7fffc000 |   0x7fffc000 |   0x7fffc000 |   0x7fffc000 |   0x7fffc000 |   0x7fffc000 |   0x7fffc000 |   0x7fffc000 |   0x7fffc000 |   0x7fffc000 |   0x7fffc000 |   0x7fffc000 |   0x7fffc000 |   0x7fffc000 |   0x7fffc000 |   0x7fffc000 |   0x7fffc000 |   0x7fffc000 |   0x7fffc000 |   0x7fffc000 |   0x7fffc000 |   0x7fffc000 |   0x7fffc000 |   0x7fffc000 |   0x7fffc000 |   0x7fffc000 |   0x7fffc000 |   0x7fffc000 |   0x7fffc000 |   0x7fffc000 |   0x7fffc000 |   0x7fffc000 |   0x7fffc000 |   0x7fffc000 |   0x7fffc000 |   0x7fffc000 |   0x7fffc000 |   0x7fffc000 |   0x7fffc000 |   0x7fffc000 |   0x7fffc000 |   0x7fffc000 |
ld_stack_size                                16384 |        16384 |        16384 |        16384 |        16384 |        16384 |        16384 |        16384 |        16384 |        16384 |        16384 |        16384 |        16384 |        16384 |        16384 |        16384 |        16384 |        16384 |        16384 |        16384 |        16384 |        16384 |        16384 |        16384 |        16384 |        16384 |        16384 |        16384 |        16384 |        16384 |        16384 |        16384 |        16384 |        16384 |        16384 |        16384 |        16384 |        16384 |        16384 |        16384 |        16384 |        16384 |        16384 |        16384 |
ld_prog_entry                           0x00400140 |   0x00400140 |   0x00400140 |   0x00400140 |   0x00400140 |   0x00400140 |   0x00400140 |   0x00400140 |   0x00400140 |   0x00400140 |   0x00400140 |   0x00400140 |   0x00400140 |   0x00400140 |   0x00400140 |   0x00400140 |   0x00400140 |   0x00400140 |   0x00400140 |   0x00400140 |   0x00400140 |   0x00400140 |   0x00400140 |   0x00400140 |   0x00400140 |   0x00400140 |   0x00400140 |   0x00400140 |   0x00400140 |   0x00400140 |   0x00400140 |   0x00400140 |   0x00400140 |   0x00400140 |   0x00400140 |   0x00400140 |   0x00400140 |   0x00400140 |   0x00400140 |   0x00400140 |   0x00400140 |   0x00400140 |   0x00400140 |   0x00400140 |
ld_environ_base                         0x7fff8000 |   0x7fff8000 |   0x7fff8000 |   0x7fff8000 |   0x7fff8000 |   0x7fff8000 |   0x7fff8000 |   0x7fff8000 |   0x7fff8000 |   0x7fff8000 |   0x7fff8000 |   0x7fff8000 |   0x7fff8000 |   0x7fff8000 |   0x7fff8000 |   0x7fff8000 |   0x7fff8000 |   0x7fff8000 |   0x7fff8000 |   0x7fff8000 |   0x7fff8000 |   0x7fff8000 |   0x7fff8000 |   0x7fff8000 |   0x7fff8000 |   0x7fff8000 |   0x7fff8000 |   0x7fff8000 |   0x7fff8000 |   0x7fff8000 |   0x7fff8000 |   0x7fff8000 |   0x7fff8000 |   0x7fff8000 |   0x7fff8000 |   0x7fff8000 |   0x7fff8000 |   0x7fff8000 |   0x7fff8000 |   0x7fff8000 |   0x7fff8000 |   0x7fff8000 |   0x7fff8000 |   0x7fff8000 |
ld_target_big_endian                             0 |            0 |            0 |            0 |            0 |            0 |            0 |            0 |            0 |            0 |            0 |            0 |            0 |            0 |            0 |            0 |            0 |            0 |            0 |            0 |            0 |            0 |            0 |            0 |            0 |            0 |            0 |            0 |            0 |            0 |            0 |            0 |            0 |            0 |            0 |            0 |            0 |            0 |            0 |            0 |            0 |            0 |            0 |            0 |
mem.page_count                                  33 |           33 |           33 |           33 |           41 |           41 |           41 |           41 |           57 |           57 |           57 |           57 |           89 |           89 |           89 |           89 |          153 |          153 |          153 |          153 |          281 |          281 |          281 |          281 |          537 |          537 |          537 |          537 |         1049 |         1049 |         1049 |         1049 |         2079 |         2079 |         2079 |         2079 |         4133 |         4133 |         4133 |         4133 |         8241 |         8241 |         8241 |         8241 |
mem.page_mem                                  132k |         132k |         132k |         132k |         164k |         164k |         164k |         164k |         228k |         228k |         228k |         228k |         356k |         356k |         356k |         356k |         612k |         612k |         612k |         612k |        1124k |        1124k |        1124k |        1124k |        2148k |        2148k |        2148k |        2148k |        4196k |        4196k |        4196k |        4196k |        8316k |        8316k |        8316k |        8316k |       16532k |       16532k |       16532k |       16532k |       32964k |       32964k |       32964k |       32964k |
mem.ptab_misses                                 33 |           33 |           33 |           33 |           41 |           41 |           41 |           41 |           57 |           57 |           57 |           57 |           89 |           89 |           89 |           89 |          153 |          153 |          153 |          153 |          281 |          281 |          281 |          281 |          537 |          537 |          537 |          537 |         1049 |         1049 |         1049 |         1049 |        98270 |        98270 |        98270 |        98270 |       104919 |       104919 |       104919 |       104919 |       114714 |       114714 |       114714 |       114714 |
mem.ptab_accesses                          4512806 |      4512806 |      4512806 |      4512806 |      9154800 |      9154800 |      9154800 |      9154800 |     19499262 |     19499262 |     19499262 |     19499262 |     40946618 |     40946618 |     40946618 |     40946618 |     88097362 |     88097362 |     88097362 |     88097362 |    185414606 |    185414606 |    185414606 |    185414606 |    397084978 |    397084978 |    397084978 |    397084978 |    832512522 |    832512522 |    832512522 |    832512522 |   1771523122 |   1771523122 |   1771523122 |   1771523122 |   3697769526 |   3697769526 |   3697769526 |   3697769526 |   7822870142 |   7822870142 |   7822870142 |   7822870142 |
mem.ptab_miss_rate                          0.0000 |       0.0000 |       0.0000 |       0.0000 |       0.0000 |       0.0000 |       0.0000 |       0.0000 |       0.0000 |       0.0000 |       0.0000 |       0.0000 |       0.0000 |       0.0000 |       0.0000 |       0.0000 |       0.0000 |       0.0000 |       0.0000 |       0.0000 |       0.0000 |       0.0000 |       0.0000 |       0.0000 |       0.0000 |       0.0000 |       0.0000 |       0.0000 |       0.0000 |       0.0000 |       0.0000 |       0.0000 |       0.0001 |       0.0001 |       0.0001 |       0.0001 |       0.0000 |       0.0000 |       0.0000 |       0.0000 |       0.0000 |       0.0000 |       0.0000 |       0.0000 |
-------------------------------------------------------------------------------------------------
sim-bpred                                     4096 |         4096 |         4096 |         4096 |         4096 |         4096 |         4096 |         8192 |         8192 |         8192 |         8192 |         8192 |         8192 |         8192 |        16384 |        16384 |        16384 |        16384 |        16384 |        16384 |        16384 |        32768 |        32768 |        32768 |        32768 |        32768 |        32768 |        32768 |        65536 |        65536 |        65536 |        65536 |        65536 |        65536 |        65536 |       131072 |       131072 |       131072 |       131072 |       131072 |       131072 |       131072 |       262144 |       262144 |       262144 |       262144 |       262144 |       262144 |       262144 |       524288 |       524288 |       524288 |       524288 |       524288 |       524288 |       524288 |      1048576 |      1048576 |      1048576 |      1048576 |      1048576 |      1048576 |      1048576 |      2097152 |      2097152 |      2097152 |      2097152 |      2097152 |      2097152 |      2097152 |      4194304 |      4194304 |      4194304 |      4194304 |      4194304 |      4194304 |      4194304 |
-bpred bimod -bpred:bimod 512
-bpred bimod -bpred:bimod 1024
-bpred bimod -bpred:bimod 2048
-bpred 2lev -bpred:2lev 1 512 10 1
-bpred 2lev -bpred:2lev 1 1024 10 1
-bpred 2lev -bpred:2lev 1 2048 10 1
-bpred 2lev -bpred:2lev 1 4096 10 1
-------------------------------------------------------------------------------------------------
sim_num_insn                                891920 |       891920 |       891920 |       891920 |       891920 |       891920 |       891920 |      1916674 |      1916674 |      1916674 |      1916674 |      1916674 |      1916674 |      1916674 |      4186402 |      4186402 |      4186402 |      4186402 |      4186402 |      4186402 |      4186402 |      8923562 |      8923562 |      8923562 |      8923562 |      8923562 |      8923562 |      8923562 |     19281830 |     19281830 |     19281830 |     19281830 |     19281830 |     19281830 |     19281830 |     40785215 |     40785215 |     40785215 |     40785215 |     40785215 |     40785215 |     40785215 |     87329854 |     87329854 |     87329854 |     87329854 |     87329854 |     87329854 |     87329854 |    183571322 |    183571322 |    183571322 |    183571322 |    183571322 |    183571322 |    183571322 |    390206685 |    390206685 |    390206685 |    390206685 |    390206685 |    390206685 |    390206685 |    816062307 |    816062307 |    816062307 |    816062307 |    816062307 |    816062307 |    816062307 |   1724391334 |   1724391334 |   1724391334 |   1724391334 |   1724391334 |   1724391334 |   1724391334 |
sim_num_refs                                234149 |       234149 |       234149 |       234149 |       234149 |       234149 |       234149 |       489158 |       489158 |       489158 |       489158 |       489158 |       489158 |       489158 |      1089117 |      1089117 |      1089117 |      1089117 |      1089117 |      1089117 |      1089117 |      2272891 |      2272891 |      2272891 |      2272891 |      2272891 |      2272891 |      2272891 |      5000655 |      5000655 |      5000655 |      5000655 |      5000655 |      5000655 |      5000655 |     10390363 |     10390363 |     10390363 |     10390363 |     10390363 |     10390363 |     10390363 |     22611983 |     22611983 |     22611983 |     22611983 |     22611983 |     22611983 |     22611983 |     46794243 |     46794243 |     46794243 |     46794243 |     46794243 |     46794243 |     46794243 |    100931665 |    100931665 |    100931665 |    100931665 |    100931665 |    100931665 |    100931665 |    208149319 |    208149319 |    208149319 |    208149319 |    208149319 |    208149319 |    208149319 |    445652965 |    445652965 |    445652965 |    445652965 |    445652965 |    445652965 |    445652965 |
sim_elapsed_time                                 1 |            1 |            1 |            1 |            1 |            1 |            1 |            1 |            1 |            1 |            1 |            1 |            1 |            1 |            1 |            1 |            1 |            1 |            1 |            1 |            1 |            1 |            1 |            1 |            1 |            1 |            1 |            1 |            2 |            2 |            2 |            2 |            2 |            2 |            2 |            5 |            4 |            4 |            5 |            4 |            5 |            4 |           10 |            9 |            9 |           10 |            9 |            9 |           10 |           20 |           19 |           19 |           20 |           20 |           20 |           19 |           42 |           41 |           40 |           44 |           41 |           42 |           41 |           88 |           85 |           86 |           90 |           87 |           86 |           88 |          187 |          180 |          180 |          190 |          184 |          184 |          183 |
sim_inst_rate                          891920.0000 |  891920.0000 |  891920.0000 |  891920.0000 |  891920.0000 |  891920.0000 |  891920.0000 | 1916674.0000 | 1916674.0000 | 1916674.0000 | 1916674.0000 | 1916674.0000 | 1916674.0000 | 1916674.0000 | 4186402.0000 | 4186402.0000 | 4186402.0000 | 4186402.0000 | 4186402.0000 | 4186402.0000 | 4186402.0000 | 8923562.0000 | 8923562.0000 | 8923562.0000 | 8923562.0000 | 8923562.0000 | 8923562.0000 | 8923562.0000 | 9640915.0000 | 9640915.0000 | 9640915.0000 | 9640915.0000 | 9640915.0000 | 9640915.0000 | 9640915.0000 | 8157043.0000 |10196303.7500 |10196303.7500 | 8157043.0000 |10196303.7500 | 8157043.0000 |10196303.7500 | 8732985.4000 | 9703317.1111 | 9703317.1111 | 8732985.4000 | 9703317.1111 | 9703317.1111 | 8732985.4000 | 9178566.1000 | 9661648.5263 | 9661648.5263 | 9178566.1000 | 9178566.1000 | 9178566.1000 | 9661648.5263 | 9290635.3571 | 9517236.2195 | 9755167.1250 | 8868333.7500 | 9517236.2195 | 9290635.3571 | 9517236.2195 | 9273435.3068 | 9600733.0235 | 9489096.5930 | 9067358.9667 | 9380026.5172 | 9489096.5930 | 9273435.3068 | 9221344.0321 | 9579951.8556 | 9579951.8556 | 9075743.8632 | 9371692.0326 | 9371692.0326 | 9422903.4645 |
sim_num_branches                            112706 |       112706 |       112706 |       112706 |       112706 |       112706 |       112706 |       243838 |       243838 |       243838 |       243838 |       243838 |       243838 |       243838 |       529369 |       529369 |       529369 |       529369 |       529369 |       529369 |       529369 |      1136453 |      1136453 |      1136453 |      1136453 |      1136453 |      1136453 |      1136453 |      2443541 |      2443541 |      2443541 |      2443541 |      2443541 |      2443541 |      2443541 |      5198160 |      5198160 |      5198160 |      5198160 |      5198160 |      5198160 |      5198160 |     11083154 |     11083154 |     11083154 |     11083154 |     11083154 |     11083154 |     11083154 |     23413231 |     23413231 |     23413231 |     23413231 |     23413231 |     23413231 |     23413231 |     49576738 |     49576738 |     49576738 |     49576738 |     49576738 |     49576738 |     49576738 |    104131481 |    104131481 |    104131481 |    104131481 |    104131481 |    104131481 |    104131481 |    219279339 |    219279339 |    219279339 |    219279339 |    219279339 |    219279339 |    219279339 |
sim_IPB                                     7.9137 |       7.9137 |       7.9137 |       7.9137 |       7.9137 |       7.9137 |       7.9137 |       7.8604 |       7.8604 |       7.8604 |       7.8604 |       7.8604 |       7.8604 |       7.8604 |       7.9083 |       7.9083 |       7.9083 |       7.9083 |       7.9083 |       7.9083 |       7.9083 |       7.8521 |       7.8521 |       7.8521 |       7.8521 |       7.8521 |       7.8521 |       7.8521 |       7.8909 |       7.8909 |       7.8909 |       7.8909 |       7.8909 |       7.8909 |       7.8909 |       7.8461 |       7.8461 |       7.8461 |       7.8461 |       7.8461 |       7.8461 |       7.8461 |       7.8795 |       7.8795 |       7.8795 |       7.8795 |       7.8795 |       7.8795 |       7.8795 |       7.8405 |       7.8405 |       7.8405 |       7.8405 |       7.8405 |       7.8405 |       7.8405 |       7.8708 |       7.8708 |       7.8708 |       7.8708 |       7.8708 |       7.8708 |       7.8708 |       7.8368 |       7.8368 |       7.8368 |       7.8368 |       7.8368 |       7.8368 |       7.8368 |       7.8639 |       7.8639 |       7.8639 |       7.8639 |       7.8639 |       7.8639 |       7.8639 |
bpred_bimod.lookups                         112706 |       112706 |       112706 |xxxxxxxxxxxxx |xxxxxxxxxxxxx |xxxxxxxxxxxxx |xxxxxxxxxxxxx |       243838 |       243838 |       243838 |xxxxxxxxxxxxx |xxxxxxxxxxxxx |xxxxxxxxxxxxx |xxxxxxxxxxxxx |       529369 |       529369 |       529369 |xxxxxxxxxxxxx |xxxxxxxxxxxxx |xxxxxxxxxxxxx |xxxxxxxxxxxxx |      1136453 |      1136453 |      1136453 |xxxxxxxxxxxxx |xxxxxxxxxxxxx |xxxxxxxxxxxxx |xxxxxxxxxxxxx |      2443541 |      2443541 |      2443541 |xxxxxxxxxxxxx |xxxxxxxxxxxxx |xxxxxxxxxxxxx |xxxxxxxxxxxxx |      5198160 |      5198160 |      5198160 |xxxxxxxxxxxxx |xxxxxxxxxxxxx |xxxxxxxxxxxxx |xxxxxxxxxxxxx |     11083154 |     11083154 |     11083154 |xxxxxxxxxxxxx |xxxxxxxxxxxxx |xxxxxxxxxxxxx |xxxxxxxxxxxxx |     23413231 |     23413231 |     23413231 |xxxxxxxxxxxxx |xxxxxxxxxxxxx |xxxxxxxxxxxxx |xxxxxxxxxxxxx |     49576738 |     49576738 |     49576738 |xxxxxxxxxxxxx |xxxxxxxxxxxxx |xxxxxxxxxxxxx |xxxxxxxxxxxxx |    104131481 |    104131481 |    104131481 |xxxxxxxxxxxxx |xxxxxxxxxxxxx |xxxxxxxxxxxxx |xxxxxxxxxxxxx |    219279339 |    219279339 |    219279339 |
bpred_bimod.updates                         112706 |       112706 |       112706 |xxxxxxxxxxxxx |xxxxxxxxxxxxx |xxxxxxxxxxxxx |xxxxxxxxxxxxx |       243838 |       243838 |       243838 |xxxxxxxxxxxxx |xxxxxxxxxxxxx |xxxxxxxxxxxxx |xxxxxxxxxxxxx |       529369 |       529369 |       529369 |xxxxxxxxxxxxx |xxxxxxxxxxxxx |xxxxxxxxxxxxx |xxxxxxxxxxxxx |      1136453 |      1136453 |      1136453 |xxxxxxxxxxxxx |xxxxxxxxxxxxx |xxxxxxxxxxxxx |xxxxxxxxxxxxx |      2443541 |      2443541 |      2443541 |xxxxxxxxxxxxx |xxxxxxxxxxxxx |xxxxxxxxxxxxx |xxxxxxxxxxxxx |      5198160 |      5198160 |      5198160 |xxxxxxxxxxxxx |xxxxxxxxxxxxx |xxxxxxxxxxxxx |xxxxxxxxxxxxx |     11083154 |     11083154 |     11083154 |xxxxxxxxxxxxx |xxxxxxxxxxxxx |xxxxxxxxxxxxx |xxxxxxxxxxxxx |     23413231 |     23413231 |     23413231 |xxxxxxxxxxxxx |xxxxxxxxxxxxx |xxxxxxxxxxxxx |xxxxxxxxxxxxx |     49576738 |     49576738 |     49576738 |xxxxxxxxxxxxx |xxxxxxxxxxxxx |xxxxxxxxxxxxx |xxxxxxxxxxxxx |    104131481 |    104131481 |    104131481 |xxxxxxxxxxxxx |xxxxxxxxxxxxx |xxxxxxxxxxxxx |xxxxxxxxxxxxx |    219279339 |    219279339 |    219279339 |
bpred_bimod.addr_hits                        87525 |        87528 |        87535 |xxxxxxxxxxxxx |xxxxxxxxxxxxx |xxxxxxxxxxxxx |xxxxxxxxxxxxx |       189337 |       189339 |       189345 |xxxxxxxxxxxxx |xxxxxxxxxxxxx |xxxxxxxxxxxxx |xxxxxxxxxxxxx |       412495 |       412498 |       412505 |xxxxxxxxxxxxx |xxxxxxxxxxxxx |xxxxxxxxxxxxx |xxxxxxxxxxxxx |       887353 |       887355 |       887360 |xxxxxxxxxxxxx |xxxxxxxxxxxxx |xxxxxxxxxxxxx |xxxxxxxxxxxxx |      1911862 |      1911865 |      1911870 |xxxxxxxxxxxxx |xxxxxxxxxxxxx |xxxxxxxxxxxxx |xxxxxxxxxxxxx |      4068521 |      4068523 |      4068528 |xxxxxxxxxxxxx |xxxxxxxxxxxxx |xxxxxxxxxxxxx |xxxxxxxxxxxxx |      8694849 |      8694852 |      8694857 |xxxxxxxxxxxxx |xxxxxxxxxxxxx |xxxxxxxxxxxxx |xxxxxxxxxxxxx |     18379309 |     18379311 |     18379316 |xxxxxxxxxxxxx |xxxxxxxxxxxxx |xxxxxxxxxxxxx |xxxxxxxxxxxxx |     38982749 |     38982752 |     38982756 |xxxxxxxxxxxxx |xxxxxxxxxxxxx |xxxxxxxxxxxxx |xxxxxxxxxxxxx |     81891691 |     81891694 |     81891698 |xxxxxxxxxxxxx |xxxxxxxxxxxxx |xxxxxxxxxxxxx |xxxxxxxxxxxxx |    172708622 |    172708625 |    172708629 |
bpred_bimod.dir_hits                         87631 |        87634 |        87641 |xxxxxxxxxxxxx |xxxxxxxxxxxxx |xxxxxxxxxxxxx |xxxxxxxxxxxxx |       189443 |       189444 |       189450 |xxxxxxxxxxxxx |xxxxxxxxxxxxx |xxxxxxxxxxxxx |xxxxxxxxxxxxx |       412607 |       412609 |       412615 |xxxxxxxxxxxxx |xxxxxxxxxxxxx |xxxxxxxxxxxxx |xxxxxxxxxxxxx |       887458 |       887459 |       887464 |xxxxxxxxxxxxx |xxxxxxxxxxxxx |xxxxxxxxxxxxx |xxxxxxxxxxxxx |      1911972 |      1911974 |      1911979 |xxxxxxxxxxxxx |xxxxxxxxxxxxx |xxxxxxxxxxxxx |xxxxxxxxxxxxx |      4068627 |      4068628 |      4068633 |xxxxxxxxxxxxx |xxxxxxxxxxxxx |xxxxxxxxxxxxx |xxxxxxxxxxxxx |      8694960 |      8694962 |      8694967 |xxxxxxxxxxxxx |xxxxxxxxxxxxx |xxxxxxxxxxxxx |xxxxxxxxxxxxx |     18379415 |     18379416 |     18379421 |xxxxxxxxxxxxx |xxxxxxxxxxxxx |xxxxxxxxxxxxx |xxxxxxxxxxxxx |     38982866 |     38982868 |     38982872 |xxxxxxxxxxxxx |xxxxxxxxxxxxx |xxxxxxxxxxxxx |xxxxxxxxxxxxx |     81891808 |     81891810 |     81891814 |xxxxxxxxxxxxx |xxxxxxxxxxxxx |xxxxxxxxxxxxx |xxxxxxxxxxxxx |    172708739 |    172708741 |    172708745 |
bpred_bimod.misses                           25075 |        25072 |        25065 |xxxxxxxxxxxxx |xxxxxxxxxxxxx |xxxxxxxxxxxxx |xxxxxxxxxxxxx |        54395 |        54394 |        54388 |xxxxxxxxxxxxx |xxxxxxxxxxxxx |xxxxxxxxxxxxx |xxxxxxxxxxxxx |       116762 |       116760 |       116754 |xxxxxxxxxxxxx |xxxxxxxxxxxxx |xxxxxxxxxxxxx |xxxxxxxxxxxxx |       248995 |       248994 |       248989 |xxxxxxxxxxxxx |xxxxxxxxxxxxx |xxxxxxxxxxxxx |xxxxxxxxxxxxx |       531569 |       531567 |       531562 |xxxxxxxxxxxxx |xxxxxxxxxxxxx |xxxxxxxxxxxxx |xxxxxxxxxxxxx |      1129533 |      1129532 |      1129527 |xxxxxxxxxxxxx |xxxxxxxxxxxxx |xxxxxxxxxxxxx |xxxxxxxxxxxxx |      2388194 |      2388192 |      2388187 |xxxxxxxxxxxxx |xxxxxxxxxxxxx |xxxxxxxxxxxxx |xxxxxxxxxxxxx |      5033816 |      5033815 |      5033810 |xxxxxxxxxxxxx |xxxxxxxxxxxxx |xxxxxxxxxxxxx |xxxxxxxxxxxxx |     10593872 |     10593870 |     10593866 |xxxxxxxxxxxxx |xxxxxxxxxxxxx |xxxxxxxxxxxxx |xxxxxxxxxxxxx |     22239673 |     22239671 |     22239667 |xxxxxxxxxxxxx |xxxxxxxxxxxxx |xxxxxxxxxxxxx |xxxxxxxxxxxxx |     46570600 |     46570598 |     46570594 |
bpred_bimod.jr_hits                             63 |           63 |           63 |xxxxxxxxxxxxx |xxxxxxxxxxxxx |xxxxxxxxxxxxx |xxxxxxxxxxxxx |           69 |           69 |           69 |xxxxxxxxxxxxx |xxxxxxxxxxxxx |xxxxxxxxxxxxx |xxxxxxxxxxxxx |           71 |           71 |           71 |xxxxxxxxxxxxx |xxxxxxxxxxxxx |xxxxxxxxxxxxx |xxxxxxxxxxxxx |           69 |           69 |           69 |xxxxxxxxxxxxx |xxxxxxxxxxxxx |xxxxxxxxxxxxx |xxxxxxxxxxxxx |           71 |           71 |           71 |xxxxxxxxxxxxx |xxxxxxxxxxxxx |xxxxxxxxxxxxx |xxxxxxxxxxxxx |           69 |           69 |           69 |xxxxxxxxxxxxx |xxxxxxxxxxxxx |xxxxxxxxxxxxx |xxxxxxxxxxxxx |           71 |           71 |           71 |xxxxxxxxxxxxx |xxxxxxxxxxxxx |xxxxxxxxxxxxx |xxxxxxxxxxxxx |           69 |           69 |           69 |xxxxxxxxxxxxx |xxxxxxxxxxxxx |xxxxxxxxxxxxx |xxxxxxxxxxxxx |           75 |           75 |           75 |xxxxxxxxxxxxx |xxxxxxxxxxxxx |xxxxxxxxxxxxx |xxxxxxxxxxxxx |           72 |           72 |           72 |xxxxxxxxxxxxx |xxxxxxxxxxxxx |xxxxxxxxxxxxx |xxxxxxxxxxxxx |           75 |           75 |           75 |
bpred_bimod.jr_seen                             64 |           64 |           64 |xxxxxxxxxxxxx |xxxxxxxxxxxxx |xxxxxxxxxxxxx |xxxxxxxxxxxxx |           70 |           70 |           70 |xxxxxxxxxxxxx |xxxxxxxxxxxxx |xxxxxxxxxxxxx |xxxxxxxxxxxxx |           73 |           73 |           73 |xxxxxxxxxxxxx |xxxxxxxxxxxxx |xxxxxxxxxxxxx |xxxxxxxxxxxxx |           70 |           70 |           70 |xxxxxxxxxxxxx |xxxxxxxxxxxxx |xxxxxxxxxxxxx |xxxxxxxxxxxxx |           73 |           73 |           73 |xxxxxxxxxxxxx |xxxxxxxxxxxxx |xxxxxxxxxxxxx |xxxxxxxxxxxxx |           70 |           70 |           70 |xxxxxxxxxxxxx |xxxxxxxxxxxxx |xxxxxxxxxxxxx |xxxxxxxxxxxxx |           73 |           73 |           73 |xxxxxxxxxxxxx |xxxxxxxxxxxxx |xxxxxxxxxxxxx |xxxxxxxxxxxxx |           70 |           70 |           70 |xxxxxxxxxxxxx |xxxxxxxxxxxxx |xxxxxxxxxxxxx |xxxxxxxxxxxxx |           76 |           76 |           76 |xxxxxxxxxxxxx |xxxxxxxxxxxxx |xxxxxxxxxxxxx |xxxxxxxxxxxxx |           73 |           73 |           73 |xxxxxxxxxxxxx |xxxxxxxxxxxxx |xxxxxxxxxxxxx |xxxxxxxxxxxxx |           76 |           76 |           76 |
bpred_bimod.jr_non_ras_hits.PP                   0 |            0 |            0 |xxxxxxxxxxxxx |xxxxxxxxxxxxx |xxxxxxxxxxxxx |xxxxxxxxxxxxx |            0 |            0 |            0 |xxxxxxxxxxxxx |xxxxxxxxxxxxx |xxxxxxxxxxxxx |xxxxxxxxxxxxx |            0 |            0 |            0 |xxxxxxxxxxxxx |xxxxxxxxxxxxx |xxxxxxxxxxxxx |xxxxxxxxxxxxx |            0 |            0 |            0 |xxxxxxxxxxxxx |xxxxxxxxxxxxx |xxxxxxxxxxxxx |xxxxxxxxxxxxx |            0 |            0 |            0 |xxxxxxxxxxxxx |xxxxxxxxxxxxx |xxxxxxxxxxxxx |xxxxxxxxxxxxx |            0 |            0 |            0 |xxxxxxxxxxxxx |xxxxxxxxxxxxx |xxxxxxxxxxxxx |xxxxxxxxxxxxx |            0 |            0 |            0 |xxxxxxxxxxxxx |xxxxxxxxxxxxx |xxxxxxxxxxxxx |xxxxxxxxxxxxx |            0 |            0 |            0 |xxxxxxxxxxxxx |xxxxxxxxxxxxx |xxxxxxxxxxxxx |xxxxxxxxxxxxx |            1 |            1 |            1 |xxxxxxxxxxxxx |xxxxxxxxxxxxx |xxxxxxxxxxxxx |xxxxxxxxxxxxx |            0 |            0 |            0 |xxxxxxxxxxxxx |xxxxxxxxxxxxx |xxxxxxxxxxxxx |xxxxxxxxxxxxx |            1 |            1 |            1 |
bpred_bimod.jr_non_ras_seen.PP                   1 |            1 |            1 |xxxxxxxxxxxxx |xxxxxxxxxxxxx |xxxxxxxxxxxxx |xxxxxxxxxxxxx |            0 |            0 |            0 |xxxxxxxxxxxxx |xxxxxxxxxxxxx |xxxxxxxxxxxxx |xxxxxxxxxxxxx |            1 |            1 |            1 |xxxxxxxxxxxxx |xxxxxxxxxxxxx |xxxxxxxxxxxxx |xxxxxxxxxxxxx |            0 |            0 |            0 |xxxxxxxxxxxxx |xxxxxxxxxxxxx |xxxxxxxxxxxxx |xxxxxxxxxxxxx |            1 |            1 |            1 |xxxxxxxxxxxxx |xxxxxxxxxxxxx |xxxxxxxxxxxxx |xxxxxxxxxxxxx |            0 |            0 |            0 |xxxxxxxxxxxxx |xxxxxxxxxxxxx |xxxxxxxxxxxxx |xxxxxxxxxxxxx |            1 |            1 |            1 |xxxxxxxxxxxxx |xxxxxxxxxxxxx |xxxxxxxxxxxxx |xxxxxxxxxxxxx |            0 |            0 |            0 |xxxxxxxxxxxxx |xxxxxxxxxxxxx |xxxxxxxxxxxxx |xxxxxxxxxxxxx |            2 |            2 |            2 |xxxxxxxxxxxxx |xxxxxxxxxxxxx |xxxxxxxxxxxxx |xxxxxxxxxxxxx |            1 |            1 |            1 |xxxxxxxxxxxxx |xxxxxxxxxxxxx |xxxxxxxxxxxxx |xxxxxxxxxxxxx |            2 |            2 |            2 |
bpred_bimod.bpred_addr_rate                 0.7766 |       0.7766 |       0.7767 |xxxxxxxxxxxxx |xxxxxxxxxxxxx |xxxxxxxxxxxxx |xxxxxxxxxxxxx |       0.7765 |       0.7765 |       0.7765 |xxxxxxxxxxxxx |xxxxxxxxxxxxx |xxxxxxxxxxxxx |xxxxxxxxxxxxx |       0.7792 |       0.7792 |       0.7792 |xxxxxxxxxxxxx |xxxxxxxxxxxxx |xxxxxxxxxxxxx |xxxxxxxxxxxxx |       0.7808 |       0.7808 |       0.7808 |xxxxxxxxxxxxx |xxxxxxxxxxxxx |xxxxxxxxxxxxx |xxxxxxxxxxxxx |       0.7824 |       0.7824 |       0.7824 |xxxxxxxxxxxxx |xxxxxxxxxxxxx |xxxxxxxxxxxxx |xxxxxxxxxxxxx |       0.7827 |       0.7827 |       0.7827 |xxxxxxxxxxxxx |xxxxxxxxxxxxx |xxxxxxxxxxxxx |xxxxxxxxxxxxx |       0.7845 |       0.7845 |       0.7845 |xxxxxxxxxxxxx |xxxxxxxxxxxxx |xxxxxxxxxxxxx |xxxxxxxxxxxxx |       0.7850 |       0.7850 |       0.7850 |xxxxxxxxxxxxx |xxxxxxxxxxxxx |xxxxxxxxxxxxx |xxxxxxxxxxxxx |       0.7863 |       0.7863 |       0.7863 |xxxxxxxxxxxxx |xxxxxxxxxxxxx |xxxxxxxxxxxxx |xxxxxxxxxxxxx |       0.7864 |       0.7864 |       0.7864 |xxxxxxxxxxxxx |xxxxxxxxxxxxx |xxxxxxxxxxxxx |xxxxxxxxxxxxx |       0.7876 |       0.7876 |       0.7876 |
bpred_bimod.bpred_dir_rate                  0.7775 |       0.7775 |       0.7776 |xxxxxxxxxxxxx |xxxxxxxxxxxxx |xxxxxxxxxxxxx |xxxxxxxxxxxxx |       0.7769 |       0.7769 |       0.7770 |xxxxxxxxxxxxx |xxxxxxxxxxxxx |xxxxxxxxxxxxx |xxxxxxxxxxxxx |       0.7794 |       0.7794 |       0.7794 |xxxxxxxxxxxxx |xxxxxxxxxxxxx |xxxxxxxxxxxxx |xxxxxxxxxxxxx |       0.7809 |       0.7809 |       0.7809 |xxxxxxxxxxxxx |xxxxxxxxxxxxx |xxxxxxxxxxxxx |xxxxxxxxxxxxx |       0.7825 |       0.7825 |       0.7825 |xxxxxxxxxxxxx |xxxxxxxxxxxxx |xxxxxxxxxxxxx |xxxxxxxxxxxxx |       0.7827 |       0.7827 |       0.7827 |xxxxxxxxxxxxx |xxxxxxxxxxxxx |xxxxxxxxxxxxx |xxxxxxxxxxxxx |       0.7845 |       0.7845 |       0.7845 |xxxxxxxxxxxxx |xxxxxxxxxxxxx |xxxxxxxxxxxxx |xxxxxxxxxxxxx |       0.7850 |       0.7850 |       0.7850 |xxxxxxxxxxxxx |xxxxxxxxxxxxx |xxxxxxxxxxxxx |xxxxxxxxxxxxx |       0.7863 |       0.7863 |       0.7863 |xxxxxxxxxxxxx |xxxxxxxxxxxxx |xxxxxxxxxxxxx |xxxxxxxxxxxxx |       0.7864 |       0.7864 |       0.7864 |xxxxxxxxxxxxx |xxxxxxxxxxxxx |xxxxxxxxxxxxx |xxxxxxxxxxxxx |       0.7876 |       0.7876 |       0.7876 |
bpred_bimod.bpred_jr_rate                   0.9844 |       0.9844 |       0.9844 |xxxxxxxxxxxxx |xxxxxxxxxxxxx |xxxxxxxxxxxxx |xxxxxxxxxxxxx |       0.9857 |       0.9857 |       0.9857 |xxxxxxxxxxxxx |xxxxxxxxxxxxx |xxxxxxxxxxxxx |xxxxxxxxxxxxx |       0.9726 |       0.9726 |       0.9726 |xxxxxxxxxxxxx |xxxxxxxxxxxxx |xxxxxxxxxxxxx |xxxxxxxxxxxxx |       0.9857 |       0.9857 |       0.9857 |xxxxxxxxxxxxx |xxxxxxxxxxxxx |xxxxxxxxxxxxx |xxxxxxxxxxxxx |       0.9726 |       0.9726 |       0.9726 |xxxxxxxxxxxxx |xxxxxxxxxxxxx |xxxxxxxxxxxxx |xxxxxxxxxxxxx |       0.9857 |       0.9857 |       0.9857 |xxxxxxxxxxxxx |xxxxxxxxxxxxx |xxxxxxxxxxxxx |xxxxxxxxxxxxx |       0.9726 |       0.9726 |       0.9726 |xxxxxxxxxxxxx |xxxxxxxxxxxxx |xxxxxxxxxxxxx |xxxxxxxxxxxxx |       0.9857 |       0.9857 |       0.9857 |xxxxxxxxxxxxx |xxxxxxxxxxxxx |xxxxxxxxxxxxx |xxxxxxxxxxxxx |       0.9868 |       0.9868 |       0.9868 |xxxxxxxxxxxxx |xxxxxxxxxxxxx |xxxxxxxxxxxxx |xxxxxxxxxxxxx |       0.9863 |       0.9863 |       0.9863 |xxxxxxxxxxxxx |xxxxxxxxxxxxx |xxxxxxxxxxxxx |xxxxxxxxxxxxx |       0.9868 |       0.9868 |       0.9868 |
bpred_bimod.bpred_jr_non_ras_rate.PP        0.0000 |       0.0000 |       0.0000 |xxxxxxxxxxxxx |xxxxxxxxxxxxx |xxxxxxxxxxxxx |xxxxxxxxxxxxx |      <error: |      <error: |      <error: |xxxxxxxxxxxxx |xxxxxxxxxxxxx |xxxxxxxxxxxxx |xxxxxxxxxxxxx |       0.0000 |       0.0000 |       0.0000 |xxxxxxxxxxxxx |xxxxxxxxxxxxx |xxxxxxxxxxxxx |xxxxxxxxxxxxx |      <error: |      <error: |      <error: |xxxxxxxxxxxxx |xxxxxxxxxxxxx |xxxxxxxxxxxxx |xxxxxxxxxxxxx |       0.0000 |       0.0000 |       0.0000 |xxxxxxxxxxxxx |xxxxxxxxxxxxx |xxxxxxxxxxxxx |xxxxxxxxxxxxx |      <error: |      <error: |      <error: |xxxxxxxxxxxxx |xxxxxxxxxxxxx |xxxxxxxxxxxxx |xxxxxxxxxxxxx |       0.0000 |       0.0000 |       0.0000 |xxxxxxxxxxxxx |xxxxxxxxxxxxx |xxxxxxxxxxxxx |xxxxxxxxxxxxx |      <error: |      <error: |      <error: |xxxxxxxxxxxxx |xxxxxxxxxxxxx |xxxxxxxxxxxxx |xxxxxxxxxxxxx |       0.5000 |       0.5000 |       0.5000 |xxxxxxxxxxxxx |xxxxxxxxxxxxx |xxxxxxxxxxxxx |xxxxxxxxxxxxx |       0.0000 |       0.0000 |       0.0000 |xxxxxxxxxxxxx |xxxxxxxxxxxxx |xxxxxxxxxxxxx |xxxxxxxxxxxxx |       0.5000 |       0.5000 |       0.5000 |
bpred_bimod.retstack_pushes                     65 |           65 |           65 |xxxxxxxxxxxxx |xxxxxxxxxxxxx |xxxxxxxxxxxxx |xxxxxxxxxxxxx |           72 |           72 |           72 |xxxxxxxxxxxxx |xxxxxxxxxxxxx |xxxxxxxxxxxxx |xxxxxxxxxxxxx |           74 |           74 |           74 |xxxxxxxxxxxxx |xxxxxxxxxxxxx |xxxxxxxxxxxxx |xxxxxxxxxxxxx |           72 |           72 |           72 |xxxxxxxxxxxxx |xxxxxxxxxxxxx |xxxxxxxxxxxxx |xxxxxxxxxxxxx |           74 |           74 |           74 |xxxxxxxxxxxxx |xxxxxxxxxxxxx |xxxxxxxxxxxxx |xxxxxxxxxxxxx |           72 |           72 |           72 |xxxxxxxxxxxxx |xxxxxxxxxxxxx |xxxxxxxxxxxxx |xxxxxxxxxxxxx |           74 |           74 |           74 |xxxxxxxxxxxxx |xxxxxxxxxxxxx |xxxxxxxxxxxxx |xxxxxxxxxxxxx |           72 |           72 |           72 |xxxxxxxxxxxxx |xxxxxxxxxxxxx |xxxxxxxxxxxxx |xxxxxxxxxxxxx |           76 |           76 |           76 |xxxxxxxxxxxxx |xxxxxxxxxxxxx |xxxxxxxxxxxxx |xxxxxxxxxxxxx |           74 |           74 |           74 |xxxxxxxxxxxxx |xxxxxxxxxxxxx |xxxxxxxxxxxxx |xxxxxxxxxxxxx |           76 |           76 |           76 |
bpred_bimod.retstack_pops                       63 |           63 |           63 |xxxxxxxxxxxxx |xxxxxxxxxxxxx |xxxxxxxxxxxxx |xxxxxxxxxxxxx |           70 |           70 |           70 |xxxxxxxxxxxxx |xxxxxxxxxxxxx |xxxxxxxxxxxxx |xxxxxxxxxxxxx |           72 |           72 |           72 |xxxxxxxxxxxxx |xxxxxxxxxxxxx |xxxxxxxxxxxxx |xxxxxxxxxxxxx |           70 |           70 |           70 |xxxxxxxxxxxxx |xxxxxxxxxxxxx |xxxxxxxxxxxxx |xxxxxxxxxxxxx |           72 |           72 |           72 |xxxxxxxxxxxxx |xxxxxxxxxxxxx |xxxxxxxxxxxxx |xxxxxxxxxxxxx |           70 |           70 |           70 |xxxxxxxxxxxxx |xxxxxxxxxxxxx |xxxxxxxxxxxxx |xxxxxxxxxxxxx |           72 |           72 |           72 |xxxxxxxxxxxxx |xxxxxxxxxxxxx |xxxxxxxxxxxxx |xxxxxxxxxxxxx |           70 |           70 |           70 |xxxxxxxxxxxxx |xxxxxxxxxxxxx |xxxxxxxxxxxxx |xxxxxxxxxxxxx |           74 |           74 |           74 |xxxxxxxxxxxxx |xxxxxxxxxxxxx |xxxxxxxxxxxxx |xxxxxxxxxxxxx |           72 |           72 |           72 |xxxxxxxxxxxxx |xxxxxxxxxxxxx |xxxxxxxxxxxxx |xxxxxxxxxxxxx |           74 |           74 |           74 |
bpred_bimod.used_ras.PP                         63 |           63 |           63 |xxxxxxxxxxxxx |xxxxxxxxxxxxx |xxxxxxxxxxxxx |xxxxxxxxxxxxx |           70 |           70 |           70 |xxxxxxxxxxxxx |xxxxxxxxxxxxx |xxxxxxxxxxxxx |xxxxxxxxxxxxx |           72 |           72 |           72 |xxxxxxxxxxxxx |xxxxxxxxxxxxx |xxxxxxxxxxxxx |xxxxxxxxxxxxx |           70 |           70 |           70 |xxxxxxxxxxxxx |xxxxxxxxxxxxx |xxxxxxxxxxxxx |xxxxxxxxxxxxx |           72 |           72 |           72 |xxxxxxxxxxxxx |xxxxxxxxxxxxx |xxxxxxxxxxxxx |xxxxxxxxxxxxx |           70 |           70 |           70 |xxxxxxxxxxxxx |xxxxxxxxxxxxx |xxxxxxxxxxxxx |xxxxxxxxxxxxx |           72 |           72 |           72 |xxxxxxxxxxxxx |xxxxxxxxxxxxx |xxxxxxxxxxxxx |xxxxxxxxxxxxx |           70 |           70 |           70 |xxxxxxxxxxxxx |xxxxxxxxxxxxx |xxxxxxxxxxxxx |xxxxxxxxxxxxx |           74 |           74 |           74 |xxxxxxxxxxxxx |xxxxxxxxxxxxx |xxxxxxxxxxxxx |xxxxxxxxxxxxx |           72 |           72 |           72 |xxxxxxxxxxxxx |xxxxxxxxxxxxx |xxxxxxxxxxxxx |xxxxxxxxxxxxx |           74 |           74 |           74 |
bpred_bimod.ras_hits.PP                         63 |           63 |           63 |xxxxxxxxxxxxx |xxxxxxxxxxxxx |xxxxxxxxxxxxx |xxxxxxxxxxxxx |           69 |           69 |           69 |xxxxxxxxxxxxx |xxxxxxxxxxxxx |xxxxxxxxxxxxx |xxxxxxxxxxxxx |           71 |           71 |           71 |xxxxxxxxxxxxx |xxxxxxxxxxxxx |xxxxxxxxxxxxx |xxxxxxxxxxxxx |           69 |           69 |           69 |xxxxxxxxxxxxx |xxxxxxxxxxxxx |xxxxxxxxxxxxx |xxxxxxxxxxxxx |           71 |           71 |           71 |xxxxxxxxxxxxx |xxxxxxxxxxxxx |xxxxxxxxxxxxx |xxxxxxxxxxxxx |           69 |           69 |           69 |xxxxxxxxxxxxx |xxxxxxxxxxxxx |xxxxxxxxxxxxx |xxxxxxxxxxxxx |           71 |           71 |           71 |xxxxxxxxxxxxx |xxxxxxxxxxxxx |xxxxxxxxxxxxx |xxxxxxxxxxxxx |           69 |           69 |           69 |xxxxxxxxxxxxx |xxxxxxxxxxxxx |xxxxxxxxxxxxx |xxxxxxxxxxxxx |           74 |           74 |           74 |xxxxxxxxxxxxx |xxxxxxxxxxxxx |xxxxxxxxxxxxx |xxxxxxxxxxxxx |           72 |           72 |           72 |xxxxxxxxxxxxx |xxxxxxxxxxxxx |xxxxxxxxxxxxx |xxxxxxxxxxxxx |           74 |           74 |           74 |
bpred_bimod.ras_rate.PP                     1.0000 |       1.0000 |       1.0000 |xxxxxxxxxxxxx |xxxxxxxxxxxxx |xxxxxxxxxxxxx |xxxxxxxxxxxxx |       0.9857 |       0.9857 |       0.9857 |xxxxxxxxxxxxx |xxxxxxxxxxxxx |xxxxxxxxxxxxx |xxxxxxxxxxxxx |       0.9861 |       0.9861 |       0.9861 |xxxxxxxxxxxxx |xxxxxxxxxxxxx |xxxxxxxxxxxxx |xxxxxxxxxxxxx |       0.9857 |       0.9857 |       0.9857 |xxxxxxxxxxxxx |xxxxxxxxxxxxx |xxxxxxxxxxxxx |xxxxxxxxxxxxx |       0.9861 |       0.9861 |       0.9861 |xxxxxxxxxxxxx |xxxxxxxxxxxxx |xxxxxxxxxxxxx |xxxxxxxxxxxxx |       0.9857 |       0.9857 |       0.9857 |xxxxxxxxxxxxx |xxxxxxxxxxxxx |xxxxxxxxxxxxx |xxxxxxxxxxxxx |       0.9861 |       0.9861 |       0.9861 |xxxxxxxxxxxxx |xxxxxxxxxxxxx |xxxxxxxxxxxxx |xxxxxxxxxxxxx |       0.9857 |       0.9857 |       0.9857 |xxxxxxxxxxxxx |xxxxxxxxxxxxx |xxxxxxxxxxxxx |xxxxxxxxxxxxx |       1.0000 |       1.0000 |       1.0000 |xxxxxxxxxxxxx |xxxxxxxxxxxxx |xxxxxxxxxxxxx |xxxxxxxxxxxxx |       1.0000 |       1.0000 |       1.0000 |xxxxxxxxxxxxx |xxxxxxxxxxxxx |xxxxxxxxxxxxx |xxxxxxxxxxxxx |       1.0000 |       1.0000 |       1.0000 |
bpred_2lev.lookups                   xxxxxxxxxxxxx |xxxxxxxxxxxxx |xxxxxxxxxxxxx |       112706 |       112706 |       112706 |       112706 |xxxxxxxxxxxxx |xxxxxxxxxxxxx |xxxxxxxxxxxxx |       243838 |       243838 |       243838 |       243838 |xxxxxxxxxxxxx |xxxxxxxxxxxxx |xxxxxxxxxxxxx |       529369 |       529369 |       529369 |       529369 |xxxxxxxxxxxxx |xxxxxxxxxxxxx |xxxxxxxxxxxxx |      1136453 |      1136453 |      1136453 |      1136453 |xxxxxxxxxxxxx |xxxxxxxxxxxxx |xxxxxxxxxxxxx |      2443541 |      2443541 |      2443541 |      2443541 |xxxxxxxxxxxxx |xxxxxxxxxxxxx |xxxxxxxxxxxxx |      5198160 |      5198160 |      5198160 |      5198160 |xxxxxxxxxxxxx |xxxxxxxxxxxxx |xxxxxxxxxxxxx |     11083154 |     11083154 |     11083154 |     11083154 |xxxxxxxxxxxxx |xxxxxxxxxxxxx |xxxxxxxxxxxxx |     23413231 |     23413231 |     23413231 |     23413231 |xxxxxxxxxxxxx |xxxxxxxxxxxxx |xxxxxxxxxxxxx |     49576738 |     49576738 |     49576738 |     49576738 |xxxxxxxxxxxxx |xxxxxxxxxxxxx |xxxxxxxxxxxxx |    104131481 |    104131481 |    104131481 |    104131481 |xxxxxxxxxxxxx |xxxxxxxxxxxxx |xxxxxxxxxxxxx |    219279339 |    219279339 |    219279339 |    219279339 |
[...]
bpred_2lev.bpred_jr_non_ras_rate.PP  xxxxxxxxxxxxx |xxxxxxxxxxxxx |xxxxxxxxxxxxx |       0.0000 |       0.0000 |       0.0000 |       0.0000 |xxxxxxxxxxxxx |xxxxxxxxxxxxx |xxxxxxxxxxxxx |      <error: |      <error: |      <error: |      <error: |xxxxxxxxxxxxx |xxxxxxxxxxxxx |xxxxxxxxxxxxx |       0.0000 |       0.0000 |       0.0000 |       0.0000 |xxxxxxxxxxxxx |xxxxxxxxxxxxx |xxxxxxxxxxxxx |      <error: |      <error: |      <error: |      <error: |xxxxxxxxxxxxx |xxxxxxxxxxxxx |xxxxxxxxxxxxx |       0.0000 |       0.0000 |       0.0000 |       0.0000 |xxxxxxxxxxxxx |xxxxxxxxxxxxx |xxxxxxxxxxxxx |      <error: |      <error: |      <error: |      <error: |xxxxxxxxxxxxx |xxxxxxxxxxxxx |xxxxxxxxxxxxx |       0.0000 |       0.0000 |       0.0000 |       0.0000 |xxxxxxxxxxxxx |xxxxxxxxxxxxx |xxxxxxxxxxxxx |      <error: |      <error: |      <error: |      <error: |xxxxxxxxxxxxx |xxxxxxxxxxxxx |xxxxxxxxxxxxx |       0.5000 |       0.5000 |       0.5000 |       0.5000 |xxxxxxxxxxxxx |xxxxxxxxxxxxx |xxxxxxxxxxxxx |       0.0000 |       0.0000 |       0.0000 |       0.0000 |xxxxxxxxxxxxx |xxxxxxxxxxxxx |xxxxxxxxxxxxx |       0.5000 |       0.5000 |       0.5000 |       0.5000 |
bpred_2lev.retstack_pushes           xxxxxxxxxxxxx |xxxxxxxxxxxxx |xxxxxxxxxxxxx |           65 |           65 |           65 |           65 |xxxxxxxxxxxxx |xxxxxxxxxxxxx |xxxxxxxxxxxxx |           72 |           72 |           72 |           72 |xxxxxxxxxxxxx |xxxxxxxxxxxxx |xxxxxxxxxxxxx |           74 |           74 |           74 |           74 |xxxxxxxxxxxxx |xxxxxxxxxxxxx |xxxxxxxxxxxxx |           72 |           72 |           72 |           72 |xxxxxxxxxxxxx |xxxxxxxxxxxxx |xxxxxxxxxxxxx |           74 |           74 |           74 |           74 |xxxxxxxxxxxxx |xxxxxxxxxxxxx |xxxxxxxxxxxxx |           72 |           72 |           72 |           72 |xxxxxxxxxxxxx |xxxxxxxxxxxxx |xxxxxxxxxxxxx |           74 |           74 |           74 |           74 |xxxxxxxxxxxxx |xxxxxxxxxxxxx |xxxxxxxxxxxxx |           72 |           72 |           72 |           72 |xxxxxxxxxxxxx |xxxxxxxxxxxxx |xxxxxxxxxxxxx |           76 |           76 |           76 |           76 |xxxxxxxxxxxxx |xxxxxxxxxxxxx |xxxxxxxxxxxxx |           74 |           74 |           74 |           74 |xxxxxxxxxxxxx |xxxxxxxxxxxxx |xxxxxxxxxxxxx |           76 |           76 |           76 |           76 |
bpred_2lev.retstack_pops             xxxxxxxxxxxxx |xxxxxxxxxxxxx |xxxxxxxxxxxxx |           63 |           63 |           63 |           63 |xxxxxxxxxxxxx |xxxxxxxxxxxxx |xxxxxxxxxxxxx |           70 |           70 |           70 |           70 |xxxxxxxxxxxxx |xxxxxxxxxxxxx |xxxxxxxxxxxxx |           72 |           72 |           72 |           72 |xxxxxxxxxxxxx |xxxxxxxxxxxxx |xxxxxxxxxxxxx |           70 |           70 |           70 |           70 |xxxxxxxxxxxxx |xxxxxxxxxxxxx |xxxxxxxxxxxxx |           72 |           72 |           72 |           72 |xxxxxxxxxxxxx |xxxxxxxxxxxxx |xxxxxxxxxxxxx |           70 |           70 |           70 |           70 |xxxxxxxxxxxxx |xxxxxxxxxxxxx |xxxxxxxxxxxxx |           72 |           72 |           72 |           72 |xxxxxxxxxxxxx |xxxxxxxxxxxxx |xxxxxxxxxxxxx |           70 |           70 |           70 |           70 |xxxxxxxxxxxxx |xxxxxxxxxxxxx |xxxxxxxxxxxxx |           74 |           74 |           74 |           74 |xxxxxxxxxxxxx |xxxxxxxxxxxxx |xxxxxxxxxxxxx |           72 |           72 |           72 |           72 |xxxxxxxxxxxxx |xxxxxxxxxxxxx |xxxxxxxxxxxxx |           74 |           74 |           74 |           74 |
bpred_2lev.used_ras.PP               xxxxxxxxxxxxx |xxxxxxxxxxxxx |xxxxxxxxxxxxx |           63 |           63 |           63 |           63 |xxxxxxxxxxxxx |xxxxxxxxxxxxx |xxxxxxxxxxxxx |           70 |           70 |           70 |           70 |xxxxxxxxxxxxx |xxxxxxxxxxxxx |xxxxxxxxxxxxx |           72 |           72 |           72 |           72 |xxxxxxxxxxxxx |xxxxxxxxxxxxx |xxxxxxxxxxxxx |           70 |           70 |           70 |           70 |xxxxxxxxxxxxx |xxxxxxxxxxxxx |xxxxxxxxxxxxx |           72 |           72 |           72 |           72 |xxxxxxxxxxxxx |xxxxxxxxxxxxx |xxxxxxxxxxxxx |           70 |           70 |           70 |           70 |xxxxxxxxxxxxx |xxxxxxxxxxxxx |xxxxxxxxxxxxx |           72 |           72 |           72 |           72 |xxxxxxxxxxxxx |xxxxxxxxxxxxx |xxxxxxxxxxxxx |           70 |           70 |           70 |           70 |xxxxxxxxxxxxx |xxxxxxxxxxxxx |xxxxxxxxxxxxx |           74 |           74 |           74 |           74 |xxxxxxxxxxxxx |xxxxxxxxxxxxx |xxxxxxxxxxxxx |           72 |           72 |           72 |           72 |xxxxxxxxxxxxx |xxxxxxxxxxxxx |xxxxxxxxxxxxx |           74 |           74 |           74 |           74 |
bpred_2lev.ras_hits.PP               xxxxxxxxxxxxx |xxxxxxxxxxxxx |xxxxxxxxxxxxx |           63 |           63 |           63 |           63 |xxxxxxxxxxxxx |xxxxxxxxxxxxx |xxxxxxxxxxxxx |           69 |           69 |           69 |           69 |xxxxxxxxxxxxx |xxxxxxxxxxxxx |xxxxxxxxxxxxx |           71 |           71 |           71 |           71 |xxxxxxxxxxxxx |xxxxxxxxxxxxx |xxxxxxxxxxxxx |           69 |           69 |           69 |           69 |xxxxxxxxxxxxx |xxxxxxxxxxxxx |xxxxxxxxxxxxx |           71 |           71 |           71 |           71 |xxxxxxxxxxxxx |xxxxxxxxxxxxx |xxxxxxxxxxxxx |           69 |           69 |           69 |           69 |xxxxxxxxxxxxx |xxxxxxxxxxxxx |xxxxxxxxxxxxx |           71 |           71 |           71 |           71 |xxxxxxxxxxxxx |xxxxxxxxxxxxx |xxxxxxxxxxxxx |           69 |           69 |           69 |           69 |xxxxxxxxxxxxx |xxxxxxxxxxxxx |xxxxxxxxxxxxx |           74 |           74 |           74 |           74 |xxxxxxxxxxxxx |xxxxxxxxxxxxx |xxxxxxxxxxxxx |           72 |           72 |           72 |           72 |xxxxxxxxxxxxx |xxxxxxxxxxxxx |xxxxxxxxxxxxx |           74 |           74 |           74 |           74 |
bpred_2lev.ras_rate.PP               xxxxxxxxxxxxx |xxxxxxxxxxxxx |xxxxxxxxxxxxx |       1.0000 |       1.0000 |       1.0000 |       1.0000 |xxxxxxxxxxxxx |xxxxxxxxxxxxx |xxxxxxxxxxxxx |       0.9857 |       0.9857 |       0.9857 |       0.9857 |xxxxxxxxxxxxx |xxxxxxxxxxxxx |xxxxxxxxxxxxx |       0.9861 |       0.9861 |       0.9861 |       0.9861 |xxxxxxxxxxxxx |xxxxxxxxxxxxx |xxxxxxxxxxxxx |       0.9857 |       0.9857 |       0.9857 |       0.9857 |xxxxxxxxxxxxx |xxxxxxxxxxxxx |xxxxxxxxxxxxx |       0.9861 |       0.9861 |       0.9861 |       0.9861 |xxxxxxxxxxxxx |xxxxxxxxxxxxx |xxxxxxxxxxxxx |       0.9857 |       0.9857 |       0.9857 |       0.9857 |xxxxxxxxxxxxx |xxxxxxxxxxxxx |xxxxxxxxxxxxx |       0.9861 |       0.9861 |       0.9861 |       0.9861 |xxxxxxxxxxxxx |xxxxxxxxxxxxx |xxxxxxxxxxxxx |       0.9857 |       0.9857 |       0.9857 |       0.9857 |xxxxxxxxxxxxx |xxxxxxxxxxxxx |xxxxxxxxxxxxx |       1.0000 |       1.0000 |       1.0000 |       1.0000 |xxxxxxxxxxxxx |xxxxxxxxxxxxx |xxxxxxxxxxxxx |       1.0000 |       1.0000 |       1.0000 |       1.0000 |xxxxxxxxxxxxx |xxxxxxxxxxxxx |xxxxxxxxxxxxx |       1.0000 |       1.0000 |       1.0000 |       1.0000 |

Command list: 
	sslittle-na-sstrix-gcc -Wall -O3 -funroll-loops -finline-functions  -DRANDOM_SIZE=4096 -DOFFSET=2 -DSORT=algorithm_n sorts/algorithm_n79712059.c simpleMain.c -o algorithm_n1866213385
	sim-cache -cache:dl1 dl1:256:32:1:l -cache:dl2 dl2:131072:32:1:l -cache:il1 il1:256:32:1:l -cache:il2 dl2 algorithm_n1866213385
	sim-cache -cache:dl1 dl1:256:32:1:l -cache:dl2 dl2:65536:32:1:l -cache:il1 il1:256:32:1:l -cache:il2 dl2 algorithm_n1866213385
	sim-cache -cache:dl1 dl1:1:32:256:l -cache:dl2 dl2:1:32:131072:l -cache:il1 il1:1:32:256:l -cache:il2 dl2 algorithm_n1866213385
	sim-cache -cache:dl1 dl1:1:32:256:l -cache:dl2 dl2:1:32:65536:l -cache:il1 il1:1:32:256:l -cache:il2 dl2 algorithm_n1866213385
	sim-bpred -bpred bimod -bpred:bimod 512 algorithm_n1866213385
	sim-bpred -bpred bimod -bpred:bimod 1024 algorithm_n1866213385
	sim-bpred -bpred bimod -bpred:bimod 2048 algorithm_n1866213385
	sim-bpred -bpred 2lev -bpred:2lev 1 512 10 1 algorithm_n1866213385
	sim-bpred -bpred 2lev -bpred:2lev 1 1024 10 1 algorithm_n1866213385
	sim-bpred -bpred 2lev -bpred:2lev 1 2048 10 1 algorithm_n1866213385
	sim-bpred -bpred 2lev -bpred:2lev 1 4096 10 1 algorithm_n1866213385
	sslittle-na-sstrix-gcc -Wall -O3 -funroll-loops -finline-functions  -DRANDOM_SIZE=8192 -DOFFSET=2 -DSORT=algorithm_n sorts/algorithm_n79712059.c simpleMain.c -o algorithm_n1866213385
	sim-cache -cache:dl1 dl1:256:32:1:l -cache:dl2 dl2:131072:32:1:l -cache:il1 il1:256:32:1:l -cache:il2 dl2 algorithm_n1866213385
	sim-cache -cache:dl1 dl1:256:32:1:l -cache:dl2 dl2:65536:32:1:l -cache:il1 il1:256:32:1:l -cache:il2 dl2 algorithm_n1866213385
	sim-cache -cache:dl1 dl1:1:32:256:l -cache:dl2 dl2:1:32:131072:l -cache:il1 il1:1:32:256:l -cache:il2 dl2 algorithm_n1866213385
	sim-cache -cache:dl1 dl1:1:32:256:l -cache:dl2 dl2:1:32:65536:l -cache:il1 il1:1:32:256:l -cache:il2 dl2 algorithm_n1866213385
	sim-bpred -bpred bimod -bpred:bimod 512 algorithm_n1866213385
	sim-bpred -bpred bimod -bpred:bimod 1024 algorithm_n1866213385
	sim-bpred -bpred bimod -bpred:bimod 2048 algorithm_n1866213385
	sim-bpred -bpred 2lev -bpred:2lev 1 512 10 1 algorithm_n1866213385
	sim-bpred -bpred 2lev -bpred:2lev 1 1024 10 1 algorithm_n1866213385
	sim-bpred -bpred 2lev -bpred:2lev 1 2048 10 1 algorithm_n1866213385
	sim-bpred -bpred 2lev -bpred:2lev 1 4096 10 1 algorithm_n1866213385
	sslittle-na-sstrix-gcc -Wall -O3 -funroll-loops -finline-functions  -DRANDOM_SIZE=16384 -DOFFSET=2 -DSORT=algorithm_n sorts/algorithm_n79712059.c simpleMain.c -o algorithm_n1866213385
	sim-cache -cache:dl1 dl1:256:32:1:l -cache:dl2 dl2:131072:32:1:l -cache:il1 il1:256:32:1:l -cache:il2 dl2 algorithm_n1866213385
	sim-cache -cache:dl1 dl1:256:32:1:l -cache:dl2 dl2:65536:32:1:l -cache:il1 il1:256:32:1:l -cache:il2 dl2 algorithm_n1866213385
	sim-cache -cache:dl1 dl1:1:32:256:l -cache:dl2 dl2:1:32:131072:l -cache:il1 il1:1:32:256:l -cache:il2 dl2 algorithm_n1866213385
	sim-cache -cache:dl1 dl1:1:32:256:l -cache:dl2 dl2:1:32:65536:l -cache:il1 il1:1:32:256:l -cache:il2 dl2 algorithm_n1866213385
	sim-bpred -bpred bimod -bpred:bimod 512 algorithm_n1866213385
	sim-bpred -bpred bimod -bpred:bimod 1024 algorithm_n1866213385
	sim-bpred -bpred bimod -bpred:bimod 2048 algorithm_n1866213385
	sim-bpred -bpred 2lev -bpred:2lev 1 512 10 1 algorithm_n1866213385
	sim-bpred -bpred 2lev -bpred:2lev 1 1024 10 1 algorithm_n1866213385
	sim-bpred -bpred 2lev -bpred:2lev 1 2048 10 1 algorithm_n1866213385
	sim-bpred -bpred 2lev -bpred:2lev 1 4096 10 1 algorithm_n1866213385
	sslittle-na-sstrix-gcc -Wall -O3 -funroll-loops -finline-functions  -DRANDOM_SIZE=32768 -DOFFSET=2 -DSORT=algorithm_n sorts/algorithm_n79712059.c simpleMain.c -o algorithm_n1866213385
	sim-cache -cache:dl1 dl1:256:32:1:l -cache:dl2 dl2:131072:32:1:l -cache:il1 il1:256:32:1:l -cache:il2 dl2 algorithm_n1866213385
	sim-cache -cache:dl1 dl1:256:32:1:l -cache:dl2 dl2:65536:32:1:l -cache:il1 il1:256:32:1:l -cache:il2 dl2 algorithm_n1866213385
	sim-cache -cache:dl1 dl1:1:32:256:l -cache:dl2 dl2:1:32:131072:l -cache:il1 il1:1:32:256:l -cache:il2 dl2 algorithm_n1866213385
	sim-cache -cache:dl1 dl1:1:32:256:l -cache:dl2 dl2:1:32:65536:l -cache:il1 il1:1:32:256:l -cache:il2 dl2 algorithm_n1866213385
	sim-bpred -bpred bimod -bpred:bimod 512 algorithm_n1866213385
	sim-bpred -bpred bimod -bpred:bimod 1024 algorithm_n1866213385
	sim-bpred -bpred bimod -bpred:bimod 2048 algorithm_n1866213385
	sim-bpred -bpred 2lev -bpred:2lev 1 512 10 1 algorithm_n1866213385
	sim-bpred -bpred 2lev -bpred:2lev 1 1024 10 1 algorithm_n1866213385
	sim-bpred -bpred 2lev -bpred:2lev 1 2048 10 1 algorithm_n1866213385
	sim-bpred -bpred 2lev -bpred:2lev 1 4096 10 1 algorithm_n1866213385
	sslittle-na-sstrix-gcc -Wall -O3 -funroll-loops -finline-functions  -DRANDOM_SIZE=65536 -DOFFSET=2 -DSORT=algorithm_n sorts/algorithm_n79712059.c simpleMain.c -o algorithm_n1866213385
	sim-cache -cache:dl1 dl1:256:32:1:l -cache:dl2 dl2:131072:32:1:l -cache:il1 il1:256:32:1:l -cache:il2 dl2 algorithm_n1866213385
	sim-cache -cache:dl1 dl1:256:32:1:l -cache:dl2 dl2:65536:32:1:l -cache:il1 il1:256:32:1:l -cache:il2 dl2 algorithm_n1866213385
	sim-cache -cache:dl1 dl1:1:32:256:l -cache:dl2 dl2:1:32:131072:l -cache:il1 il1:1:32:256:l -cache:il2 dl2 algorithm_n1866213385
	sim-cache -cache:dl1 dl1:1:32:256:l -cache:dl2 dl2:1:32:65536:l -cache:il1 il1:1:32:256:l -cache:il2 dl2 algorithm_n1866213385
	sim-bpred -bpred bimod -bpred:bimod 512 algorithm_n1866213385
	sim-bpred -bpred bimod -bpred:bimod 1024 algorithm_n1866213385
	sim-bpred -bpred bimod -bpred:bimod 2048 algorithm_n1866213385
	sim-bpred -bpred 2lev -bpred:2lev 1 512 10 1 algorithm_n1866213385
	sim-bpred -bpred 2lev -bpred:2lev 1 1024 10 1 algorithm_n1866213385
	sim-bpred -bpred 2lev -bpred:2lev 1 2048 10 1 algorithm_n1866213385
	sim-bpred -bpred 2lev -bpred:2lev 1 4096 10 1 algorithm_n1866213385
	sslittle-na-sstrix-gcc -Wall -O3 -funroll-loops -finline-functions  -DRANDOM_SIZE=131072 -DOFFSET=2 -DSORT=algorithm_n sorts/algorithm_n79712059.c simpleMain.c -o algorithm_n1866213385
	sim-cache -cache:dl1 dl1:256:32:1:l -cache:dl2 dl2:131072:32:1:l -cache:il1 il1:256:32:1:l -cache:il2 dl2 algorithm_n1866213385
	sim-cache -cache:dl1 dl1:256:32:1:l -cache:dl2 dl2:65536:32:1:l -cache:il1 il1:256:32:1:l -cache:il2 dl2 algorithm_n1866213385
	sim-cache -cache:dl1 dl1:1:32:256:l -cache:dl2 dl2:1:32:131072:l -cache:il1 il1:1:32:256:l -cache:il2 dl2 algorithm_n1866213385
	sim-cache -cache:dl1 dl1:1:32:256:l -cache:dl2 dl2:1:32:65536:l -cache:il1 il1:1:32:256:l -cache:il2 dl2 algorithm_n1866213385
	sim-bpred -bpred bimod -bpred:bimod 512 algorithm_n1866213385
	sim-bpred -bpred bimod -bpred:bimod 1024 algorithm_n1866213385
	sim-bpred -bpred bimod -bpred:bimod 2048 algorithm_n1866213385
	sim-bpred -bpred 2lev -bpred:2lev 1 512 10 1 algorithm_n1866213385
	sim-bpred -bpred 2lev -bpred:2lev 1 1024 10 1 algorithm_n1866213385
	sim-bpred -bpred 2lev -bpred:2lev 1 2048 10 1 algorithm_n1866213385
	sim-bpred -bpred 2lev -bpred:2lev 1 4096 10 1 algorithm_n1866213385
	sslittle-na-sstrix-gcc -Wall -O3 -funroll-loops -finline-functions  -DRANDOM_SIZE=262144 -DOFFSET=2 -DSORT=algorithm_n sorts/algorithm_n79712059.c simpleMain.c -o algorithm_n1866213385
	sim-cache -cache:dl1 dl1:256:32:1:l -cache:dl2 dl2:131072:32:1:l -cache:il1 il1:256:32:1:l -cache:il2 dl2 algorithm_n1866213385
	sim-cache -cache:dl1 dl1:256:32:1:l -cache:dl2 dl2:65536:32:1:l -cache:il1 il1:256:32:1:l -cache:il2 dl2 algorithm_n1866213385
	sim-cache -cache:dl1 dl1:1:32:256:l -cache:dl2 dl2:1:32:131072:l -cache:il1 il1:1:32:256:l -cache:il2 dl2 algorithm_n1866213385
	sim-cache -cache:dl1 dl1:1:32:256:l -cache:dl2 dl2:1:32:65536:l -cache:il1 il1:1:32:256:l -cache:il2 dl2 algorithm_n1866213385
	sim-bpred -bpred bimod -bpred:bimod 512 algorithm_n1866213385
	sim-bpred -bpred bimod -bpred:bimod 1024 algorithm_n1866213385
	sim-bpred -bpred bimod -bpred:bimod 2048 algorithm_n1866213385
	sim-bpred -bpred 2lev -bpred:2lev 1 512 10 1 algorithm_n1866213385
	sim-bpred -bpred 2lev -bpred:2lev 1 1024 10 1 algorithm_n1866213385
	sim-bpred -bpred 2lev -bpred:2lev 1 2048 10 1 algorithm_n1866213385
	sim-bpred -bpred 2lev -bpred:2lev 1 4096 10 1 algorithm_n1866213385
	sslittle-na-sstrix-gcc -Wall -O3 -funroll-loops -finline-functions  -DRANDOM_SIZE=524288 -DOFFSET=2 -DSORT=algorithm_n sorts/algorithm_n79712059.c simpleMain.c -o algorithm_n1866213385
	sim-cache -cache:dl1 dl1:256:32:1:l -cache:dl2 dl2:131072:32:1:l -cache:il1 il1:256:32:1:l -cache:il2 dl2 algorithm_n1866213385
	sim-cache -cache:dl1 dl1:256:32:1:l -cache:dl2 dl2:65536:32:1:l -cache:il1 il1:256:32:1:l -cache:il2 dl2 algorithm_n1866213385
	sim-cache -cache:dl1 dl1:1:32:256:l -cache:dl2 dl2:1:32:131072:l -cache:il1 il1:1:32:256:l -cache:il2 dl2 algorithm_n1866213385
	sim-cache -cache:dl1 dl1:1:32:256:l -cache:dl2 dl2:1:32:65536:l -cache:il1 il1:1:32:256:l -cache:il2 dl2 algorithm_n1866213385
	sim-bpred -bpred bimod -bpred:bimod 512 algorithm_n1866213385
	sim-bpred -bpred bimod -bpred:bimod 1024 algorithm_n1866213385
	sim-bpred -bpred bimod -bpred:bimod 2048 algorithm_n1866213385
	sim-bpred -bpred 2lev -bpred:2lev 1 512 10 1 algorithm_n1866213385
	sim-bpred -bpred 2lev -bpred:2lev 1 1024 10 1 algorithm_n1866213385
	sim-bpred -bpred 2lev -bpred:2lev 1 2048 10 1 algorithm_n1866213385
	sim-bpred -bpred 2lev -bpred:2lev 1 4096 10 1 algorithm_n1866213385
	sslittle-na-sstrix-gcc -Wall -O3 -funroll-loops -finline-functions  -DRANDOM_SIZE=1048576 -DOFFSET=2 -DSORT=algorithm_n sorts/algorithm_n79712059.c simpleMain.c -o algorithm_n1866213385
	sim-cache -cache:dl1 dl1:256:32:1:l -cache:dl2 dl2:131072:32:1:l -cache:il1 il1:256:32:1:l -cache:il2 dl2 algorithm_n1866213385
	sim-cache -cache:dl1 dl1:256:32:1:l -cache:dl2 dl2:65536:32:1:l -cache:il1 il1:256:32:1:l -cache:il2 dl2 algorithm_n1866213385
	sim-cache -cache:dl1 dl1:1:32:256:l -cache:dl2 dl2:1:32:131072:l -cache:il1 il1:1:32:256:l -cache:il2 dl2 algorithm_n1866213385
	sim-cache -cache:dl1 dl1:1:32:256:l -cache:dl2 dl2:1:32:65536:l -cache:il1 il1:1:32:256:l -cache:il2 dl2 algorithm_n1866213385
	sim-bpred -bpred bimod -bpred:bimod 512 algorithm_n1866213385
	sim-bpred -bpred bimod -bpred:bimod 1024 algorithm_n1866213385
	sim-bpred -bpred bimod -bpred:bimod 2048 algorithm_n1866213385
	sim-bpred -bpred 2lev -bpred:2lev 1 512 10 1 algorithm_n1866213385
	sim-bpred -bpred 2lev -bpred:2lev 1 1024 10 1 algorithm_n1866213385
	sim-bpred -bpred 2lev -bpred:2lev 1 2048 10 1 algorithm_n1866213385
	sim-bpred -bpred 2lev -bpred:2lev 1 4096 10 1 algorithm_n1866213385
	sslittle-na-sstrix-gcc -Wall -O3 -funroll-loops -finline-functions  -DRANDOM_SIZE=2097152 -DOFFSET=2 -DSORT=algorithm_n sorts/algorithm_n79712059.c simpleMain.c -o algorithm_n1866213385
	sim-cache -cache:dl1 dl1:256:32:1:l -cache:dl2 dl2:131072:32:1:l -cache:il1 il1:256:32:1:l -cache:il2 dl2 algorithm_n1866213385
	sim-cache -cache:dl1 dl1:256:32:1:l -cache:dl2 dl2:65536:32:1:l -cache:il1 il1:256:32:1:l -cache:il2 dl2 algorithm_n1866213385
	sim-cache -cache:dl1 dl1:1:32:256:l -cache:dl2 dl2:1:32:131072:l -cache:il1 il1:1:32:256:l -cache:il2 dl2 algorithm_n1866213385
	sim-cache -cache:dl1 dl1:1:32:256:l -cache:dl2 dl2:1:32:65536:l -cache:il1 il1:1:32:256:l -cache:il2 dl2 algorithm_n1866213385
	sim-bpred -bpred bimod -bpred:bimod 512 algorithm_n1866213385
	sim-bpred -bpred bimod -bpred:bimod 1024 algorithm_n1866213385
	sim-bpred -bpred bimod -bpred:bimod 2048 algorithm_n1866213385
	sim-bpred -bpred 2lev -bpred:2lev 1 512 10 1 algorithm_n1866213385
	sim-bpred -bpred 2lev -bpred:2lev 1 1024 10 1 algorithm_n1866213385
	sim-bpred -bpred 2lev -bpred:2lev 1 2048 10 1 algorithm_n1866213385
	sim-bpred -bpred 2lev -bpred:2lev 1 4096 10 1 algorithm_n1866213385
	sslittle-na-sstrix-gcc -Wall -O3 -funroll-loops -finline-functions  -DRANDOM_SIZE=4194304 -DOFFSET=2 -DSORT=algorithm_n sorts/algorithm_n79712059.c simpleMain.c -o algorithm_n1866213385
	sim-cache -cache:dl1 dl1:256:32:1:l -cache:dl2 dl2:131072:32:1:l -cache:il1 il1:256:32:1:l -cache:il2 dl2 algorithm_n1866213385
	sim-cache -cache:dl1 dl1:256:32:1:l -cache:dl2 dl2:65536:32:1:l -cache:il1 il1:256:32:1:l -cache:il2 dl2 algorithm_n1866213385
	sim-cache -cache:dl1 dl1:1:32:256:l -cache:dl2 dl2:1:32:131072:l -cache:il1 il1:1:32:256:l -cache:il2 dl2 algorithm_n1866213385
	sim-cache -cache:dl1 dl1:1:32:256:l -cache:dl2 dl2:1:32:65536:l -cache:il1 il1:1:32:256:l -cache:il2 dl2 algorithm_n1866213385
	sim-bpred -bpred bimod -bpred:bimod 512 algorithm_n1866213385
	sim-bpred -bpred bimod -bpred:bimod 1024 algorithm_n1866213385
	sim-bpred -bpred bimod -bpred:bimod 2048 algorithm_n1866213385
	sim-bpred -bpred 2lev -bpred:2lev 1 512 10 1 algorithm_n1866213385
	sim-bpred -bpred 2lev -bpred:2lev 1 1024 10 1 algorithm_n1866213385
	sim-bpred -bpred 2lev -bpred:2lev 1 2048 10 1 algorithm_n1866213385
	sim-bpred -bpred 2lev -bpred:2lev 1 4096 10 1 algorithm_n1866213385
