Wed Jun 22 15:14:33 2005
Run as: "./do_simple -c random.org1 -o 1 knuth_other_base_mergesort"
-------------------------------------------------------------------------------------------------
sim-cache                                     4096 |         4096 |         4096 |         4096 |         8192 |         8192 |         8192 |         8192 |        16384 |        16384 |        16384 |        16384 |        32768 |        32768 |        32768 |        32768 |        65536 |        65536 |        65536 |        65536 |       131072 |       131072 |       131072 |       131072 |       262144 |       262144 |       262144 |       262144 |       524288 |       524288 |       524288 |       524288 |      1048576 |      1048576 |      1048576 |      1048576 |      2097152 |      2097152 |      2097152 |      2097152 |      4194304 |      4194304 |      4194304 |      4194304 |
-cache:dl1 dl1:256:32:1:l -cache:dl2 dl2:131072:32:1:l -cache:il1 il1:256:32:1:l -cache:il2 dl2
-cache:dl1 dl1:256:32:1:l -cache:dl2 dl2:65536:32:1:l -cache:il1 il1:256:32:1:l -cache:il2 dl2
-cache:dl1 dl1:1:32:256:l -cache:dl2 dl2:1:32:131072:l -cache:il1 il1:1:32:256:l -cache:il2 dl2
-cache:dl1 dl1:1:32:256:l -cache:dl2 dl2:1:32:65536:l -cache:il1 il1:1:32:256:l -cache:il2 dl2
-------------------------------------------------------------------------------------------------
sim_num_insn                                766260 |       766260 |       766260 |       766260 |      1669073 |      1669073 |      1669073 |      1669073 |      3536636 |      3536636 |      3536636 |      3536636 |      7639699 |      7639699 |      7639699 |      7639699 |     16092958 |     16092958 |     16092958 |     16092958 |     34471579 |     34471579 |     34471579 |     34471579 |     72211206 |     72211206 |     72211206 |     72211206 |    153594040 |    153594040 |    153594040 |    153594040 |    320300229 |    320300229 |    320300229 |    320300229 |    677283146 |    677283146 |    677283146 |    677283146 |   1406984831 |   1406984831 |   1406984831 |   1406984831 |
sim_num_refs                                146034 |       146034 |       146034 |       146034 |       329236 |       329236 |       329236 |       329236 |       671215 |       671215 |       671215 |       671215 |      1502401 |      1502401 |      1502401 |      1502401 |      3066790 |      3066790 |      3066790 |      3066790 |      6784951 |      6784951 |      6784951 |      6784951 |     13827892 |     13827892 |     13827892 |     13827892 |     30274228 |     30274228 |     30274228 |     30274228 |     61601868 |     61601868 |     61601868 |     61601868 |    133681303 |    133681303 |    133681303 |    133681303 |    271550394 |    271550394 |    271550394 |    271550394 |
sim_elapsed_time                                 1 |            1 |            9 |            4 |            1 |            1 |           14 |            7 |            1 |            1 |           24 |           12 |            2 |            2 |           45 |           22 |            4 |            4 |           82 |           41 |            8 |            8 |          152 |           71 |           17 |           18 |          261 |           99 |           37 |           37 |          361 |          122 |           78 |           78 |          408 |          175 |          165 |          165 |          511 |          270 |          342 |          341 |          716 |          474 |
sim_inst_rate                          766260.0000 |  766260.0000 |   85140.0000 |  191565.0000 | 1669073.0000 | 1669073.0000 |  119219.5000 |  238439.0000 | 3536636.0000 | 3536636.0000 |  147359.8333 |  294719.6667 | 3819849.5000 | 3819849.5000 |  169771.0889 |  347259.0455 | 4023239.5000 | 4023239.5000 |  196255.5854 |  392511.1707 | 4308947.3750 | 4308947.3750 |  226786.7039 |  485515.1972 | 4247718.0000 | 4011733.6667 |  276671.2874 |  729406.1212 | 4151190.2703 | 4151190.2703 |  425468.2548 | 1258967.5410 | 4106413.1923 | 4106413.1923 |  785049.5809 | 1830287.0229 | 4104746.3394 | 4104746.3394 | 1325407.3307 | 2508456.0963 | 4113990.7339 | 4126055.2229 | 1965062.6131 | 2968322.4283 |
il1.accesses                                766260 |       766260 |       766260 |       766260 |      1669073 |      1669073 |      1669073 |      1669073 |      3536636 |      3536636 |      3536636 |      3536636 |      7639699 |      7639699 |      7639699 |      7639699 |     16092958 |     16092958 |     16092958 |     16092958 |     34471579 |     34471579 |     34471579 |     34471579 |     72211206 |     72211206 |     72211206 |     72211206 |    153594040 |    153594040 |    153594040 |    153594040 |    320300229 |    320300229 |    320300229 |    320300229 |    677283146 |    677283146 |    677283146 |    677283146 |   1406984831 |   1406984831 |   1406984831 |   1406984831 |
il1.hits                                    765851 |       765851 |       765916 |       765916 |      1668607 |      1668607 |      1668716 |      1668716 |      3536200 |      3536200 |      3536297 |      3536297 |      7639230 |      7639230 |      7639340 |      7639340 |     16092512 |     16092512 |     16092622 |     16092622 |     34471111 |     34471111 |     34471220 |     34471220 |     72210761 |     72210761 |     72210870 |     72210870 |    153593572 |    153593572 |    153593681 |    153593681 |    320299760 |    320299760 |    320299837 |    320299837 |    677282670 |    677282670 |    677282750 |    677282750 |   1406984362 |   1406984362 |   1406984439 |   1406984439 |
il1.misses                                     409 |          409 |          344 |          344 |          466 |          466 |          357 |          357 |          436 |          436 |          339 |          339 |          469 |          469 |          359 |          359 |          446 |          446 |          336 |          336 |          468 |          468 |          359 |          359 |          445 |          445 |          336 |          336 |          468 |          468 |          359 |          359 |          469 |          469 |          392 |          392 |          476 |          476 |          396 |          396 |          469 |          469 |          392 |          392 |
il1.replacements                               223 |          223 |           88 |           88 |          265 |          265 |          101 |          101 |          251 |          251 |           83 |           83 |          268 |          268 |          103 |          103 |          264 |          264 |           80 |           80 |          267 |          267 |          103 |          103 |          263 |          263 |           80 |           80 |          267 |          267 |          103 |          103 |          251 |          251 |          136 |          136 |          258 |          258 |          140 |          140 |          251 |          251 |          136 |          136 |
il1.writebacks                                   0 |            0 |            0 |            0 |            0 |            0 |            0 |            0 |            0 |            0 |            0 |            0 |            0 |            0 |            0 |            0 |            0 |            0 |            0 |            0 |            0 |            0 |            0 |            0 |            0 |            0 |            0 |            0 |            0 |            0 |            0 |            0 |            0 |            0 |            0 |            0 |            0 |            0 |            0 |            0 |            0 |            0 |            0 |            0 |
il1.invalidations                                0 |            0 |            0 |            0 |            0 |            0 |            0 |            0 |            0 |            0 |            0 |            0 |            0 |            0 |            0 |            0 |            0 |            0 |            0 |            0 |            0 |            0 |            0 |            0 |            0 |            0 |            0 |            0 |            0 |            0 |            0 |            0 |            0 |            0 |            0 |            0 |            0 |            0 |            0 |            0 |            0 |            0 |            0 |            0 |
il1.miss_rate                               0.0005 |       0.0005 |       0.0004 |       0.0004 |       0.0003 |       0.0003 |       0.0002 |       0.0002 |       0.0001 |       0.0001 |       0.0001 |       0.0001 |       0.0001 |       0.0001 |       0.0000 |       0.0000 |       0.0000 |       0.0000 |       0.0000 |       0.0000 |       0.0000 |       0.0000 |       0.0000 |       0.0000 |       0.0000 |       0.0000 |       0.0000 |       0.0000 |       0.0000 |       0.0000 |       0.0000 |       0.0000 |       0.0000 |       0.0000 |       0.0000 |       0.0000 |       0.0000 |       0.0000 |       0.0000 |       0.0000 |       0.0000 |       0.0000 |       0.0000 |       0.0000 |
il1.repl_rate                               0.0003 |       0.0003 |       0.0001 |       0.0001 |       0.0002 |       0.0002 |       0.0001 |       0.0001 |       0.0001 |       0.0001 |       0.0000 |       0.0000 |       0.0000 |       0.0000 |       0.0000 |       0.0000 |       0.0000 |       0.0000 |       0.0000 |       0.0000 |       0.0000 |       0.0000 |       0.0000 |       0.0000 |       0.0000 |       0.0000 |       0.0000 |       0.0000 |       0.0000 |       0.0000 |       0.0000 |       0.0000 |       0.0000 |       0.0000 |       0.0000 |       0.0000 |       0.0000 |       0.0000 |       0.0000 |       0.0000 |       0.0000 |       0.0000 |       0.0000 |       0.0000 |
il1.wb_rate                                 0.0000 |       0.0000 |       0.0000 |       0.0000 |       0.0000 |       0.0000 |       0.0000 |       0.0000 |       0.0000 |       0.0000 |       0.0000 |       0.0000 |       0.0000 |       0.0000 |       0.0000 |       0.0000 |       0.0000 |       0.0000 |       0.0000 |       0.0000 |       0.0000 |       0.0000 |       0.0000 |       0.0000 |       0.0000 |       0.0000 |       0.0000 |       0.0000 |       0.0000 |       0.0000 |       0.0000 |       0.0000 |       0.0000 |       0.0000 |       0.0000 |       0.0000 |       0.0000 |       0.0000 |       0.0000 |       0.0000 |       0.0000 |       0.0000 |       0.0000 |       0.0000 |
il1.inv_rate                                0.0000 |       0.0000 |       0.0000 |       0.0000 |       0.0000 |       0.0000 |       0.0000 |       0.0000 |       0.0000 |       0.0000 |       0.0000 |       0.0000 |       0.0000 |       0.0000 |       0.0000 |       0.0000 |       0.0000 |       0.0000 |       0.0000 |       0.0000 |       0.0000 |       0.0000 |       0.0000 |       0.0000 |       0.0000 |       0.0000 |       0.0000 |       0.0000 |       0.0000 |       0.0000 |       0.0000 |       0.0000 |       0.0000 |       0.0000 |       0.0000 |       0.0000 |       0.0000 |       0.0000 |       0.0000 |       0.0000 |       0.0000 |       0.0000 |       0.0000 |       0.0000 |
dl1.accesses                                162500 |       162500 |       162500 |       162500 |       362086 |       362086 |       362086 |       362086 |       736833 |       736833 |       736833 |       736833 |      1633555 |      1633555 |      1633555 |      1633555 |      3329016 |      3329016 |      3329016 |      3329016 |      7309321 |      7309321 |      7309321 |      7309321 |     14876550 |     14876550 |     14876550 |     14876550 |     32371462 |     32371462 |     32371462 |     32371462 |     65796254 |     65796254 |     65796254 |     65796254 |    142069993 |    142069993 |    142069993 |    142069993 |    288327692 |    288327692 |    288327692 |    288327692 |
dl1.hits                                    148639 |       148639 |       149237 |       149237 |       330502 |       330502 |       331915 |       331915 |       673659 |       673659 |       676959 |       676959 |      1490724 |      1490724 |      1497879 |      1497879 |      3042357 |      3042357 |      3058133 |      3058133 |      6668145 |      6668145 |      6702476 |      6702476 |     13589177 |     13589177 |     13663330 |     13663330 |     29523291 |     29523291 |     29683336 |     29683336 |     60076107 |     60076107 |     60419314 |     60419314 |    129538236 |    129538236 |    130268387 |    130268387 |    263174120 |    263174120 |    264725343 |    264725343 |
dl1.misses                                   13861 |        13861 |        13263 |        13263 |        31584 |        31584 |        30171 |        30171 |        63174 |        63174 |        59874 |        59874 |       142831 |       142831 |       135676 |       135676 |       286659 |       286659 |       270883 |       270883 |       641176 |       641176 |       606845 |       606845 |      1287373 |      1287373 |      1213220 |      1213220 |      2848171 |      2848171 |      2688126 |      2688126 |      5720147 |      5720147 |      5376940 |      5376940 |     12531757 |     12531757 |     11801606 |     11801606 |     25153572 |     25153572 |     23602349 |     23602349 |
dl1.replacements                             13605 |        13605 |        13007 |        13007 |        31328 |        31328 |        29915 |        29915 |        62918 |        62918 |        59618 |        59618 |       142575 |       142575 |       135420 |       135420 |       286403 |       286403 |       270627 |       270627 |       640920 |       640920 |       606589 |       606589 |      1287117 |      1287117 |      1212964 |      1212964 |      2847915 |      2847915 |      2687870 |      2687870 |      5719891 |      5719891 |      5376684 |      5376684 |     12531501 |     12531501 |     11801350 |     11801350 |     25153316 |     25153316 |     23602093 |     23602093 |
dl1.writebacks                                7241 |         7241 |         6961 |         6961 |        16239 |        16239 |        15674 |        15674 |        32286 |        32286 |        31042 |        31042 |        72625 |        72625 |        69978 |        69978 |       145449 |       145449 |       139650 |       139650 |       324112 |       324112 |       311770 |       311770 |       649910 |       649910 |       623234 |       623234 |      1434023 |      1434023 |      1377242 |      1377242 |      2876219 |      2876219 |      2754951 |      2754951 |      6289466 |      6289466 |      6033886 |      6033886 |     12608209 |     12608209 |     12067463 |     12067463 |
dl1.invalidations                                0 |            0 |            0 |            0 |            0 |            0 |            0 |            0 |            0 |            0 |            0 |            0 |            0 |            0 |            0 |            0 |            0 |            0 |            0 |            0 |            0 |            0 |            0 |            0 |            0 |            0 |            0 |            0 |            0 |            0 |            0 |            0 |            0 |            0 |            0 |            0 |            0 |            0 |            0 |            0 |            0 |            0 |            0 |            0 |
dl1.miss_rate                               0.0853 |       0.0853 |       0.0816 |       0.0816 |       0.0872 |       0.0872 |       0.0833 |       0.0833 |       0.0857 |       0.0857 |       0.0813 |       0.0813 |       0.0874 |       0.0874 |       0.0831 |       0.0831 |       0.0861 |       0.0861 |       0.0814 |       0.0814 |       0.0877 |       0.0877 |       0.0830 |       0.0830 |       0.0865 |       0.0865 |       0.0816 |       0.0816 |       0.0880 |       0.0880 |       0.0830 |       0.0830 |       0.0869 |       0.0869 |       0.0817 |       0.0817 |       0.0882 |       0.0882 |       0.0831 |       0.0831 |       0.0872 |       0.0872 |       0.0819 |       0.0819 |
dl1.repl_rate                               0.0837 |       0.0837 |       0.0800 |       0.0800 |       0.0865 |       0.0865 |       0.0826 |       0.0826 |       0.0854 |       0.0854 |       0.0809 |       0.0809 |       0.0873 |       0.0873 |       0.0829 |       0.0829 |       0.0860 |       0.0860 |       0.0813 |       0.0813 |       0.0877 |       0.0877 |       0.0830 |       0.0830 |       0.0865 |       0.0865 |       0.0815 |       0.0815 |       0.0880 |       0.0880 |       0.0830 |       0.0830 |       0.0869 |       0.0869 |       0.0817 |       0.0817 |       0.0882 |       0.0882 |       0.0831 |       0.0831 |       0.0872 |       0.0872 |       0.0819 |       0.0819 |
dl1.wb_rate                                 0.0446 |       0.0446 |       0.0428 |       0.0428 |       0.0448 |       0.0448 |       0.0433 |       0.0433 |       0.0438 |       0.0438 |       0.0421 |       0.0421 |       0.0445 |       0.0445 |       0.0428 |       0.0428 |       0.0437 |       0.0437 |       0.0419 |       0.0419 |       0.0443 |       0.0443 |       0.0427 |       0.0427 |       0.0437 |       0.0437 |       0.0419 |       0.0419 |       0.0443 |       0.0443 |       0.0425 |       0.0425 |       0.0437 |       0.0437 |       0.0419 |       0.0419 |       0.0443 |       0.0443 |       0.0425 |       0.0425 |       0.0437 |       0.0437 |       0.0419 |       0.0419 |
dl1.inv_rate                                0.0000 |       0.0000 |       0.0000 |       0.0000 |       0.0000 |       0.0000 |       0.0000 |       0.0000 |       0.0000 |       0.0000 |       0.0000 |       0.0000 |       0.0000 |       0.0000 |       0.0000 |       0.0000 |       0.0000 |       0.0000 |       0.0000 |       0.0000 |       0.0000 |       0.0000 |       0.0000 |       0.0000 |       0.0000 |       0.0000 |       0.0000 |       0.0000 |       0.0000 |       0.0000 |       0.0000 |       0.0000 |       0.0000 |       0.0000 |       0.0000 |       0.0000 |       0.0000 |       0.0000 |       0.0000 |       0.0000 |       0.0000 |       0.0000 |       0.0000 |       0.0000 |
dl2.accesses                                 21511 |        21511 |        20568 |        20568 |        48289 |        48289 |        46202 |        46202 |        95896 |        95896 |        91255 |        91255 |       215925 |       215925 |       206013 |       206013 |       432554 |       432554 |       410869 |       410869 |       965756 |       965756 |       918974 |       918974 |      1937728 |      1937728 |      1836790 |      1836790 |      4282662 |      4282662 |      4065727 |      4065727 |      8596835 |      8596835 |      8132283 |      8132283 |     18821699 |     18821699 |     17835888 |     17835888 |     37762250 |     37762250 |     35670204 |     35670204 |
dl2.hits                                     19713 |        19713 |        18788 |        18788 |        45445 |        45445 |        43384 |        43384 |        91018 |        91018 |        86407 |        86407 |       206934 |       206934 |       197049 |       197049 |       415395 |       415395 |       393737 |       393737 |       932189 |       932189 |       885434 |       885434 |      1871416 |      1816396 |      1770506 |      1472246 |      4089620 |      1843701 |      3310397 |      1394254 |      3790191 |      3260409 |      2789210 |      2772764 |      7107080 |      7051465 |      6069255 |      6052871 |     14225576 |     14190636 |     12105176 |     12088792 |
dl2.misses                                    1798 |         1798 |         1780 |         1780 |         2844 |         2844 |         2818 |         2818 |         4878 |         4878 |         4848 |         4848 |         8991 |         8991 |         8964 |         8964 |        17159 |        17159 |        17132 |        17132 |        33567 |        33567 |        33540 |        33540 |        66312 |       121332 |        66284 |       364544 |       193042 |      2438961 |       755330 |      2671473 |      4806644 |      5336426 |      5343073 |      5359519 |     11714619 |     11770234 |     11766633 |     11783017 |     23536674 |     23571614 |     23565028 |     23581412 |
dl2.replacements                               185 |          185 |            0 |            0 |          213 |          213 |            0 |            0 |          232 |          232 |            0 |            0 |          235 |          235 |            0 |            0 |          226 |          226 |            0 |            0 |          235 |          235 |            0 |            0 |          227 |        56918 |            0 |       299008 |        63077 |      2373425 |       624258 |      2605937 |      4675572 |      5270890 |      5212001 |      5293983 |     11583547 |     11704698 |     11635561 |     11717481 |     23405602 |     23506078 |     23433956 |     23515876 |
dl2.writebacks                                 112 |          112 |            0 |            0 |          136 |          136 |            0 |            0 |          151 |          151 |            0 |            0 |          155 |          155 |            0 |            0 |          146 |          146 |            0 |            0 |          155 |          155 |            0 |            0 |          146 |        31316 |            0 |       298463 |        35225 |      1313197 |       623694 |      1343940 |      2709493 |      2711719 |      2688185 |      2720953 |      5902946 |      5968843 |      5965758 |      5998526 |     11977838 |     12022286 |     11996605 |     12029373 |
dl2.invalidations                                0 |            0 |            0 |            0 |            0 |            0 |            0 |            0 |            0 |            0 |            0 |            0 |            0 |            0 |            0 |            0 |            0 |            0 |            0 |            0 |            0 |            0 |            0 |            0 |            0 |            0 |            0 |            0 |            0 |            0 |            0 |            0 |            0 |            0 |            0 |            0 |            0 |            0 |            0 |            0 |            0 |            0 |            0 |            0 |
dl2.miss_rate                               0.0836 |       0.0836 |       0.0865 |       0.0865 |       0.0589 |       0.0589 |       0.0610 |       0.0610 |       0.0509 |       0.0509 |       0.0531 |       0.0531 |       0.0416 |       0.0416 |       0.0435 |       0.0435 |       0.0397 |       0.0397 |       0.0417 |       0.0417 |       0.0348 |       0.0348 |       0.0365 |       0.0365 |       0.0342 |       0.0626 |       0.0361 |       0.1985 |       0.0451 |       0.5695 |       0.1858 |       0.6571 |       0.5591 |       0.6207 |       0.6570 |       0.6590 |       0.6224 |       0.6254 |       0.6597 |       0.6606 |       0.6233 |       0.6242 |       0.6606 |       0.6611 |
dl2.repl_rate                               0.0086 |       0.0086 |       0.0000 |       0.0000 |       0.0044 |       0.0044 |       0.0000 |       0.0000 |       0.0024 |       0.0024 |       0.0000 |       0.0000 |       0.0011 |       0.0011 |       0.0000 |       0.0000 |       0.0005 |       0.0005 |       0.0000 |       0.0000 |       0.0002 |       0.0002 |       0.0000 |       0.0000 |       0.0001 |       0.0294 |       0.0000 |       0.1628 |       0.0147 |       0.5542 |       0.1535 |       0.6410 |       0.5439 |       0.6131 |       0.6409 |       0.6510 |       0.6154 |       0.6219 |       0.6524 |       0.6570 |       0.6198 |       0.6225 |       0.6570 |       0.6593 |
dl2.wb_rate                                 0.0052 |       0.0052 |       0.0000 |       0.0000 |       0.0028 |       0.0028 |       0.0000 |       0.0000 |       0.0016 |       0.0016 |       0.0000 |       0.0000 |       0.0007 |       0.0007 |       0.0000 |       0.0000 |       0.0003 |       0.0003 |       0.0000 |       0.0000 |       0.0002 |       0.0002 |       0.0000 |       0.0000 |       0.0001 |       0.0162 |       0.0000 |       0.1625 |       0.0082 |       0.3066 |       0.1534 |       0.3306 |       0.3152 |       0.3154 |       0.3306 |       0.3346 |       0.3136 |       0.3171 |       0.3345 |       0.3363 |       0.3172 |       0.3184 |       0.3363 |       0.3372 |
dl2.inv_rate                                0.0000 |       0.0000 |       0.0000 |       0.0000 |       0.0000 |       0.0000 |       0.0000 |       0.0000 |       0.0000 |       0.0000 |       0.0000 |       0.0000 |       0.0000 |       0.0000 |       0.0000 |       0.0000 |       0.0000 |       0.0000 |       0.0000 |       0.0000 |       0.0000 |       0.0000 |       0.0000 |       0.0000 |       0.0000 |       0.0000 |       0.0000 |       0.0000 |       0.0000 |       0.0000 |       0.0000 |       0.0000 |       0.0000 |       0.0000 |       0.0000 |       0.0000 |       0.0000 |       0.0000 |       0.0000 |       0.0000 |       0.0000 |       0.0000 |       0.0000 |       0.0000 |
itlb.accesses                               766260 |       766260 |       766260 |       766260 |      1669073 |      1669073 |      1669073 |      1669073 |      3536636 |      3536636 |      3536636 |      3536636 |      7639699 |      7639699 |      7639699 |      7639699 |     16092958 |     16092958 |     16092958 |     16092958 |     34471579 |     34471579 |     34471579 |     34471579 |     72211206 |     72211206 |     72211206 |     72211206 |    153594040 |    153594040 |    153594040 |    153594040 |    320300229 |    320300229 |    320300229 |    320300229 |    677283146 |    677283146 |    677283146 |    677283146 |   1406984831 |   1406984831 |   1406984831 |   1406984831 |
itlb.hits                                   766251 |       766251 |       766251 |       766251 |      1669064 |      1669064 |      1669064 |      1669064 |      3536627 |      3536627 |      3536627 |      3536627 |      7639690 |      7639690 |      7639690 |      7639690 |     16092949 |     16092949 |     16092949 |     16092949 |     34471570 |     34471570 |     34471570 |     34471570 |     72211197 |     72211197 |     72211197 |     72211197 |    153594031 |    153594031 |    153594031 |    153594031 |    320300220 |    320300220 |    320300220 |    320300220 |    677283137 |    677283137 |    677283137 |    677283137 |   1406984822 |   1406984822 |   1406984822 |   1406984822 |
itlb.misses                                      9 |            9 |            9 |            9 |            9 |            9 |            9 |            9 |            9 |            9 |            9 |            9 |            9 |            9 |            9 |            9 |            9 |            9 |            9 |            9 |            9 |            9 |            9 |            9 |            9 |            9 |            9 |            9 |            9 |            9 |            9 |            9 |            9 |            9 |            9 |            9 |            9 |            9 |            9 |            9 |            9 |            9 |            9 |            9 |
itlb.replacements                                0 |            0 |            0 |            0 |            0 |            0 |            0 |            0 |            0 |            0 |            0 |            0 |            0 |            0 |            0 |            0 |            0 |            0 |            0 |            0 |            0 |            0 |            0 |            0 |            0 |            0 |            0 |            0 |            0 |            0 |            0 |            0 |            0 |            0 |            0 |            0 |            0 |            0 |            0 |            0 |            0 |            0 |            0 |            0 |
itlb.writebacks                                  0 |            0 |            0 |            0 |            0 |            0 |            0 |            0 |            0 |            0 |            0 |            0 |            0 |            0 |            0 |            0 |            0 |            0 |            0 |            0 |            0 |            0 |            0 |            0 |            0 |            0 |            0 |            0 |            0 |            0 |            0 |            0 |            0 |            0 |            0 |            0 |            0 |            0 |            0 |            0 |            0 |            0 |            0 |            0 |
itlb.invalidations                               0 |            0 |            0 |            0 |            0 |            0 |            0 |            0 |            0 |            0 |            0 |            0 |            0 |            0 |            0 |            0 |            0 |            0 |            0 |            0 |            0 |            0 |            0 |            0 |            0 |            0 |            0 |            0 |            0 |            0 |            0 |            0 |            0 |            0 |            0 |            0 |            0 |            0 |            0 |            0 |            0 |            0 |            0 |            0 |
itlb.miss_rate                              0.0000 |       0.0000 |       0.0000 |       0.0000 |       0.0000 |       0.0000 |       0.0000 |       0.0000 |       0.0000 |       0.0000 |       0.0000 |       0.0000 |       0.0000 |       0.0000 |       0.0000 |       0.0000 |       0.0000 |       0.0000 |       0.0000 |       0.0000 |       0.0000 |       0.0000 |       0.0000 |       0.0000 |       0.0000 |       0.0000 |       0.0000 |       0.0000 |       0.0000 |       0.0000 |       0.0000 |       0.0000 |       0.0000 |       0.0000 |       0.0000 |       0.0000 |       0.0000 |       0.0000 |       0.0000 |       0.0000 |       0.0000 |       0.0000 |       0.0000 |       0.0000 |
itlb.repl_rate                              0.0000 |       0.0000 |       0.0000 |       0.0000 |       0.0000 |       0.0000 |       0.0000 |       0.0000 |       0.0000 |       0.0000 |       0.0000 |       0.0000 |       0.0000 |       0.0000 |       0.0000 |       0.0000 |       0.0000 |       0.0000 |       0.0000 |       0.0000 |       0.0000 |       0.0000 |       0.0000 |       0.0000 |       0.0000 |       0.0000 |       0.0000 |       0.0000 |       0.0000 |       0.0000 |       0.0000 |       0.0000 |       0.0000 |       0.0000 |       0.0000 |       0.0000 |       0.0000 |       0.0000 |       0.0000 |       0.0000 |       0.0000 |       0.0000 |       0.0000 |       0.0000 |
itlb.wb_rate                                0.0000 |       0.0000 |       0.0000 |       0.0000 |       0.0000 |       0.0000 |       0.0000 |       0.0000 |       0.0000 |       0.0000 |       0.0000 |       0.0000 |       0.0000 |       0.0000 |       0.0000 |       0.0000 |       0.0000 |       0.0000 |       0.0000 |       0.0000 |       0.0000 |       0.0000 |       0.0000 |       0.0000 |       0.0000 |       0.0000 |       0.0000 |       0.0000 |       0.0000 |       0.0000 |       0.0000 |       0.0000 |       0.0000 |       0.0000 |       0.0000 |       0.0000 |       0.0000 |       0.0000 |       0.0000 |       0.0000 |       0.0000 |       0.0000 |       0.0000 |       0.0000 |
itlb.inv_rate                               0.0000 |       0.0000 |       0.0000 |       0.0000 |       0.0000 |       0.0000 |       0.0000 |       0.0000 |       0.0000 |       0.0000 |       0.0000 |       0.0000 |       0.0000 |       0.0000 |       0.0000 |       0.0000 |       0.0000 |       0.0000 |       0.0000 |       0.0000 |       0.0000 |       0.0000 |       0.0000 |       0.0000 |       0.0000 |       0.0000 |       0.0000 |       0.0000 |       0.0000 |       0.0000 |       0.0000 |       0.0000 |       0.0000 |       0.0000 |       0.0000 |       0.0000 |       0.0000 |       0.0000 |       0.0000 |       0.0000 |       0.0000 |       0.0000 |       0.0000 |       0.0000 |
dtlb.accesses                               162500 |       162500 |       162500 |       162500 |       362086 |       362086 |       362086 |       362086 |       736833 |       736833 |       736833 |       736833 |      1633555 |      1633555 |      1633555 |      1633555 |      3329016 |      3329016 |      3329016 |      3329016 |      7309321 |      7309321 |      7309321 |      7309321 |     14876550 |     14876550 |     14876550 |     14876550 |     32371462 |     32371462 |     32371462 |     32371462 |     65796254 |     65796254 |     65796254 |     65796254 |    142069993 |    142069993 |    142069993 |    142069993 |    288327692 |    288327692 |    288327692 |    288327692 |
dtlb.hits                                   162485 |       162485 |       162485 |       162485 |       362063 |       362063 |       362063 |       362063 |       736794 |       736794 |       736794 |       736794 |      1633484 |      1633484 |      1633484 |      1633484 |      3328805 |      3328805 |      3328805 |      3328805 |      7304629 |      7304629 |      7304629 |      7304629 |     14867076 |     14867076 |     14867076 |     14867076 |     32350459 |     32350459 |     32350459 |     32350459 |     65754244 |     65754244 |     65754244 |     65754244 |    141977777 |    141977777 |    141977777 |    141977777 |    288143258 |    288143258 |    288143258 |    288143258 |
dtlb.misses                                     15 |           15 |           15 |           15 |           23 |           23 |           23 |           23 |           39 |           39 |           39 |           39 |           71 |           71 |           71 |           71 |          211 |          211 |          211 |          211 |         4692 |         4692 |         4692 |         4692 |         9474 |         9474 |         9474 |         9474 |        21003 |        21003 |        21003 |        21003 |        42010 |        42010 |        42010 |        42010 |        92216 |        92216 |        92216 |        92216 |       184434 |       184434 |       184434 |       184434 |
dtlb.replacements                                0 |            0 |            0 |            0 |            0 |            0 |            0 |            0 |            0 |            0 |            0 |            0 |            0 |            0 |            0 |            0 |           83 |           83 |           83 |           83 |         4564 |         4564 |         4564 |         4564 |         9346 |         9346 |         9346 |         9346 |        20875 |        20875 |        20875 |        20875 |        41882 |        41882 |        41882 |        41882 |        92088 |        92088 |        92088 |        92088 |       184306 |       184306 |       184306 |       184306 |
dtlb.writebacks                                  0 |            0 |            0 |            0 |            0 |            0 |            0 |            0 |            0 |            0 |            0 |            0 |            0 |            0 |            0 |            0 |           47 |           47 |           47 |           47 |         2389 |         2389 |         2389 |         2389 |         4821 |         4821 |         4821 |         4821 |        10718 |        10718 |        10718 |        10718 |        21483 |        21483 |        21483 |        21483 |        47112 |        47112 |        47112 |        47112 |        94269 |        94269 |        94269 |        94269 |
dtlb.invalidations                               0 |            0 |            0 |            0 |            0 |            0 |            0 |            0 |            0 |            0 |            0 |            0 |            0 |            0 |            0 |            0 |            0 |            0 |            0 |            0 |            0 |            0 |            0 |            0 |            0 |            0 |            0 |            0 |            0 |            0 |            0 |            0 |            0 |            0 |            0 |            0 |            0 |            0 |            0 |            0 |            0 |            0 |            0 |            0 |
dtlb.miss_rate                              0.0001 |       0.0001 |       0.0001 |       0.0001 |       0.0001 |       0.0001 |       0.0001 |       0.0001 |       0.0001 |       0.0001 |       0.0001 |       0.0001 |       0.0000 |       0.0000 |       0.0000 |       0.0000 |       0.0001 |       0.0001 |       0.0001 |       0.0001 |       0.0006 |       0.0006 |       0.0006 |       0.0006 |       0.0006 |       0.0006 |       0.0006 |       0.0006 |       0.0006 |       0.0006 |       0.0006 |       0.0006 |       0.0006 |       0.0006 |       0.0006 |       0.0006 |       0.0006 |       0.0006 |       0.0006 |       0.0006 |       0.0006 |       0.0006 |       0.0006 |       0.0006 |
dtlb.repl_rate                              0.0000 |       0.0000 |       0.0000 |       0.0000 |       0.0000 |       0.0000 |       0.0000 |       0.0000 |       0.0000 |       0.0000 |       0.0000 |       0.0000 |       0.0000 |       0.0000 |       0.0000 |       0.0000 |       0.0000 |       0.0000 |       0.0000 |       0.0000 |       0.0006 |       0.0006 |       0.0006 |       0.0006 |       0.0006 |       0.0006 |       0.0006 |       0.0006 |       0.0006 |       0.0006 |       0.0006 |       0.0006 |       0.0006 |       0.0006 |       0.0006 |       0.0006 |       0.0006 |       0.0006 |       0.0006 |       0.0006 |       0.0006 |       0.0006 |       0.0006 |       0.0006 |
dtlb.wb_rate                                0.0000 |       0.0000 |       0.0000 |       0.0000 |       0.0000 |       0.0000 |       0.0000 |       0.0000 |       0.0000 |       0.0000 |       0.0000 |       0.0000 |       0.0000 |       0.0000 |       0.0000 |       0.0000 |       0.0000 |       0.0000 |       0.0000 |       0.0000 |       0.0003 |       0.0003 |       0.0003 |       0.0003 |       0.0003 |       0.0003 |       0.0003 |       0.0003 |       0.0003 |       0.0003 |       0.0003 |       0.0003 |       0.0003 |       0.0003 |       0.0003 |       0.0003 |       0.0003 |       0.0003 |       0.0003 |       0.0003 |       0.0003 |       0.0003 |       0.0003 |       0.0003 |
dtlb.inv_rate                               0.0000 |       0.0000 |       0.0000 |       0.0000 |       0.0000 |       0.0000 |       0.0000 |       0.0000 |       0.0000 |       0.0000 |       0.0000 |       0.0000 |       0.0000 |       0.0000 |       0.0000 |       0.0000 |       0.0000 |       0.0000 |       0.0000 |       0.0000 |       0.0000 |       0.0000 |       0.0000 |       0.0000 |       0.0000 |       0.0000 |       0.0000 |       0.0000 |       0.0000 |       0.0000 |       0.0000 |       0.0000 |       0.0000 |       0.0000 |       0.0000 |       0.0000 |       0.0000 |       0.0000 |       0.0000 |       0.0000 |       0.0000 |       0.0000 |       0.0000 |       0.0000 |
ld_text_base                            0x00400000 |   0x00400000 |   0x00400000 |   0x00400000 |   0x00400000 |   0x00400000 |   0x00400000 |   0x00400000 |   0x00400000 |   0x00400000 |   0x00400000 |   0x00400000 |   0x00400000 |   0x00400000 |   0x00400000 |   0x00400000 |   0x00400000 |   0x00400000 |   0x00400000 |   0x00400000 |   0x00400000 |   0x00400000 |   0x00400000 |   0x00400000 |   0x00400000 |   0x00400000 |   0x00400000 |   0x00400000 |   0x00400000 |   0x00400000 |   0x00400000 |   0x00400000 |   0x00400000 |   0x00400000 |   0x00400000 |   0x00400000 |   0x00400000 |   0x00400000 |   0x00400000 |   0x00400000 |   0x00400000 |   0x00400000 |   0x00400000 |   0x00400000 |
ld_text_size                                 71456 |        71456 |        71456 |        71456 |        71488 |        71488 |        71488 |        71488 |        71504 |        71504 |        71504 |        71504 |        71520 |        71520 |        71520 |        71520 |        71520 |        71520 |        71520 |        71520 |        71520 |        71520 |        71520 |        71520 |        71520 |        71520 |        71520 |        71520 |        71520 |        71520 |        71520 |        71520 |        71520 |        71520 |        71520 |        71520 |        71520 |        71520 |        71520 |        71520 |        71520 |        71520 |        71520 |        71520 |
ld_data_base                            0x10000000 |   0x10000000 |   0x10000000 |   0x10000000 |   0x10000000 |   0x10000000 |   0x10000000 |   0x10000000 |   0x10000000 |   0x10000000 |   0x10000000 |   0x10000000 |   0x10000000 |   0x10000000 |   0x10000000 |   0x10000000 |   0x10000000 |   0x10000000 |   0x10000000 |   0x10000000 |   0x10000000 |   0x10000000 |   0x10000000 |   0x10000000 |   0x10000000 |   0x10000000 |   0x10000000 |   0x10000000 |   0x10000000 |   0x10000000 |   0x10000000 |   0x10000000 |   0x10000000 |   0x10000000 |   0x10000000 |   0x10000000 |   0x10000000 |   0x10000000 |   0x10000000 |   0x10000000 |   0x10000000 |   0x10000000 |   0x10000000 |   0x10000000 |
ld_data_size                                  8192 |         8192 |         8192 |         8192 |         8192 |         8192 |         8192 |         8192 |         8192 |         8192 |         8192 |         8192 |         8192 |         8192 |         8192 |         8192 |         8192 |         8192 |         8192 |         8192 |         8192 |         8192 |         8192 |         8192 |         8192 |         8192 |         8192 |         8192 |         8192 |         8192 |         8192 |         8192 |         8192 |         8192 |         8192 |         8192 |         8192 |         8192 |         8192 |         8192 |         8192 |         8192 |         8192 |         8192 |
ld_stack_base                           0x7fffc000 |   0x7fffc000 |   0x7fffc000 |   0x7fffc000 |   0x7fffc000 |   0x7fffc000 |   0x7fffc000 |   0x7fffc000 |   0x7fffc000 |   0x7fffc000 |   0x7fffc000 |   0x7fffc000 |   0x7fffc000 |   0x7fffc000 |   0x7fffc000 |   0x7fffc000 |   0x7fffc000 |   0x7fffc000 |   0x7fffc000 |   0x7fffc000 |   0x7fffc000 |   0x7fffc000 |   0x7fffc000 |   0x7fffc000 |   0x7fffc000 |   0x7fffc000 |   0x7fffc000 |   0x7fffc000 |   0x7fffc000 |   0x7fffc000 |   0x7fffc000 |   0x7fffc000 |   0x7fffc000 |   0x7fffc000 |   0x7fffc000 |   0x7fffc000 |   0x7fffc000 |   0x7fffc000 |   0x7fffc000 |   0x7fffc000 |   0x7fffc000 |   0x7fffc000 |   0x7fffc000 |   0x7fffc000 |
ld_stack_size                                16384 |        16384 |        16384 |        16384 |        16384 |        16384 |        16384 |        16384 |        16384 |        16384 |        16384 |        16384 |        16384 |        16384 |        16384 |        16384 |        16384 |        16384 |        16384 |        16384 |        16384 |        16384 |        16384 |        16384 |        16384 |        16384 |        16384 |        16384 |        16384 |        16384 |        16384 |        16384 |        16384 |        16384 |        16384 |        16384 |        16384 |        16384 |        16384 |        16384 |        16384 |        16384 |        16384 |        16384 |
ld_prog_entry                           0x00400140 |   0x00400140 |   0x00400140 |   0x00400140 |   0x00400140 |   0x00400140 |   0x00400140 |   0x00400140 |   0x00400140 |   0x00400140 |   0x00400140 |   0x00400140 |   0x00400140 |   0x00400140 |   0x00400140 |   0x00400140 |   0x00400140 |   0x00400140 |   0x00400140 |   0x00400140 |   0x00400140 |   0x00400140 |   0x00400140 |   0x00400140 |   0x00400140 |   0x00400140 |   0x00400140 |   0x00400140 |   0x00400140 |   0x00400140 |   0x00400140 |   0x00400140 |   0x00400140 |   0x00400140 |   0x00400140 |   0x00400140 |   0x00400140 |   0x00400140 |   0x00400140 |   0x00400140 |   0x00400140 |   0x00400140 |   0x00400140 |   0x00400140 |
ld_environ_base                         0x7fff8000 |   0x7fff8000 |   0x7fff8000 |   0x7fff8000 |   0x7fff8000 |   0x7fff8000 |   0x7fff8000 |   0x7fff8000 |   0x7fff8000 |   0x7fff8000 |   0x7fff8000 |   0x7fff8000 |   0x7fff8000 |   0x7fff8000 |   0x7fff8000 |   0x7fff8000 |   0x7fff8000 |   0x7fff8000 |   0x7fff8000 |   0x7fff8000 |   0x7fff8000 |   0x7fff8000 |   0x7fff8000 |   0x7fff8000 |   0x7fff8000 |   0x7fff8000 |   0x7fff8000 |   0x7fff8000 |   0x7fff8000 |   0x7fff8000 |   0x7fff8000 |   0x7fff8000 |   0x7fff8000 |   0x7fff8000 |   0x7fff8000 |   0x7fff8000 |   0x7fff8000 |   0x7fff8000 |   0x7fff8000 |   0x7fff8000 |   0x7fff8000 |   0x7fff8000 |   0x7fff8000 |   0x7fff8000 |
ld_target_big_endian                             0 |            0 |            0 |            0 |            0 |            0 |            0 |            0 |            0 |            0 |            0 |            0 |            0 |            0 |            0 |            0 |            0 |            0 |            0 |            0 |            0 |            0 |            0 |            0 |            0 |            0 |            0 |            0 |            0 |            0 |            0 |            0 |            0 |            0 |            0 |            0 |            0 |            0 |            0 |            0 |            0 |            0 |            0 |            0 |
mem.page_count                                  33 |           33 |           33 |           33 |           41 |           41 |           41 |           41 |           57 |           57 |           57 |           57 |           89 |           89 |           89 |           89 |          153 |          153 |          153 |          153 |          281 |          281 |          281 |          281 |          537 |          537 |          537 |          537 |         1049 |         1049 |         1049 |         1049 |         2079 |         2079 |         2079 |         2079 |         4133 |         4133 |         4133 |         4133 |         8241 |         8241 |         8241 |         8241 |
mem.page_mem                                  132k |         132k |         132k |         132k |         164k |         164k |         164k |         164k |         228k |         228k |         228k |         228k |         356k |         356k |         356k |         356k |         612k |         612k |         612k |         612k |        1124k |        1124k |        1124k |        1124k |        2148k |        2148k |        2148k |        2148k |        4196k |        4196k |        4196k |        4196k |        8316k |        8316k |        8316k |        8316k |       16532k |       16532k |       16532k |       16532k |       32964k |       32964k |       32964k |       32964k |
mem.ptab_misses                                 33 |           33 |           33 |           33 |           41 |           41 |           41 |           41 |           57 |           57 |           57 |           57 |           89 |           89 |           89 |           89 |          153 |          153 |          153 |          153 |          281 |          281 |          281 |          281 |          537 |          537 |          537 |          537 |         1049 |         1049 |         1049 |         1049 |        62661 |        62661 |        62661 |        62661 |        68611 |        68611 |        68611 |        68611 |        74585 |        74585 |        74585 |        74585 |
mem.ptab_accesses                          3833378 |      3833378 |      3833378 |      3833378 |      7843994 |      7843994 |      7843994 |      7843994 |     16063836 |     16063836 |     16063836 |     16063836 |     34269628 |     34269628 |     34269628 |     34269628 |     71473586 |     71473586 |     71473586 |     71473586 |    152948680 |    152948680 |    152948680 |    152948680 |    319041646 |    319041646 |    319041646 |    319041646 |    679562806 |    679562806 |    679562806 |    679562806 |   1413237146 |   1413237146 |   1413237146 |   1413237146 |   2993716292 |   2993716292 |   2993716292 |   2993716292 |   6205038430 |   6205038430 |   6205038430 |   6205038430 |
mem.ptab_miss_rate                          0.0000 |       0.0000 |       0.0000 |       0.0000 |       0.0000 |       0.0000 |       0.0000 |       0.0000 |       0.0000 |       0.0000 |       0.0000 |       0.0000 |       0.0000 |       0.0000 |       0.0000 |       0.0000 |       0.0000 |       0.0000 |       0.0000 |       0.0000 |       0.0000 |       0.0000 |       0.0000 |       0.0000 |       0.0000 |       0.0000 |       0.0000 |       0.0000 |       0.0000 |       0.0000 |       0.0000 |       0.0000 |       0.0000 |       0.0000 |       0.0000 |       0.0000 |       0.0000 |       0.0000 |       0.0000 |       0.0000 |       0.0000 |       0.0000 |       0.0000 |       0.0000 |
-------------------------------------------------------------------------------------------------
sim-bpred                                     4096 |         4096 |         4096 |         4096 |         4096 |         4096 |         4096 |         8192 |         8192 |         8192 |         8192 |         8192 |         8192 |         8192 |        16384 |        16384 |        16384 |        16384 |        16384 |        16384 |        16384 |        32768 |        32768 |        32768 |        32768 |        32768 |        32768 |        32768 |        65536 |        65536 |        65536 |        65536 |        65536 |        65536 |        65536 |       131072 |       131072 |       131072 |       131072 |       131072 |       131072 |       131072 |       262144 |       262144 |       262144 |       262144 |       262144 |       262144 |       262144 |       524288 |       524288 |       524288 |       524288 |       524288 |       524288 |       524288 |      1048576 |      1048576 |      1048576 |      1048576 |      1048576 |      1048576 |      1048576 |      2097152 |      2097152 |      2097152 |      2097152 |      2097152 |      2097152 |      2097152 |      4194304 |      4194304 |      4194304 |      4194304 |      4194304 |      4194304 |      4194304 |
-bpred bimod -bpred:bimod 512
-bpred bimod -bpred:bimod 1024
-bpred bimod -bpred:bimod 2048
-bpred 2lev -bpred:2lev 1 512 10 1
-bpred 2lev -bpred:2lev 1 1024 10 1
-bpred 2lev -bpred:2lev 1 2048 10 1
-bpred 2lev -bpred:2lev 1 4096 10 1
-------------------------------------------------------------------------------------------------
sim_num_insn                                766260 |       766260 |       766260 |       766260 |       766260 |       766260 |       766260 |      1669073 |      1669073 |      1669073 |      1669073 |      1669073 |      1669073 |      1669073 |      3536636 |      3536636 |      3536636 |      3536636 |      3536636 |      3536636 |      3536636 |      7639699 |      7639699 |      7639699 |      7639699 |      7639699 |      7639699 |      7639699 |     16092958 |     16092958 |     16092958 |     16092958 |     16092958 |     16092958 |     16092958 |     34471579 |     34471579 |     34471579 |     34471579 |     34471579 |     34471579 |     34471579 |     72211206 |     72211206 |     72211206 |     72211206 |     72211206 |     72211206 |     72211206 |    153594040 |    153594040 |    153594040 |    153594040 |    153594040 |    153594040 |    153594040 |    320300229 |    320300229 |    320300229 |    320300229 |    320300229 |    320300229 |    320300229 |    677283146 |    677283146 |    677283146 |    677283146 |    677283146 |    677283146 |    677283146 |   1406984831 |   1406984831 |   1406984831 |   1406984831 |   1406984831 |   1406984831 |   1406984831 |
sim_num_refs                                146034 |       146034 |       146034 |       146034 |       146034 |       146034 |       146034 |       329236 |       329236 |       329236 |       329236 |       329236 |       329236 |       329236 |       671215 |       671215 |       671215 |       671215 |       671215 |       671215 |       671215 |      1502401 |      1502401 |      1502401 |      1502401 |      1502401 |      1502401 |      1502401 |      3066790 |      3066790 |      3066790 |      3066790 |      3066790 |      3066790 |      3066790 |      6784951 |      6784951 |      6784951 |      6784951 |      6784951 |      6784951 |      6784951 |     13827892 |     13827892 |     13827892 |     13827892 |     13827892 |     13827892 |     13827892 |     30274228 |     30274228 |     30274228 |     30274228 |     30274228 |     30274228 |     30274228 |     61601868 |     61601868 |     61601868 |     61601868 |     61601868 |     61601868 |     61601868 |    133681303 |    133681303 |    133681303 |    133681303 |    133681303 |    133681303 |    133681303 |    271550394 |    271550394 |    271550394 |    271550394 |    271550394 |    271550394 |    271550394 |
sim_elapsed_time                                 1 |            1 |            1 |            1 |            1 |            1 |            1 |            1 |            1 |            1 |            1 |            1 |            1 |            1 |            1 |            1 |            1 |            1 |            1 |            1 |            1 |            1 |            1 |            1 |            1 |            1 |            1 |            1 |            2 |            2 |            1 |            2 |            2 |            2 |            1 |            3 |            4 |            4 |            3 |            4 |            4 |            4 |            7 |            8 |            7 |            8 |            8 |            8 |            7 |           16 |           16 |           16 |           16 |           16 |           17 |           16 |           34 |           34 |           33 |           34 |           35 |           34 |           34 |           71 |           71 |           71 |           72 |           72 |           73 |           72 |          147 |          147 |          146 |          151 |          150 |          150 |          151 |
sim_inst_rate                          766260.0000 |  766260.0000 |  766260.0000 |  766260.0000 |  766260.0000 |  766260.0000 |  766260.0000 | 1669073.0000 | 1669073.0000 | 1669073.0000 | 1669073.0000 | 1669073.0000 | 1669073.0000 | 1669073.0000 | 3536636.0000 | 3536636.0000 | 3536636.0000 | 3536636.0000 | 3536636.0000 | 3536636.0000 | 3536636.0000 | 7639699.0000 | 7639699.0000 | 7639699.0000 | 7639699.0000 | 7639699.0000 | 7639699.0000 | 7639699.0000 | 8046479.0000 | 8046479.0000 |16092958.0000 | 8046479.0000 | 8046479.0000 | 8046479.0000 |16092958.0000 |11490526.3333 | 8617894.7500 | 8617894.7500 |11490526.3333 | 8617894.7500 | 8617894.7500 | 8617894.7500 |10315886.5714 | 9026400.7500 |10315886.5714 | 9026400.7500 | 9026400.7500 | 9026400.7500 |10315886.5714 | 9599627.5000 | 9599627.5000 | 9599627.5000 | 9599627.5000 | 9599627.5000 | 9034943.5294 | 9599627.5000 | 9420594.9706 | 9420594.9706 | 9706067.5455 | 9420594.9706 | 9151435.1143 | 9420594.9706 | 9420594.9706 | 9539199.2394 | 9539199.2394 | 9539199.2394 | 9406710.3611 | 9406710.3611 | 9277851.3151 | 9406710.3611 | 9571325.3810 | 9571325.3810 | 9636882.4041 | 9317780.3377 | 9379898.8733 | 9379898.8733 | 9317780.3377 |
sim_num_branches                            109355 |       109355 |       109355 |       109355 |       109355 |       109355 |       109355 |       235391 |       235391 |       235391 |       235391 |       235391 |       235391 |       235391 |       500523 |       500523 |       500523 |       500523 |       500523 |       500523 |       500523 |      1069934 |      1069934 |      1069934 |      1069934 |      1069934 |      1069934 |      1069934 |      2262100 |      2262100 |      2262100 |      2262100 |      2262100 |      2262100 |      2262100 |      4801409 |      4801409 |      4801409 |      4801409 |      4801409 |      4801409 |      4801409 |     10093031 |     10093031 |     10093031 |     10093031 |     10093031 |     10093031 |     10093031 |     21299598 |     21299598 |     21299598 |     21299598 |     21299598 |     21299598 |     21299598 |     44567103 |     44567103 |     44567103 |     44567103 |     44567103 |     44567103 |     44567103 |     93587592 |     93587592 |     93587592 |     93587592 |     93587592 |     93587592 |     93587592 |    195036955 |    195036955 |    195036955 |    195036955 |    195036955 |    195036955 |    195036955 |
sim_IPB                                     7.0071 |       7.0071 |       7.0071 |       7.0071 |       7.0071 |       7.0071 |       7.0071 |       7.0906 |       7.0906 |       7.0906 |       7.0906 |       7.0906 |       7.0906 |       7.0906 |       7.0659 |       7.0659 |       7.0659 |       7.0659 |       7.0659 |       7.0659 |       7.0659 |       7.1403 |       7.1403 |       7.1403 |       7.1403 |       7.1403 |       7.1403 |       7.1403 |       7.1142 |       7.1142 |       7.1142 |       7.1142 |       7.1142 |       7.1142 |       7.1142 |       7.1795 |       7.1795 |       7.1795 |       7.1795 |       7.1795 |       7.1795 |       7.1795 |       7.1546 |       7.1546 |       7.1546 |       7.1546 |       7.1546 |       7.1546 |       7.1546 |       7.2111 |       7.2111 |       7.2111 |       7.2111 |       7.2111 |       7.2111 |       7.2111 |       7.1869 |       7.1869 |       7.1869 |       7.1869 |       7.1869 |       7.1869 |       7.1869 |       7.2369 |       7.2369 |       7.2369 |       7.2369 |       7.2369 |       7.2369 |       7.2369 |       7.2139 |       7.2139 |       7.2139 |       7.2139 |       7.2139 |       7.2139 |       7.2139 |
bpred_bimod.lookups                         109355 |       109355 |       109355 |xxxxxxxxxxxxx |xxxxxxxxxxxxx |xxxxxxxxxxxxx |xxxxxxxxxxxxx |       235391 |       235391 |       235391 |xxxxxxxxxxxxx |xxxxxxxxxxxxx |xxxxxxxxxxxxx |xxxxxxxxxxxxx |       500523 |       500523 |       500523 |xxxxxxxxxxxxx |xxxxxxxxxxxxx |xxxxxxxxxxxxx |xxxxxxxxxxxxx |      1069934 |      1069934 |      1069934 |xxxxxxxxxxxxx |xxxxxxxxxxxxx |xxxxxxxxxxxxx |xxxxxxxxxxxxx |      2262100 |      2262100 |      2262100 |xxxxxxxxxxxxx |xxxxxxxxxxxxx |xxxxxxxxxxxxx |xxxxxxxxxxxxx |      4801409 |      4801409 |      4801409 |xxxxxxxxxxxxx |xxxxxxxxxxxxx |xxxxxxxxxxxxx |xxxxxxxxxxxxx |     10093031 |     10093031 |     10093031 |xxxxxxxxxxxxx |xxxxxxxxxxxxx |xxxxxxxxxxxxx |xxxxxxxxxxxxx |     21299598 |     21299598 |     21299598 |xxxxxxxxxxxxx |xxxxxxxxxxxxx |xxxxxxxxxxxxx |xxxxxxxxxxxxx |     44567103 |     44567103 |     44567103 |xxxxxxxxxxxxx |xxxxxxxxxxxxx |xxxxxxxxxxxxx |xxxxxxxxxxxxx |     93587592 |     93587592 |     93587592 |xxxxxxxxxxxxx |xxxxxxxxxxxxx |xxxxxxxxxxxxx |xxxxxxxxxxxxx |    195036955 |    195036955 |    195036955 |
bpred_bimod.updates                         109355 |       109355 |       109355 |xxxxxxxxxxxxx |xxxxxxxxxxxxx |xxxxxxxxxxxxx |xxxxxxxxxxxxx |       235391 |       235391 |       235391 |xxxxxxxxxxxxx |xxxxxxxxxxxxx |xxxxxxxxxxxxx |xxxxxxxxxxxxx |       500523 |       500523 |       500523 |xxxxxxxxxxxxx |xxxxxxxxxxxxx |xxxxxxxxxxxxx |xxxxxxxxxxxxx |      1069934 |      1069934 |      1069934 |xxxxxxxxxxxxx |xxxxxxxxxxxxx |xxxxxxxxxxxxx |xxxxxxxxxxxxx |      2262100 |      2262100 |      2262100 |xxxxxxxxxxxxx |xxxxxxxxxxxxx |xxxxxxxxxxxxx |xxxxxxxxxxxxx |      4801409 |      4801409 |      4801409 |xxxxxxxxxxxxx |xxxxxxxxxxxxx |xxxxxxxxxxxxx |xxxxxxxxxxxxx |     10093031 |     10093031 |     10093031 |xxxxxxxxxxxxx |xxxxxxxxxxxxx |xxxxxxxxxxxxx |xxxxxxxxxxxxx |     21299598 |     21299598 |     21299598 |xxxxxxxxxxxxx |xxxxxxxxxxxxx |xxxxxxxxxxxxx |xxxxxxxxxxxxx |     44567103 |     44567103 |     44567103 |xxxxxxxxxxxxx |xxxxxxxxxxxxx |xxxxxxxxxxxxx |xxxxxxxxxxxxx |     93587592 |     93587592 |     93587592 |xxxxxxxxxxxxx |xxxxxxxxxxxxx |xxxxxxxxxxxxx |xxxxxxxxxxxxx |    195036955 |    195036955 |    195036955 |
bpred_bimod.addr_hits                        83015 |        83017 |        83021 |xxxxxxxxxxxxx |xxxxxxxxxxxxx |xxxxxxxxxxxxx |xxxxxxxxxxxxx |       179283 |       179286 |       179290 |xxxxxxxxxxxxx |xxxxxxxxxxxxx |xxxxxxxxxxxxx |xxxxxxxxxxxxx |       380426 |       380428 |       380433 |xxxxxxxxxxxxx |xxxxxxxxxxxxx |xxxxxxxxxxxxx |xxxxxxxxxxxxx |       812988 |       812991 |       812996 |xxxxxxxxxxxxx |xxxxxxxxxxxxx |xxxxxxxxxxxxx |xxxxxxxxxxxxx |      1715867 |      1715869 |      1715874 |xxxxxxxxxxxxx |xxxxxxxxxxxxx |xxxxxxxxxxxxx |xxxxxxxxxxxxx |      3643499 |      3643502 |      3643506 |xxxxxxxxxxxxx |xxxxxxxxxxxxx |xxxxxxxxxxxxx |xxxxxxxxxxxxx |      7647416 |      7647418 |      7647423 |xxxxxxxxxxxxx |xxxxxxxxxxxxx |xxxxxxxxxxxxx |xxxxxxxxxxxxx |     16142711 |     16142714 |     16142718 |xxxxxxxxxxxxx |xxxxxxxxxxxxx |xxxxxxxxxxxxx |xxxxxxxxxxxxx |     33731476 |     33731479 |     33731484 |xxxxxxxxxxxxx |xxxxxxxxxxxxx |xxxxxxxxxxxxx |xxxxxxxxxxxxx |     70869772 |     70869775 |     70869778 |xxxxxxxxxxxxx |xxxxxxxxxxxxx |xxxxxxxxxxxxx |xxxxxxxxxxxxx |    147515110 |    147515113 |    147515117 |
bpred_bimod.dir_hits                         83114 |        83116 |        83119 |xxxxxxxxxxxxx |xxxxxxxxxxxxx |xxxxxxxxxxxxx |xxxxxxxxxxxxx |       179391 |       179393 |       179398 |xxxxxxxxxxxxx |xxxxxxxxxxxxx |xxxxxxxxxxxxx |xxxxxxxxxxxxx |       380531 |       380532 |       380535 |xxxxxxxxxxxxx |xxxxxxxxxxxxx |xxxxxxxxxxxxx |xxxxxxxxxxxxx |       813096 |       813098 |       813103 |xxxxxxxxxxxxx |xxxxxxxxxxxxx |xxxxxxxxxxxxx |xxxxxxxxxxxxx |      1715969 |      1715970 |      1715975 |xxxxxxxxxxxxx |xxxxxxxxxxxxx |xxxxxxxxxxxxx |xxxxxxxxxxxxx |      3643608 |      3643610 |      3643614 |xxxxxxxxxxxxx |xxxxxxxxxxxxx |xxxxxxxxxxxxx |xxxxxxxxxxxxx |      7647519 |      7647520 |      7647525 |xxxxxxxxxxxxx |xxxxxxxxxxxxx |xxxxxxxxxxxxx |xxxxxxxxxxxxx |     16142820 |     16142822 |     16142826 |xxxxxxxxxxxxx |xxxxxxxxxxxxx |xxxxxxxxxxxxx |xxxxxxxxxxxxx |     33731590 |     33731592 |     33731597 |xxxxxxxxxxxxx |xxxxxxxxxxxxx |xxxxxxxxxxxxx |xxxxxxxxxxxxx |     70869887 |     70869889 |     70869892 |xxxxxxxxxxxxx |xxxxxxxxxxxxx |xxxxxxxxxxxxx |xxxxxxxxxxxxx |    147515224 |    147515226 |    147515230 |
bpred_bimod.misses                           26241 |        26239 |        26236 |xxxxxxxxxxxxx |xxxxxxxxxxxxx |xxxxxxxxxxxxx |xxxxxxxxxxxxx |        56000 |        55998 |        55993 |xxxxxxxxxxxxx |xxxxxxxxxxxxx |xxxxxxxxxxxxx |xxxxxxxxxxxxx |       119992 |       119991 |       119988 |xxxxxxxxxxxxx |xxxxxxxxxxxxx |xxxxxxxxxxxxx |xxxxxxxxxxxxx |       256838 |       256836 |       256831 |xxxxxxxxxxxxx |xxxxxxxxxxxxx |xxxxxxxxxxxxx |xxxxxxxxxxxxx |       546131 |       546130 |       546125 |xxxxxxxxxxxxx |xxxxxxxxxxxxx |xxxxxxxxxxxxx |xxxxxxxxxxxxx |      1157801 |      1157799 |      1157795 |xxxxxxxxxxxxx |xxxxxxxxxxxxx |xxxxxxxxxxxxx |xxxxxxxxxxxxx |      2445512 |      2445511 |      2445506 |xxxxxxxxxxxxx |xxxxxxxxxxxxx |xxxxxxxxxxxxx |xxxxxxxxxxxxx |      5156778 |      5156776 |      5156772 |xxxxxxxxxxxxx |xxxxxxxxxxxxx |xxxxxxxxxxxxx |xxxxxxxxxxxxx |     10835513 |     10835511 |     10835506 |xxxxxxxxxxxxx |xxxxxxxxxxxxx |xxxxxxxxxxxxx |xxxxxxxxxxxxx |     22717705 |     22717703 |     22717700 |xxxxxxxxxxxxx |xxxxxxxxxxxxx |xxxxxxxxxxxxx |xxxxxxxxxxxxx |     47521731 |     47521729 |     47521725 |
bpred_bimod.jr_hits                             61 |           61 |           61 |xxxxxxxxxxxxx |xxxxxxxxxxxxx |xxxxxxxxxxxxx |xxxxxxxxxxxxx |           71 |           71 |           71 |xxxxxxxxxxxxx |xxxxxxxxxxxxx |xxxxxxxxxxxxx |xxxxxxxxxxxxx |           69 |           69 |           69 |xxxxxxxxxxxxx |xxxxxxxxxxxxx |xxxxxxxxxxxxx |xxxxxxxxxxxxx |           71 |           71 |           71 |xxxxxxxxxxxxx |xxxxxxxxxxxxx |xxxxxxxxxxxxx |xxxxxxxxxxxxx |           69 |           69 |           69 |xxxxxxxxxxxxx |xxxxxxxxxxxxx |xxxxxxxxxxxxx |xxxxxxxxxxxxx |           71 |           71 |           71 |xxxxxxxxxxxxx |xxxxxxxxxxxxx |xxxxxxxxxxxxx |xxxxxxxxxxxxx |           69 |           69 |           69 |xxxxxxxxxxxxx |xxxxxxxxxxxxx |xxxxxxxxxxxxx |xxxxxxxxxxxxx |           71 |           71 |           71 |xxxxxxxxxxxxx |xxxxxxxxxxxxx |xxxxxxxxxxxxx |xxxxxxxxxxxxx |           72 |           72 |           72 |xxxxxxxxxxxxx |xxxxxxxxxxxxx |xxxxxxxxxxxxx |xxxxxxxxxxxxx |           75 |           75 |           75 |xxxxxxxxxxxxx |xxxxxxxxxxxxx |xxxxxxxxxxxxx |xxxxxxxxxxxxx |           72 |           72 |           72 |
bpred_bimod.jr_seen                             61 |           61 |           61 |xxxxxxxxxxxxx |xxxxxxxxxxxxx |xxxxxxxxxxxxx |xxxxxxxxxxxxx |           73 |           73 |           73 |xxxxxxxxxxxxx |xxxxxxxxxxxxx |xxxxxxxxxxxxx |xxxxxxxxxxxxx |           70 |           70 |           70 |xxxxxxxxxxxxx |xxxxxxxxxxxxx |xxxxxxxxxxxxx |xxxxxxxxxxxxx |           73 |           73 |           73 |xxxxxxxxxxxxx |xxxxxxxxxxxxx |xxxxxxxxxxxxx |xxxxxxxxxxxxx |           70 |           70 |           70 |xxxxxxxxxxxxx |xxxxxxxxxxxxx |xxxxxxxxxxxxx |xxxxxxxxxxxxx |           73 |           73 |           73 |xxxxxxxxxxxxx |xxxxxxxxxxxxx |xxxxxxxxxxxxx |xxxxxxxxxxxxx |           70 |           70 |           70 |xxxxxxxxxxxxx |xxxxxxxxxxxxx |xxxxxxxxxxxxx |xxxxxxxxxxxxx |           73 |           73 |           73 |xxxxxxxxxxxxx |xxxxxxxxxxxxx |xxxxxxxxxxxxx |xxxxxxxxxxxxx |           73 |           73 |           73 |xxxxxxxxxxxxx |xxxxxxxxxxxxx |xxxxxxxxxxxxx |xxxxxxxxxxxxx |           76 |           76 |           76 |xxxxxxxxxxxxx |xxxxxxxxxxxxx |xxxxxxxxxxxxx |xxxxxxxxxxxxx |           73 |           73 |           73 |
bpred_bimod.jr_non_ras_hits.PP                   0 |            0 |            0 |xxxxxxxxxxxxx |xxxxxxxxxxxxx |xxxxxxxxxxxxx |xxxxxxxxxxxxx |            0 |            0 |            0 |xxxxxxxxxxxxx |xxxxxxxxxxxxx |xxxxxxxxxxxxx |xxxxxxxxxxxxx |            0 |            0 |            0 |xxxxxxxxxxxxx |xxxxxxxxxxxxx |xxxxxxxxxxxxx |xxxxxxxxxxxxx |            0 |            0 |            0 |xxxxxxxxxxxxx |xxxxxxxxxxxxx |xxxxxxxxxxxxx |xxxxxxxxxxxxx |            0 |            0 |            0 |xxxxxxxxxxxxx |xxxxxxxxxxxxx |xxxxxxxxxxxxx |xxxxxxxxxxxxx |            0 |            0 |            0 |xxxxxxxxxxxxx |xxxxxxxxxxxxx |xxxxxxxxxxxxx |xxxxxxxxxxxxx |            0 |            0 |            0 |xxxxxxxxxxxxx |xxxxxxxxxxxxx |xxxxxxxxxxxxx |xxxxxxxxxxxxx |            0 |            0 |            0 |xxxxxxxxxxxxx |xxxxxxxxxxxxx |xxxxxxxxxxxxx |xxxxxxxxxxxxx |            0 |            0 |            0 |xxxxxxxxxxxxx |xxxxxxxxxxxxx |xxxxxxxxxxxxx |xxxxxxxxxxxxx |            1 |            1 |            1 |xxxxxxxxxxxxx |xxxxxxxxxxxxx |xxxxxxxxxxxxx |xxxxxxxxxxxxx |            0 |            0 |            0 |
bpred_bimod.jr_non_ras_seen.PP                   0 |            0 |            0 |xxxxxxxxxxxxx |xxxxxxxxxxxxx |xxxxxxxxxxxxx |xxxxxxxxxxxxx |            1 |            1 |            1 |xxxxxxxxxxxxx |xxxxxxxxxxxxx |xxxxxxxxxxxxx |xxxxxxxxxxxxx |            0 |            0 |            0 |xxxxxxxxxxxxx |xxxxxxxxxxxxx |xxxxxxxxxxxxx |xxxxxxxxxxxxx |            1 |            1 |            1 |xxxxxxxxxxxxx |xxxxxxxxxxxxx |xxxxxxxxxxxxx |xxxxxxxxxxxxx |            0 |            0 |            0 |xxxxxxxxxxxxx |xxxxxxxxxxxxx |xxxxxxxxxxxxx |xxxxxxxxxxxxx |            1 |            1 |            1 |xxxxxxxxxxxxx |xxxxxxxxxxxxx |xxxxxxxxxxxxx |xxxxxxxxxxxxx |            0 |            0 |            0 |xxxxxxxxxxxxx |xxxxxxxxxxxxx |xxxxxxxxxxxxx |xxxxxxxxxxxxx |            1 |            1 |            1 |xxxxxxxxxxxxx |xxxxxxxxxxxxx |xxxxxxxxxxxxx |xxxxxxxxxxxxx |            1 |            1 |            1 |xxxxxxxxxxxxx |xxxxxxxxxxxxx |xxxxxxxxxxxxx |xxxxxxxxxxxxx |            2 |            2 |            2 |xxxxxxxxxxxxx |xxxxxxxxxxxxx |xxxxxxxxxxxxx |xxxxxxxxxxxxx |            1 |            1 |            1 |
bpred_bimod.bpred_addr_rate                 0.7591 |       0.7592 |       0.7592 |xxxxxxxxxxxxx |xxxxxxxxxxxxx |xxxxxxxxxxxxx |xxxxxxxxxxxxx |       0.7616 |       0.7617 |       0.7617 |xxxxxxxxxxxxx |xxxxxxxxxxxxx |xxxxxxxxxxxxx |xxxxxxxxxxxxx |       0.7601 |       0.7601 |       0.7601 |xxxxxxxxxxxxx |xxxxxxxxxxxxx |xxxxxxxxxxxxx |xxxxxxxxxxxxx |       0.7598 |       0.7599 |       0.7599 |xxxxxxxxxxxxx |xxxxxxxxxxxxx |xxxxxxxxxxxxx |xxxxxxxxxxxxx |       0.7585 |       0.7585 |       0.7585 |xxxxxxxxxxxxx |xxxxxxxxxxxxx |xxxxxxxxxxxxx |xxxxxxxxxxxxx |       0.7588 |       0.7588 |       0.7588 |xxxxxxxxxxxxx |xxxxxxxxxxxxx |xxxxxxxxxxxxx |xxxxxxxxxxxxx |       0.7577 |       0.7577 |       0.7577 |xxxxxxxxxxxxx |xxxxxxxxxxxxx |xxxxxxxxxxxxx |xxxxxxxxxxxxx |       0.7579 |       0.7579 |       0.7579 |xxxxxxxxxxxxx |xxxxxxxxxxxxx |xxxxxxxxxxxxx |xxxxxxxxxxxxx |       0.7569 |       0.7569 |       0.7569 |xxxxxxxxxxxxx |xxxxxxxxxxxxx |xxxxxxxxxxxxx |xxxxxxxxxxxxx |       0.7573 |       0.7573 |       0.7573 |xxxxxxxxxxxxx |xxxxxxxxxxxxx |xxxxxxxxxxxxx |xxxxxxxxxxxxx |       0.7563 |       0.7563 |       0.7563 |
bpred_bimod.bpred_dir_rate                  0.7600 |       0.7601 |       0.7601 |xxxxxxxxxxxxx |xxxxxxxxxxxxx |xxxxxxxxxxxxx |xxxxxxxxxxxxx |       0.7621 |       0.7621 |       0.7621 |xxxxxxxxxxxxx |xxxxxxxxxxxxx |xxxxxxxxxxxxx |xxxxxxxxxxxxx |       0.7603 |       0.7603 |       0.7603 |xxxxxxxxxxxxx |xxxxxxxxxxxxx |xxxxxxxxxxxxx |xxxxxxxxxxxxx |       0.7599 |       0.7600 |       0.7600 |xxxxxxxxxxxxx |xxxxxxxxxxxxx |xxxxxxxxxxxxx |xxxxxxxxxxxxx |       0.7586 |       0.7586 |       0.7586 |xxxxxxxxxxxxx |xxxxxxxxxxxxx |xxxxxxxxxxxxx |xxxxxxxxxxxxx |       0.7589 |       0.7589 |       0.7589 |xxxxxxxxxxxxx |xxxxxxxxxxxxx |xxxxxxxxxxxxx |xxxxxxxxxxxxx |       0.7577 |       0.7577 |       0.7577 |xxxxxxxxxxxxx |xxxxxxxxxxxxx |xxxxxxxxxxxxx |xxxxxxxxxxxxx |       0.7579 |       0.7579 |       0.7579 |xxxxxxxxxxxxx |xxxxxxxxxxxxx |xxxxxxxxxxxxx |xxxxxxxxxxxxx |       0.7569 |       0.7569 |       0.7569 |xxxxxxxxxxxxx |xxxxxxxxxxxxx |xxxxxxxxxxxxx |xxxxxxxxxxxxx |       0.7573 |       0.7573 |       0.7573 |xxxxxxxxxxxxx |xxxxxxxxxxxxx |xxxxxxxxxxxxx |xxxxxxxxxxxxx |       0.7563 |       0.7563 |       0.7563 |
bpred_bimod.bpred_jr_rate                   1.0000 |       1.0000 |       1.0000 |xxxxxxxxxxxxx |xxxxxxxxxxxxx |xxxxxxxxxxxxx |xxxxxxxxxxxxx |       0.9726 |       0.9726 |       0.9726 |xxxxxxxxxxxxx |xxxxxxxxxxxxx |xxxxxxxxxxxxx |xxxxxxxxxxxxx |       0.9857 |       0.9857 |       0.9857 |xxxxxxxxxxxxx |xxxxxxxxxxxxx |xxxxxxxxxxxxx |xxxxxxxxxxxxx |       0.9726 |       0.9726 |       0.9726 |xxxxxxxxxxxxx |xxxxxxxxxxxxx |xxxxxxxxxxxxx |xxxxxxxxxxxxx |       0.9857 |       0.9857 |       0.9857 |xxxxxxxxxxxxx |xxxxxxxxxxxxx |xxxxxxxxxxxxx |xxxxxxxxxxxxx |       0.9726 |       0.9726 |       0.9726 |xxxxxxxxxxxxx |xxxxxxxxxxxxx |xxxxxxxxxxxxx |xxxxxxxxxxxxx |       0.9857 |       0.9857 |       0.9857 |xxxxxxxxxxxxx |xxxxxxxxxxxxx |xxxxxxxxxxxxx |xxxxxxxxxxxxx |       0.9726 |       0.9726 |       0.9726 |xxxxxxxxxxxxx |xxxxxxxxxxxxx |xxxxxxxxxxxxx |xxxxxxxxxxxxx |       0.9863 |       0.9863 |       0.9863 |xxxxxxxxxxxxx |xxxxxxxxxxxxx |xxxxxxxxxxxxx |xxxxxxxxxxxxx |       0.9868 |       0.9868 |       0.9868 |xxxxxxxxxxxxx |xxxxxxxxxxxxx |xxxxxxxxxxxxx |xxxxxxxxxxxxx |       0.9863 |       0.9863 |       0.9863 |
bpred_bimod.bpred_jr_non_ras_rate.PP       <error: |      <error: |      <error: |xxxxxxxxxxxxx |xxxxxxxxxxxxx |xxxxxxxxxxxxx |xxxxxxxxxxxxx |       0.0000 |       0.0000 |       0.0000 |xxxxxxxxxxxxx |xxxxxxxxxxxxx |xxxxxxxxxxxxx |xxxxxxxxxxxxx |      <error: |      <error: |      <error: |xxxxxxxxxxxxx |xxxxxxxxxxxxx |xxxxxxxxxxxxx |xxxxxxxxxxxxx |       0.0000 |       0.0000 |       0.0000 |xxxxxxxxxxxxx |xxxxxxxxxxxxx |xxxxxxxxxxxxx |xxxxxxxxxxxxx |      <error: |      <error: |      <error: |xxxxxxxxxxxxx |xxxxxxxxxxxxx |xxxxxxxxxxxxx |xxxxxxxxxxxxx |       0.0000 |       0.0000 |       0.0000 |xxxxxxxxxxxxx |xxxxxxxxxxxxx |xxxxxxxxxxxxx |xxxxxxxxxxxxx |      <error: |      <error: |      <error: |xxxxxxxxxxxxx |xxxxxxxxxxxxx |xxxxxxxxxxxxx |xxxxxxxxxxxxx |       0.0000 |       0.0000 |       0.0000 |xxxxxxxxxxxxx |xxxxxxxxxxxxx |xxxxxxxxxxxxx |xxxxxxxxxxxxx |       0.0000 |       0.0000 |       0.0000 |xxxxxxxxxxxxx |xxxxxxxxxxxxx |xxxxxxxxxxxxx |xxxxxxxxxxxxx |       0.5000 |       0.5000 |       0.5000 |xxxxxxxxxxxxx |xxxxxxxxxxxxx |xxxxxxxxxxxxx |xxxxxxxxxxxxx |       0.0000 |       0.0000 |       0.0000 |
bpred_bimod.retstack_pushes                     63 |           63 |           63 |xxxxxxxxxxxxx |xxxxxxxxxxxxx |xxxxxxxxxxxxx |xxxxxxxxxxxxx |           74 |           74 |           74 |xxxxxxxxxxxxx |xxxxxxxxxxxxx |xxxxxxxxxxxxx |xxxxxxxxxxxxx |           72 |           72 |           72 |xxxxxxxxxxxxx |xxxxxxxxxxxxx |xxxxxxxxxxxxx |xxxxxxxxxxxxx |           74 |           74 |           74 |xxxxxxxxxxxxx |xxxxxxxxxxxxx |xxxxxxxxxxxxx |xxxxxxxxxxxxx |           72 |           72 |           72 |xxxxxxxxxxxxx |xxxxxxxxxxxxx |xxxxxxxxxxxxx |xxxxxxxxxxxxx |           74 |           74 |           74 |xxxxxxxxxxxxx |xxxxxxxxxxxxx |xxxxxxxxxxxxx |xxxxxxxxxxxxx |           72 |           72 |           72 |xxxxxxxxxxxxx |xxxxxxxxxxxxx |xxxxxxxxxxxxx |xxxxxxxxxxxxx |           74 |           74 |           74 |xxxxxxxxxxxxx |xxxxxxxxxxxxx |xxxxxxxxxxxxx |xxxxxxxxxxxxx |           74 |           74 |           74 |xxxxxxxxxxxxx |xxxxxxxxxxxxx |xxxxxxxxxxxxx |xxxxxxxxxxxxx |           76 |           76 |           76 |xxxxxxxxxxxxx |xxxxxxxxxxxxx |xxxxxxxxxxxxx |xxxxxxxxxxxxx |           74 |           74 |           74 |
bpred_bimod.retstack_pops                       61 |           61 |           61 |xxxxxxxxxxxxx |xxxxxxxxxxxxx |xxxxxxxxxxxxx |xxxxxxxxxxxxx |           72 |           72 |           72 |xxxxxxxxxxxxx |xxxxxxxxxxxxx |xxxxxxxxxxxxx |xxxxxxxxxxxxx |           70 |           70 |           70 |xxxxxxxxxxxxx |xxxxxxxxxxxxx |xxxxxxxxxxxxx |xxxxxxxxxxxxx |           72 |           72 |           72 |xxxxxxxxxxxxx |xxxxxxxxxxxxx |xxxxxxxxxxxxx |xxxxxxxxxxxxx |           70 |           70 |           70 |xxxxxxxxxxxxx |xxxxxxxxxxxxx |xxxxxxxxxxxxx |xxxxxxxxxxxxx |           72 |           72 |           72 |xxxxxxxxxxxxx |xxxxxxxxxxxxx |xxxxxxxxxxxxx |xxxxxxxxxxxxx |           70 |           70 |           70 |xxxxxxxxxxxxx |xxxxxxxxxxxxx |xxxxxxxxxxxxx |xxxxxxxxxxxxx |           72 |           72 |           72 |xxxxxxxxxxxxx |xxxxxxxxxxxxx |xxxxxxxxxxxxx |xxxxxxxxxxxxx |           72 |           72 |           72 |xxxxxxxxxxxxx |xxxxxxxxxxxxx |xxxxxxxxxxxxx |xxxxxxxxxxxxx |           74 |           74 |           74 |xxxxxxxxxxxxx |xxxxxxxxxxxxx |xxxxxxxxxxxxx |xxxxxxxxxxxxx |           72 |           72 |           72 |
bpred_bimod.used_ras.PP                         61 |           61 |           61 |xxxxxxxxxxxxx |xxxxxxxxxxxxx |xxxxxxxxxxxxx |xxxxxxxxxxxxx |           72 |           72 |           72 |xxxxxxxxxxxxx |xxxxxxxxxxxxx |xxxxxxxxxxxxx |xxxxxxxxxxxxx |           70 |           70 |           70 |xxxxxxxxxxxxx |xxxxxxxxxxxxx |xxxxxxxxxxxxx |xxxxxxxxxxxxx |           72 |           72 |           72 |xxxxxxxxxxxxx |xxxxxxxxxxxxx |xxxxxxxxxxxxx |xxxxxxxxxxxxx |           70 |           70 |           70 |xxxxxxxxxxxxx |xxxxxxxxxxxxx |xxxxxxxxxxxxx |xxxxxxxxxxxxx |           72 |           72 |           72 |xxxxxxxxxxxxx |xxxxxxxxxxxxx |xxxxxxxxxxxxx |xxxxxxxxxxxxx |           70 |           70 |           70 |xxxxxxxxxxxxx |xxxxxxxxxxxxx |xxxxxxxxxxxxx |xxxxxxxxxxxxx |           72 |           72 |           72 |xxxxxxxxxxxxx |xxxxxxxxxxxxx |xxxxxxxxxxxxx |xxxxxxxxxxxxx |           72 |           72 |           72 |xxxxxxxxxxxxx |xxxxxxxxxxxxx |xxxxxxxxxxxxx |xxxxxxxxxxxxx |           74 |           74 |           74 |xxxxxxxxxxxxx |xxxxxxxxxxxxx |xxxxxxxxxxxxx |xxxxxxxxxxxxx |           72 |           72 |           72 |
bpred_bimod.ras_hits.PP                         61 |           61 |           61 |xxxxxxxxxxxxx |xxxxxxxxxxxxx |xxxxxxxxxxxxx |xxxxxxxxxxxxx |           71 |           71 |           71 |xxxxxxxxxxxxx |xxxxxxxxxxxxx |xxxxxxxxxxxxx |xxxxxxxxxxxxx |           69 |           69 |           69 |xxxxxxxxxxxxx |xxxxxxxxxxxxx |xxxxxxxxxxxxx |xxxxxxxxxxxxx |           71 |           71 |           71 |xxxxxxxxxxxxx |xxxxxxxxxxxxx |xxxxxxxxxxxxx |xxxxxxxxxxxxx |           69 |           69 |           69 |xxxxxxxxxxxxx |xxxxxxxxxxxxx |xxxxxxxxxxxxx |xxxxxxxxxxxxx |           71 |           71 |           71 |xxxxxxxxxxxxx |xxxxxxxxxxxxx |xxxxxxxxxxxxx |xxxxxxxxxxxxx |           69 |           69 |           69 |xxxxxxxxxxxxx |xxxxxxxxxxxxx |xxxxxxxxxxxxx |xxxxxxxxxxxxx |           71 |           71 |           71 |xxxxxxxxxxxxx |xxxxxxxxxxxxx |xxxxxxxxxxxxx |xxxxxxxxxxxxx |           72 |           72 |           72 |xxxxxxxxxxxxx |xxxxxxxxxxxxx |xxxxxxxxxxxxx |xxxxxxxxxxxxx |           74 |           74 |           74 |xxxxxxxxxxxxx |xxxxxxxxxxxxx |xxxxxxxxxxxxx |xxxxxxxxxxxxx |           72 |           72 |           72 |
bpred_bimod.ras_rate.PP                     1.0000 |       1.0000 |       1.0000 |xxxxxxxxxxxxx |xxxxxxxxxxxxx |xxxxxxxxxxxxx |xxxxxxxxxxxxx |       0.9861 |       0.9861 |       0.9861 |xxxxxxxxxxxxx |xxxxxxxxxxxxx |xxxxxxxxxxxxx |xxxxxxxxxxxxx |       0.9857 |       0.9857 |       0.9857 |xxxxxxxxxxxxx |xxxxxxxxxxxxx |xxxxxxxxxxxxx |xxxxxxxxxxxxx |       0.9861 |       0.9861 |       0.9861 |xxxxxxxxxxxxx |xxxxxxxxxxxxx |xxxxxxxxxxxxx |xxxxxxxxxxxxx |       0.9857 |       0.9857 |       0.9857 |xxxxxxxxxxxxx |xxxxxxxxxxxxx |xxxxxxxxxxxxx |xxxxxxxxxxxxx |       0.9861 |       0.9861 |       0.9861 |xxxxxxxxxxxxx |xxxxxxxxxxxxx |xxxxxxxxxxxxx |xxxxxxxxxxxxx |       0.9857 |       0.9857 |       0.9857 |xxxxxxxxxxxxx |xxxxxxxxxxxxx |xxxxxxxxxxxxx |xxxxxxxxxxxxx |       0.9861 |       0.9861 |       0.9861 |xxxxxxxxxxxxx |xxxxxxxxxxxxx |xxxxxxxxxxxxx |xxxxxxxxxxxxx |       1.0000 |       1.0000 |       1.0000 |xxxxxxxxxxxxx |xxxxxxxxxxxxx |xxxxxxxxxxxxx |xxxxxxxxxxxxx |       1.0000 |       1.0000 |       1.0000 |xxxxxxxxxxxxx |xxxxxxxxxxxxx |xxxxxxxxxxxxx |xxxxxxxxxxxxx |       1.0000 |       1.0000 |       1.0000 |
bpred_2lev.lookups                   xxxxxxxxxxxxx |xxxxxxxxxxxxx |xxxxxxxxxxxxx |       109355 |       109355 |       109355 |       109355 |xxxxxxxxxxxxx |xxxxxxxxxxxxx |xxxxxxxxxxxxx |       235391 |       235391 |       235391 |       235391 |xxxxxxxxxxxxx |xxxxxxxxxxxxx |xxxxxxxxxxxxx |       500523 |       500523 |       500523 |       500523 |xxxxxxxxxxxxx |xxxxxxxxxxxxx |xxxxxxxxxxxxx |      1069934 |      1069934 |      1069934 |      1069934 |xxxxxxxxxxxxx |xxxxxxxxxxxxx |xxxxxxxxxxxxx |      2262100 |      2262100 |      2262100 |      2262100 |xxxxxxxxxxxxx |xxxxxxxxxxxxx |xxxxxxxxxxxxx |      4801409 |      4801409 |      4801409 |      4801409 |xxxxxxxxxxxxx |xxxxxxxxxxxxx |xxxxxxxxxxxxx |     10093031 |     10093031 |     10093031 |     10093031 |xxxxxxxxxxxxx |xxxxxxxxxxxxx |xxxxxxxxxxxxx |     21299598 |     21299598 |     21299598 |     21299598 |xxxxxxxxxxxxx |xxxxxxxxxxxxx |xxxxxxxxxxxxx |     44567103 |     44567103 |     44567103 |     44567103 |xxxxxxxxxxxxx |xxxxxxxxxxxxx |xxxxxxxxxxxxx |     93587592 |     93587592 |     93587592 |     93587592 |xxxxxxxxxxxxx |xxxxxxxxxxxxx |xxxxxxxxxxxxx |    195036955 |    195036955 |    195036955 |    195036955 |
[...]
bpred_2lev.retstack_pops             xxxxxxxxxxxxx |xxxxxxxxxxxxx |xxxxxxxxxxxxx |           61 |           61 |           61 |           61 |xxxxxxxxxxxxx |xxxxxxxxxxxxx |xxxxxxxxxxxxx |           72 |           72 |           72 |           72 |xxxxxxxxxxxxx |xxxxxxxxxxxxx |xxxxxxxxxxxxx |           70 |           70 |           70 |           70 |xxxxxxxxxxxxx |xxxxxxxxxxxxx |xxxxxxxxxxxxx |           72 |           72 |           72 |           72 |xxxxxxxxxxxxx |xxxxxxxxxxxxx |xxxxxxxxxxxxx |           70 |           70 |           70 |           70 |xxxxxxxxxxxxx |xxxxxxxxxxxxx |xxxxxxxxxxxxx |           72 |           72 |           72 |           72 |xxxxxxxxxxxxx |xxxxxxxxxxxxx |xxxxxxxxxxxxx |           70 |           70 |           70 |           70 |xxxxxxxxxxxxx |xxxxxxxxxxxxx |xxxxxxxxxxxxx |           72 |           72 |           72 |           72 |xxxxxxxxxxxxx |xxxxxxxxxxxxx |xxxxxxxxxxxxx |           72 |           72 |           72 |           72 |xxxxxxxxxxxxx |xxxxxxxxxxxxx |xxxxxxxxxxxxx |           74 |           74 |           74 |           74 |xxxxxxxxxxxxx |xxxxxxxxxxxxx |xxxxxxxxxxxxx |           72 |           72 |           72 |           72 |
bpred_2lev.used_ras.PP               xxxxxxxxxxxxx |xxxxxxxxxxxxx |xxxxxxxxxxxxx |           61 |           61 |           61 |           61 |xxxxxxxxxxxxx |xxxxxxxxxxxxx |xxxxxxxxxxxxx |           72 |           72 |           72 |           72 |xxxxxxxxxxxxx |xxxxxxxxxxxxx |xxxxxxxxxxxxx |           70 |           70 |           70 |           70 |xxxxxxxxxxxxx |xxxxxxxxxxxxx |xxxxxxxxxxxxx |           72 |           72 |           72 |           72 |xxxxxxxxxxxxx |xxxxxxxxxxxxx |xxxxxxxxxxxxx |           70 |           70 |           70 |           70 |xxxxxxxxxxxxx |xxxxxxxxxxxxx |xxxxxxxxxxxxx |           72 |           72 |           72 |           72 |xxxxxxxxxxxxx |xxxxxxxxxxxxx |xxxxxxxxxxxxx |           70 |           70 |           70 |           70 |xxxxxxxxxxxxx |xxxxxxxxxxxxx |xxxxxxxxxxxxx |           72 |           72 |           72 |           72 |xxxxxxxxxxxxx |xxxxxxxxxxxxx |xxxxxxxxxxxxx |           72 |           72 |           72 |           72 |xxxxxxxxxxxxx |xxxxxxxxxxxxx |xxxxxxxxxxxxx |           74 |           74 |           74 |           74 |xxxxxxxxxxxxx |xxxxxxxxxxxxx |xxxxxxxxxxxxx |           72 |           72 |           72 |           72 |
bpred_2lev.ras_hits.PP               xxxxxxxxxxxxx |xxxxxxxxxxxxx |xxxxxxxxxxxxx |           61 |           61 |           61 |           61 |xxxxxxxxxxxxx |xxxxxxxxxxxxx |xxxxxxxxxxxxx |           71 |           71 |           71 |           71 |xxxxxxxxxxxxx |xxxxxxxxxxxxx |xxxxxxxxxxxxx |           69 |           69 |           69 |           69 |xxxxxxxxxxxxx |xxxxxxxxxxxxx |xxxxxxxxxxxxx |           71 |           71 |           71 |           71 |xxxxxxxxxxxxx |xxxxxxxxxxxxx |xxxxxxxxxxxxx |           69 |           69 |           69 |           69 |xxxxxxxxxxxxx |xxxxxxxxxxxxx |xxxxxxxxxxxxx |           71 |           71 |           71 |           71 |xxxxxxxxxxxxx |xxxxxxxxxxxxx |xxxxxxxxxxxxx |           69 |           69 |           69 |           69 |xxxxxxxxxxxxx |xxxxxxxxxxxxx |xxxxxxxxxxxxx |           71 |           71 |           71 |           71 |xxxxxxxxxxxxx |xxxxxxxxxxxxx |xxxxxxxxxxxxx |           72 |           72 |           72 |           72 |xxxxxxxxxxxxx |xxxxxxxxxxxxx |xxxxxxxxxxxxx |           74 |           74 |           74 |           74 |xxxxxxxxxxxxx |xxxxxxxxxxxxx |xxxxxxxxxxxxx |           72 |           72 |           72 |           72 |
bpred_2lev.ras_rate.PP               xxxxxxxxxxxxx |xxxxxxxxxxxxx |xxxxxxxxxxxxx |       1.0000 |       1.0000 |       1.0000 |       1.0000 |xxxxxxxxxxxxx |xxxxxxxxxxxxx |xxxxxxxxxxxxx |       0.9861 |       0.9861 |       0.9861 |       0.9861 |xxxxxxxxxxxxx |xxxxxxxxxxxxx |xxxxxxxxxxxxx |       0.9857 |       0.9857 |       0.9857 |       0.9857 |xxxxxxxxxxxxx |xxxxxxxxxxxxx |xxxxxxxxxxxxx |       0.9861 |       0.9861 |       0.9861 |       0.9861 |xxxxxxxxxxxxx |xxxxxxxxxxxxx |xxxxxxxxxxxxx |       0.9857 |       0.9857 |       0.9857 |       0.9857 |xxxxxxxxxxxxx |xxxxxxxxxxxxx |xxxxxxxxxxxxx |       0.9861 |       0.9861 |       0.9861 |       0.9861 |xxxxxxxxxxxxx |xxxxxxxxxxxxx |xxxxxxxxxxxxx |       0.9857 |       0.9857 |       0.9857 |       0.9857 |xxxxxxxxxxxxx |xxxxxxxxxxxxx |xxxxxxxxxxxxx |       0.9861 |       0.9861 |       0.9861 |       0.9861 |xxxxxxxxxxxxx |xxxxxxxxxxxxx |xxxxxxxxxxxxx |       1.0000 |       1.0000 |       1.0000 |       1.0000 |xxxxxxxxxxxxx |xxxxxxxxxxxxx |xxxxxxxxxxxxx |       1.0000 |       1.0000 |       1.0000 |       1.0000 |xxxxxxxxxxxxx |xxxxxxxxxxxxx |xxxxxxxxxxxxx |       1.0000 |       1.0000 |       1.0000 |       1.0000 |

Command list: 
	sslittle-na-sstrix-gcc -Wall -O3 -funroll-loops -finline-functions  -DRANDOM_SIZE=4096 -DOFFSET=1 -DSORT=knuth_other_base_mergesort sorts/knuth_other_base_mergesort499098255.c simpleMain.c -o knuth_other_base_mergesort574626509
	sim-cache -cache:dl1 dl1:256:32:1:l -cache:dl2 dl2:131072:32:1:l -cache:il1 il1:256:32:1:l -cache:il2 dl2 knuth_other_base_mergesort574626509
	sim-cache -cache:dl1 dl1:256:32:1:l -cache:dl2 dl2:65536:32:1:l -cache:il1 il1:256:32:1:l -cache:il2 dl2 knuth_other_base_mergesort574626509
	sim-cache -cache:dl1 dl1:1:32:256:l -cache:dl2 dl2:1:32:131072:l -cache:il1 il1:1:32:256:l -cache:il2 dl2 knuth_other_base_mergesort574626509
	sim-cache -cache:dl1 dl1:1:32:256:l -cache:dl2 dl2:1:32:65536:l -cache:il1 il1:1:32:256:l -cache:il2 dl2 knuth_other_base_mergesort574626509
	sim-bpred -bpred bimod -bpred:bimod 512 knuth_other_base_mergesort574626509
	sim-bpred -bpred bimod -bpred:bimod 1024 knuth_other_base_mergesort574626509
	sim-bpred -bpred bimod -bpred:bimod 2048 knuth_other_base_mergesort574626509
	sim-bpred -bpred 2lev -bpred:2lev 1 512 10 1 knuth_other_base_mergesort574626509
	sim-bpred -bpred 2lev -bpred:2lev 1 1024 10 1 knuth_other_base_mergesort574626509
	sim-bpred -bpred 2lev -bpred:2lev 1 2048 10 1 knuth_other_base_mergesort574626509
	sim-bpred -bpred 2lev -bpred:2lev 1 4096 10 1 knuth_other_base_mergesort574626509
	sslittle-na-sstrix-gcc -Wall -O3 -funroll-loops -finline-functions  -DRANDOM_SIZE=8192 -DOFFSET=1 -DSORT=knuth_other_base_mergesort sorts/knuth_other_base_mergesort499098255.c simpleMain.c -o knuth_other_base_mergesort574626509
	sim-cache -cache:dl1 dl1:256:32:1:l -cache:dl2 dl2:131072:32:1:l -cache:il1 il1:256:32:1:l -cache:il2 dl2 knuth_other_base_mergesort574626509
	sim-cache -cache:dl1 dl1:256:32:1:l -cache:dl2 dl2:65536:32:1:l -cache:il1 il1:256:32:1:l -cache:il2 dl2 knuth_other_base_mergesort574626509
	sim-cache -cache:dl1 dl1:1:32:256:l -cache:dl2 dl2:1:32:131072:l -cache:il1 il1:1:32:256:l -cache:il2 dl2 knuth_other_base_mergesort574626509
	sim-cache -cache:dl1 dl1:1:32:256:l -cache:dl2 dl2:1:32:65536:l -cache:il1 il1:1:32:256:l -cache:il2 dl2 knuth_other_base_mergesort574626509
	sim-bpred -bpred bimod -bpred:bimod 512 knuth_other_base_mergesort574626509
	sim-bpred -bpred bimod -bpred:bimod 1024 knuth_other_base_mergesort574626509
	sim-bpred -bpred bimod -bpred:bimod 2048 knuth_other_base_mergesort574626509
	sim-bpred -bpred 2lev -bpred:2lev 1 512 10 1 knuth_other_base_mergesort574626509
	sim-bpred -bpred 2lev -bpred:2lev 1 1024 10 1 knuth_other_base_mergesort574626509
	sim-bpred -bpred 2lev -bpred:2lev 1 2048 10 1 knuth_other_base_mergesort574626509
	sim-bpred -bpred 2lev -bpred:2lev 1 4096 10 1 knuth_other_base_mergesort574626509
	sslittle-na-sstrix-gcc -Wall -O3 -funroll-loops -finline-functions  -DRANDOM_SIZE=16384 -DOFFSET=1 -DSORT=knuth_other_base_mergesort sorts/knuth_other_base_mergesort499098255.c simpleMain.c -o knuth_other_base_mergesort574626509
	sim-cache -cache:dl1 dl1:256:32:1:l -cache:dl2 dl2:131072:32:1:l -cache:il1 il1:256:32:1:l -cache:il2 dl2 knuth_other_base_mergesort574626509
	sim-cache -cache:dl1 dl1:256:32:1:l -cache:dl2 dl2:65536:32:1:l -cache:il1 il1:256:32:1:l -cache:il2 dl2 knuth_other_base_mergesort574626509
	sim-cache -cache:dl1 dl1:1:32:256:l -cache:dl2 dl2:1:32:131072:l -cache:il1 il1:1:32:256:l -cache:il2 dl2 knuth_other_base_mergesort574626509
	sim-cache -cache:dl1 dl1:1:32:256:l -cache:dl2 dl2:1:32:65536:l -cache:il1 il1:1:32:256:l -cache:il2 dl2 knuth_other_base_mergesort574626509
	sim-bpred -bpred bimod -bpred:bimod 512 knuth_other_base_mergesort574626509
	sim-bpred -bpred bimod -bpred:bimod 1024 knuth_other_base_mergesort574626509
	sim-bpred -bpred bimod -bpred:bimod 2048 knuth_other_base_mergesort574626509
	sim-bpred -bpred 2lev -bpred:2lev 1 512 10 1 knuth_other_base_mergesort574626509
	sim-bpred -bpred 2lev -bpred:2lev 1 1024 10 1 knuth_other_base_mergesort574626509
	sim-bpred -bpred 2lev -bpred:2lev 1 2048 10 1 knuth_other_base_mergesort574626509
	sim-bpred -bpred 2lev -bpred:2lev 1 4096 10 1 knuth_other_base_mergesort574626509
	sslittle-na-sstrix-gcc -Wall -O3 -funroll-loops -finline-functions  -DRANDOM_SIZE=32768 -DOFFSET=1 -DSORT=knuth_other_base_mergesort sorts/knuth_other_base_mergesort499098255.c simpleMain.c -o knuth_other_base_mergesort574626509
	sim-cache -cache:dl1 dl1:256:32:1:l -cache:dl2 dl2:131072:32:1:l -cache:il1 il1:256:32:1:l -cache:il2 dl2 knuth_other_base_mergesort574626509
	sim-cache -cache:dl1 dl1:256:32:1:l -cache:dl2 dl2:65536:32:1:l -cache:il1 il1:256:32:1:l -cache:il2 dl2 knuth_other_base_mergesort574626509
	sim-cache -cache:dl1 dl1:1:32:256:l -cache:dl2 dl2:1:32:131072:l -cache:il1 il1:1:32:256:l -cache:il2 dl2 knuth_other_base_mergesort574626509
	sim-cache -cache:dl1 dl1:1:32:256:l -cache:dl2 dl2:1:32:65536:l -cache:il1 il1:1:32:256:l -cache:il2 dl2 knuth_other_base_mergesort574626509
	sim-bpred -bpred bimod -bpred:bimod 512 knuth_other_base_mergesort574626509
	sim-bpred -bpred bimod -bpred:bimod 1024 knuth_other_base_mergesort574626509
	sim-bpred -bpred bimod -bpred:bimod 2048 knuth_other_base_mergesort574626509
	sim-bpred -bpred 2lev -bpred:2lev 1 512 10 1 knuth_other_base_mergesort574626509
	sim-bpred -bpred 2lev -bpred:2lev 1 1024 10 1 knuth_other_base_mergesort574626509
	sim-bpred -bpred 2lev -bpred:2lev 1 2048 10 1 knuth_other_base_mergesort574626509
	sim-bpred -bpred 2lev -bpred:2lev 1 4096 10 1 knuth_other_base_mergesort574626509
	sslittle-na-sstrix-gcc -Wall -O3 -funroll-loops -finline-functions  -DRANDOM_SIZE=65536 -DOFFSET=1 -DSORT=knuth_other_base_mergesort sorts/knuth_other_base_mergesort499098255.c simpleMain.c -o knuth_other_base_mergesort574626509
	sim-cache -cache:dl1 dl1:256:32:1:l -cache:dl2 dl2:131072:32:1:l -cache:il1 il1:256:32:1:l -cache:il2 dl2 knuth_other_base_mergesort574626509
	sim-cache -cache:dl1 dl1:256:32:1:l -cache:dl2 dl2:65536:32:1:l -cache:il1 il1:256:32:1:l -cache:il2 dl2 knuth_other_base_mergesort574626509
	sim-cache -cache:dl1 dl1:1:32:256:l -cache:dl2 dl2:1:32:131072:l -cache:il1 il1:1:32:256:l -cache:il2 dl2 knuth_other_base_mergesort574626509
	sim-cache -cache:dl1 dl1:1:32:256:l -cache:dl2 dl2:1:32:65536:l -cache:il1 il1:1:32:256:l -cache:il2 dl2 knuth_other_base_mergesort574626509
	sim-bpred -bpred bimod -bpred:bimod 512 knuth_other_base_mergesort574626509
	sim-bpred -bpred bimod -bpred:bimod 1024 knuth_other_base_mergesort574626509
	sim-bpred -bpred bimod -bpred:bimod 2048 knuth_other_base_mergesort574626509
	sim-bpred -bpred 2lev -bpred:2lev 1 512 10 1 knuth_other_base_mergesort574626509
	sim-bpred -bpred 2lev -bpred:2lev 1 1024 10 1 knuth_other_base_mergesort574626509
	sim-bpred -bpred 2lev -bpred:2lev 1 2048 10 1 knuth_other_base_mergesort574626509
	sim-bpred -bpred 2lev -bpred:2lev 1 4096 10 1 knuth_other_base_mergesort574626509
	sslittle-na-sstrix-gcc -Wall -O3 -funroll-loops -finline-functions  -DRANDOM_SIZE=131072 -DOFFSET=1 -DSORT=knuth_other_base_mergesort sorts/knuth_other_base_mergesort499098255.c simpleMain.c -o knuth_other_base_mergesort574626509
	sim-cache -cache:dl1 dl1:256:32:1:l -cache:dl2 dl2:131072:32:1:l -cache:il1 il1:256:32:1:l -cache:il2 dl2 knuth_other_base_mergesort574626509
	sim-cache -cache:dl1 dl1:256:32:1:l -cache:dl2 dl2:65536:32:1:l -cache:il1 il1:256:32:1:l -cache:il2 dl2 knuth_other_base_mergesort574626509
	sim-cache -cache:dl1 dl1:1:32:256:l -cache:dl2 dl2:1:32:131072:l -cache:il1 il1:1:32:256:l -cache:il2 dl2 knuth_other_base_mergesort574626509
	sim-cache -cache:dl1 dl1:1:32:256:l -cache:dl2 dl2:1:32:65536:l -cache:il1 il1:1:32:256:l -cache:il2 dl2 knuth_other_base_mergesort574626509
	sim-bpred -bpred bimod -bpred:bimod 512 knuth_other_base_mergesort574626509
	sim-bpred -bpred bimod -bpred:bimod 1024 knuth_other_base_mergesort574626509
	sim-bpred -bpred bimod -bpred:bimod 2048 knuth_other_base_mergesort574626509
	sim-bpred -bpred 2lev -bpred:2lev 1 512 10 1 knuth_other_base_mergesort574626509
	sim-bpred -bpred 2lev -bpred:2lev 1 1024 10 1 knuth_other_base_mergesort574626509
	sim-bpred -bpred 2lev -bpred:2lev 1 2048 10 1 knuth_other_base_mergesort574626509
	sim-bpred -bpred 2lev -bpred:2lev 1 4096 10 1 knuth_other_base_mergesort574626509
	sslittle-na-sstrix-gcc -Wall -O3 -funroll-loops -finline-functions  -DRANDOM_SIZE=262144 -DOFFSET=1 -DSORT=knuth_other_base_mergesort sorts/knuth_other_base_mergesort499098255.c simpleMain.c -o knuth_other_base_mergesort574626509
	sim-cache -cache:dl1 dl1:256:32:1:l -cache:dl2 dl2:131072:32:1:l -cache:il1 il1:256:32:1:l -cache:il2 dl2 knuth_other_base_mergesort574626509
	sim-cache -cache:dl1 dl1:256:32:1:l -cache:dl2 dl2:65536:32:1:l -cache:il1 il1:256:32:1:l -cache:il2 dl2 knuth_other_base_mergesort574626509
	sim-cache -cache:dl1 dl1:1:32:256:l -cache:dl2 dl2:1:32:131072:l -cache:il1 il1:1:32:256:l -cache:il2 dl2 knuth_other_base_mergesort574626509
	sim-cache -cache:dl1 dl1:1:32:256:l -cache:dl2 dl2:1:32:65536:l -cache:il1 il1:1:32:256:l -cache:il2 dl2 knuth_other_base_mergesort574626509
	sim-bpred -bpred bimod -bpred:bimod 512 knuth_other_base_mergesort574626509
	sim-bpred -bpred bimod -bpred:bimod 1024 knuth_other_base_mergesort574626509
	sim-bpred -bpred bimod -bpred:bimod 2048 knuth_other_base_mergesort574626509
	sim-bpred -bpred 2lev -bpred:2lev 1 512 10 1 knuth_other_base_mergesort574626509
	sim-bpred -bpred 2lev -bpred:2lev 1 1024 10 1 knuth_other_base_mergesort574626509
	sim-bpred -bpred 2lev -bpred:2lev 1 2048 10 1 knuth_other_base_mergesort574626509
	sim-bpred -bpred 2lev -bpred:2lev 1 4096 10 1 knuth_other_base_mergesort574626509
	sslittle-na-sstrix-gcc -Wall -O3 -funroll-loops -finline-functions  -DRANDOM_SIZE=524288 -DOFFSET=1 -DSORT=knuth_other_base_mergesort sorts/knuth_other_base_mergesort499098255.c simpleMain.c -o knuth_other_base_mergesort574626509
	sim-cache -cache:dl1 dl1:256:32:1:l -cache:dl2 dl2:131072:32:1:l -cache:il1 il1:256:32:1:l -cache:il2 dl2 knuth_other_base_mergesort574626509
	sim-cache -cache:dl1 dl1:256:32:1:l -cache:dl2 dl2:65536:32:1:l -cache:il1 il1:256:32:1:l -cache:il2 dl2 knuth_other_base_mergesort574626509
	sim-cache -cache:dl1 dl1:1:32:256:l -cache:dl2 dl2:1:32:131072:l -cache:il1 il1:1:32:256:l -cache:il2 dl2 knuth_other_base_mergesort574626509
	sim-cache -cache:dl1 dl1:1:32:256:l -cache:dl2 dl2:1:32:65536:l -cache:il1 il1:1:32:256:l -cache:il2 dl2 knuth_other_base_mergesort574626509
	sim-bpred -bpred bimod -bpred:bimod 512 knuth_other_base_mergesort574626509
	sim-bpred -bpred bimod -bpred:bimod 1024 knuth_other_base_mergesort574626509
	sim-bpred -bpred bimod -bpred:bimod 2048 knuth_other_base_mergesort574626509
	sim-bpred -bpred 2lev -bpred:2lev 1 512 10 1 knuth_other_base_mergesort574626509
	sim-bpred -bpred 2lev -bpred:2lev 1 1024 10 1 knuth_other_base_mergesort574626509
	sim-bpred -bpred 2lev -bpred:2lev 1 2048 10 1 knuth_other_base_mergesort574626509
	sim-bpred -bpred 2lev -bpred:2lev 1 4096 10 1 knuth_other_base_mergesort574626509
	sslittle-na-sstrix-gcc -Wall -O3 -funroll-loops -finline-functions  -DRANDOM_SIZE=1048576 -DOFFSET=1 -DSORT=knuth_other_base_mergesort sorts/knuth_other_base_mergesort499098255.c simpleMain.c -o knuth_other_base_mergesort574626509
	sim-cache -cache:dl1 dl1:256:32:1:l -cache:dl2 dl2:131072:32:1:l -cache:il1 il1:256:32:1:l -cache:il2 dl2 knuth_other_base_mergesort574626509
	sim-cache -cache:dl1 dl1:256:32:1:l -cache:dl2 dl2:65536:32:1:l -cache:il1 il1:256:32:1:l -cache:il2 dl2 knuth_other_base_mergesort574626509
	sim-cache -cache:dl1 dl1:1:32:256:l -cache:dl2 dl2:1:32:131072:l -cache:il1 il1:1:32:256:l -cache:il2 dl2 knuth_other_base_mergesort574626509
	sim-cache -cache:dl1 dl1:1:32:256:l -cache:dl2 dl2:1:32:65536:l -cache:il1 il1:1:32:256:l -cache:il2 dl2 knuth_other_base_mergesort574626509
	sim-bpred -bpred bimod -bpred:bimod 512 knuth_other_base_mergesort574626509
	sim-bpred -bpred bimod -bpred:bimod 1024 knuth_other_base_mergesort574626509
	sim-bpred -bpred bimod -bpred:bimod 2048 knuth_other_base_mergesort574626509
	sim-bpred -bpred 2lev -bpred:2lev 1 512 10 1 knuth_other_base_mergesort574626509
	sim-bpred -bpred 2lev -bpred:2lev 1 1024 10 1 knuth_other_base_mergesort574626509
	sim-bpred -bpred 2lev -bpred:2lev 1 2048 10 1 knuth_other_base_mergesort574626509
	sim-bpred -bpred 2lev -bpred:2lev 1 4096 10 1 knuth_other_base_mergesort574626509
	sslittle-na-sstrix-gcc -Wall -O3 -funroll-loops -finline-functions  -DRANDOM_SIZE=2097152 -DOFFSET=1 -DSORT=knuth_other_base_mergesort sorts/knuth_other_base_mergesort499098255.c simpleMain.c -o knuth_other_base_mergesort574626509
	sim-cache -cache:dl1 dl1:256:32:1:l -cache:dl2 dl2:131072:32:1:l -cache:il1 il1:256:32:1:l -cache:il2 dl2 knuth_other_base_mergesort574626509
	sim-cache -cache:dl1 dl1:256:32:1:l -cache:dl2 dl2:65536:32:1:l -cache:il1 il1:256:32:1:l -cache:il2 dl2 knuth_other_base_mergesort574626509
	sim-cache -cache:dl1 dl1:1:32:256:l -cache:dl2 dl2:1:32:131072:l -cache:il1 il1:1:32:256:l -cache:il2 dl2 knuth_other_base_mergesort574626509
	sim-cache -cache:dl1 dl1:1:32:256:l -cache:dl2 dl2:1:32:65536:l -cache:il1 il1:1:32:256:l -cache:il2 dl2 knuth_other_base_mergesort574626509
	sim-bpred -bpred bimod -bpred:bimod 512 knuth_other_base_mergesort574626509
	sim-bpred -bpred bimod -bpred:bimod 1024 knuth_other_base_mergesort574626509
	sim-bpred -bpred bimod -bpred:bimod 2048 knuth_other_base_mergesort574626509
	sim-bpred -bpred 2lev -bpred:2lev 1 512 10 1 knuth_other_base_mergesort574626509
	sim-bpred -bpred 2lev -bpred:2lev 1 1024 10 1 knuth_other_base_mergesort574626509
	sim-bpred -bpred 2lev -bpred:2lev 1 2048 10 1 knuth_other_base_mergesort574626509
	sim-bpred -bpred 2lev -bpred:2lev 1 4096 10 1 knuth_other_base_mergesort574626509
	sslittle-na-sstrix-gcc -Wall -O3 -funroll-loops -finline-functions  -DRANDOM_SIZE=4194304 -DOFFSET=1 -DSORT=knuth_other_base_mergesort sorts/knuth_other_base_mergesort499098255.c simpleMain.c -o knuth_other_base_mergesort574626509
	sim-cache -cache:dl1 dl1:256:32:1:l -cache:dl2 dl2:131072:32:1:l -cache:il1 il1:256:32:1:l -cache:il2 dl2 knuth_other_base_mergesort574626509
	sim-cache -cache:dl1 dl1:256:32:1:l -cache:dl2 dl2:65536:32:1:l -cache:il1 il1:256:32:1:l -cache:il2 dl2 knuth_other_base_mergesort574626509
	sim-cache -cache:dl1 dl1:1:32:256:l -cache:dl2 dl2:1:32:131072:l -cache:il1 il1:1:32:256:l -cache:il2 dl2 knuth_other_base_mergesort574626509
	sim-cache -cache:dl1 dl1:1:32:256:l -cache:dl2 dl2:1:32:65536:l -cache:il1 il1:1:32:256:l -cache:il2 dl2 knuth_other_base_mergesort574626509
	sim-bpred -bpred bimod -bpred:bimod 512 knuth_other_base_mergesort574626509
	sim-bpred -bpred bimod -bpred:bimod 1024 knuth_other_base_mergesort574626509
	sim-bpred -bpred bimod -bpred:bimod 2048 knuth_other_base_mergesort574626509
	sim-bpred -bpred 2lev -bpred:2lev 1 512 10 1 knuth_other_base_mergesort574626509
	sim-bpred -bpred 2lev -bpred:2lev 1 1024 10 1 knuth_other_base_mergesort574626509
	sim-bpred -bpred 2lev -bpred:2lev 1 2048 10 1 knuth_other_base_mergesort574626509
	sim-bpred -bpred 2lev -bpred:2lev 1 4096 10 1 knuth_other_base_mergesort574626509
