Fri Jul  1 23:22:41 2005
Run as: "./do_simple -c random.org3 -o 3 algorithm_s"
-------------------------------------------------------------------------------------------------
sim-cache                                     4096 |         4096 |         4096 |         4096 |         8192 |         8192 |         8192 |         8192 |        16384 |        16384 |        16384 |        16384 |        32768 |        32768 |        32768 |        32768 |        65536 |        65536 |        65536 |        65536 |       131072 |       131072 |       131072 |       131072 |       262144 |       262144 |       262144 |       262144 |       524288 |       524288 |       524288 |       524288 |      1048576 |      1048576 |      1048576 |      1048576 |      2097152 |      2097152 |      2097152 |      2097152 |      4194304 |      4194304 |      4194304 |      4194304 |
-cache:dl1 dl1:256:32:1:l -cache:dl2 dl2:131072:32:1:l -cache:il1 il1:256:32:1:l -cache:il2 dl2
-cache:dl1 dl1:256:32:1:l -cache:dl2 dl2:65536:32:1:l -cache:il1 il1:256:32:1:l -cache:il2 dl2
-cache:dl1 dl1:1:32:256:l -cache:dl2 dl2:1:32:131072:l -cache:il1 il1:1:32:256:l -cache:il2 dl2
-cache:dl1 dl1:1:32:256:l -cache:dl2 dl2:1:32:65536:l -cache:il1 il1:1:32:256:l -cache:il2 dl2
-------------------------------------------------------------------------------------------------
sim_num_insn                                766288 |       766288 |       766288 |       766288 |      1669319 |      1669319 |      1669319 |      1669319 |      3536772 |      3536772 |      3536772 |      3536772 |      7640436 |      7640436 |      7640436 |      7640436 |     16092602 |     16092602 |     16092602 |     16092602 |     34471197 |     34471197 |     34471197 |     34471197 |     72213695 |     72213695 |     72213695 |     72213695 |    153592145 |    153592145 |    153592145 |    153592145 |    320298277 |    320298277 |    320298277 |    320298277 |    677284928 |    677284928 |    677284928 |    677284928 |   1406991758 |   1406991758 |   1406991758 |   1406991758 |
sim_num_refs                                146039 |       146039 |       146039 |       146039 |       329298 |       329298 |       329298 |       329298 |       671239 |       671239 |       671239 |       671239 |      1502596 |      1502596 |      1502596 |      1502596 |      3066795 |      3066795 |      3066795 |      3066795 |      6784860 |      6784860 |      6784860 |      6784860 |     13828330 |     13828330 |     13828330 |     13828330 |     30273637 |     30273637 |     30273637 |     30273637 |     61601576 |     61601576 |     61601576 |     61601576 |    133681590 |    133681590 |    133681590 |    133681590 |    271551686 |    271551686 |    271551686 |    271551686 |
sim_elapsed_time                                 1 |            1 |           10 |            4 |            1 |            1 |           15 |            8 |            1 |            1 |           26 |           13 |            2 |            1 |           45 |           24 |            4 |            4 |           85 |           42 |            9 |            9 |          158 |           74 |           18 |           18 |          273 |          102 |           38 |           39 |          380 |          129 |           81 |           82 |          432 |          177 |          173 |          173 |          540 |          285 |          358 |          357 |          758 |          500 |
sim_inst_rate                          766288.0000 |  766288.0000 |   76628.8000 |  191572.0000 | 1669319.0000 | 1669319.0000 |  111287.9333 |  208664.8750 | 3536772.0000 | 3536772.0000 |  136029.6923 |  272059.3846 | 3820218.0000 | 7640436.0000 |  169787.4667 |  318351.5000 | 4023150.5000 | 4023150.5000 |  189324.7294 |  383157.1905 | 3830133.0000 | 3830133.0000 |  218172.1329 |  465826.9865 | 4011871.9444 | 4011871.9444 |  264519.0293 |  707977.4020 | 4041898.5526 | 3938260.1282 |  404189.8553 | 1190636.7829 | 3954299.7160 | 3906076.5488 |  741431.1968 | 1809594.7853 | 3914941.7803 | 3914941.7803 | 1254231.3481 | 2376438.3439 | 3930144.5754 | 3941153.3838 | 1856189.6544 | 2813983.5160 |
il1.accesses                                766288 |       766288 |       766288 |       766288 |      1669319 |      1669319 |      1669319 |      1669319 |      3536772 |      3536772 |      3536772 |      3536772 |      7640436 |      7640436 |      7640436 |      7640436 |     16092602 |     16092602 |     16092602 |     16092602 |     34471197 |     34471197 |     34471197 |     34471197 |     72213695 |     72213695 |     72213695 |     72213695 |    153592145 |    153592145 |    153592145 |    153592145 |    320298277 |    320298277 |    320298277 |    320298277 |    677284928 |    677284928 |    677284928 |    677284928 |   1406991758 |   1406991758 |   1406991758 |   1406991758 |
il1.hits                                    765882 |       765882 |       765947 |       765947 |      1668856 |      1668856 |      1668965 |      1668965 |      3536339 |      3536339 |      3536436 |      3536436 |      7639970 |      7639970 |      7640080 |      7640080 |     16092159 |     16092159 |     16092269 |     16092269 |     34470732 |     34470732 |     34470841 |     34470841 |     72213253 |     72213253 |     72213362 |     72213362 |    153591680 |    153591680 |    153591789 |    153591789 |    320297811 |    320297811 |    320297888 |    320297888 |    677284455 |    677284455 |    677284535 |    677284535 |   1406991292 |   1406991292 |   1406991369 |   1406991369 |
il1.misses                                     406 |          406 |          341 |          341 |          463 |          463 |          354 |          354 |          433 |          433 |          336 |          336 |          466 |          466 |          356 |          356 |          443 |          443 |          333 |          333 |          465 |          465 |          356 |          356 |          442 |          442 |          333 |          333 |          465 |          465 |          356 |          356 |          466 |          466 |          389 |          389 |          473 |          473 |          393 |          393 |          466 |          466 |          389 |          389 |
il1.replacements                               220 |          220 |           85 |           85 |          262 |          262 |           98 |           98 |          248 |          248 |           80 |           80 |          265 |          265 |          100 |          100 |          261 |          261 |           77 |           77 |          264 |          264 |          100 |          100 |          260 |          260 |           77 |           77 |          264 |          264 |          100 |          100 |          248 |          248 |          133 |          133 |          255 |          255 |          137 |          137 |          248 |          248 |          133 |          133 |
il1.writebacks                                   0 |            0 |            0 |            0 |            0 |            0 |            0 |            0 |            0 |            0 |            0 |            0 |            0 |            0 |            0 |            0 |            0 |            0 |            0 |            0 |            0 |            0 |            0 |            0 |            0 |            0 |            0 |            0 |            0 |            0 |            0 |            0 |            0 |            0 |            0 |            0 |            0 |            0 |            0 |            0 |            0 |            0 |            0 |            0 |
il1.invalidations                                0 |            0 |            0 |            0 |            0 |            0 |            0 |            0 |            0 |            0 |            0 |            0 |            0 |            0 |            0 |            0 |            0 |            0 |            0 |            0 |            0 |            0 |            0 |            0 |            0 |            0 |            0 |            0 |            0 |            0 |            0 |            0 |            0 |            0 |            0 |            0 |            0 |            0 |            0 |            0 |            0 |            0 |            0 |            0 |
il1.miss_rate                               0.0005 |       0.0005 |       0.0004 |       0.0004 |       0.0003 |       0.0003 |       0.0002 |       0.0002 |       0.0001 |       0.0001 |       0.0001 |       0.0001 |       0.0001 |       0.0001 |       0.0000 |       0.0000 |       0.0000 |       0.0000 |       0.0000 |       0.0000 |       0.0000 |       0.0000 |       0.0000 |       0.0000 |       0.0000 |       0.0000 |       0.0000 |       0.0000 |       0.0000 |       0.0000 |       0.0000 |       0.0000 |       0.0000 |       0.0000 |       0.0000 |       0.0000 |       0.0000 |       0.0000 |       0.0000 |       0.0000 |       0.0000 |       0.0000 |       0.0000 |       0.0000 |
il1.repl_rate                               0.0003 |       0.0003 |       0.0001 |       0.0001 |       0.0002 |       0.0002 |       0.0001 |       0.0001 |       0.0001 |       0.0001 |       0.0000 |       0.0000 |       0.0000 |       0.0000 |       0.0000 |       0.0000 |       0.0000 |       0.0000 |       0.0000 |       0.0000 |       0.0000 |       0.0000 |       0.0000 |       0.0000 |       0.0000 |       0.0000 |       0.0000 |       0.0000 |       0.0000 |       0.0000 |       0.0000 |       0.0000 |       0.0000 |       0.0000 |       0.0000 |       0.0000 |       0.0000 |       0.0000 |       0.0000 |       0.0000 |       0.0000 |       0.0000 |       0.0000 |       0.0000 |
il1.wb_rate                                 0.0000 |       0.0000 |       0.0000 |       0.0000 |       0.0000 |       0.0000 |       0.0000 |       0.0000 |       0.0000 |       0.0000 |       0.0000 |       0.0000 |       0.0000 |       0.0000 |       0.0000 |       0.0000 |       0.0000 |       0.0000 |       0.0000 |       0.0000 |       0.0000 |       0.0000 |       0.0000 |       0.0000 |       0.0000 |       0.0000 |       0.0000 |       0.0000 |       0.0000 |       0.0000 |       0.0000 |       0.0000 |       0.0000 |       0.0000 |       0.0000 |       0.0000 |       0.0000 |       0.0000 |       0.0000 |       0.0000 |       0.0000 |       0.0000 |       0.0000 |       0.0000 |
il1.inv_rate                                0.0000 |       0.0000 |       0.0000 |       0.0000 |       0.0000 |       0.0000 |       0.0000 |       0.0000 |       0.0000 |       0.0000 |       0.0000 |       0.0000 |       0.0000 |       0.0000 |       0.0000 |       0.0000 |       0.0000 |       0.0000 |       0.0000 |       0.0000 |       0.0000 |       0.0000 |       0.0000 |       0.0000 |       0.0000 |       0.0000 |       0.0000 |       0.0000 |       0.0000 |       0.0000 |       0.0000 |       0.0000 |       0.0000 |       0.0000 |       0.0000 |       0.0000 |       0.0000 |       0.0000 |       0.0000 |       0.0000 |       0.0000 |       0.0000 |       0.0000 |       0.0000 |
dl1.accesses                                162505 |       162505 |       162505 |       162505 |       362148 |       362148 |       362148 |       362148 |       736857 |       736857 |       736857 |       736857 |      1633750 |      1633750 |      1633750 |      1633750 |      3329021 |      3329021 |      3329021 |      3329021 |      7309230 |      7309230 |      7309230 |      7309230 |     14876988 |     14876988 |     14876988 |     14876988 |     32370871 |     32370871 |     32370871 |     32370871 |     65795962 |     65795962 |     65795962 |     65795962 |    142070280 |    142070280 |    142070280 |    142070280 |    288328984 |    288328984 |    288328984 |    288328984 |
dl1.hits                                    148614 |       148614 |       149243 |       149243 |       330551 |       330551 |       331978 |       331978 |       673661 |       673661 |       676984 |       676984 |      1491061 |      1491061 |      1498075 |      1498075 |      3042034 |      3042034 |      3058139 |      3058139 |      6667838 |      6667838 |      6702386 |      6702386 |     13589424 |     13589424 |     13663769 |     13663769 |     29522248 |     29522248 |     29682746 |     29682746 |     60075993 |     60075993 |     60419023 |     60419023 |    129537946 |    129537946 |    130268675 |    130268675 |    263178242 |    263178242 |    264726636 |    264726636 |
dl1.misses                                   13891 |        13891 |        13262 |        13262 |        31597 |        31597 |        30170 |        30170 |        63196 |        63196 |        59873 |        59873 |       142689 |       142689 |       135675 |       135675 |       286987 |       286987 |       270882 |       270882 |       641392 |       641392 |       606844 |       606844 |      1287564 |      1287564 |      1213219 |      1213219 |      2848623 |      2848623 |      2688125 |      2688125 |      5719969 |      5719969 |      5376939 |      5376939 |     12532334 |     12532334 |     11801605 |     11801605 |     25150742 |     25150742 |     23602348 |     23602348 |
dl1.replacements                             13635 |        13635 |        13006 |        13006 |        31341 |        31341 |        29914 |        29914 |        62940 |        62940 |        59617 |        59617 |       142433 |       142433 |       135419 |       135419 |       286731 |       286731 |       270626 |       270626 |       641136 |       641136 |       606588 |       606588 |      1287308 |      1287308 |      1212963 |      1212963 |      2848367 |      2848367 |      2687869 |      2687869 |      5719713 |      5719713 |      5376683 |      5376683 |     12532078 |     12532078 |     11801349 |     11801349 |     25150486 |     25150486 |     23602092 |     23602092 |
dl1.writebacks                                7257 |         7257 |         6961 |         6961 |        16234 |        16234 |        15674 |        15674 |        32342 |        32342 |        31042 |        31042 |        72563 |        72563 |        69978 |        69978 |       145521 |       145521 |       139650 |       139650 |       324282 |       324282 |       311770 |       311770 |       649953 |       649953 |       623234 |       623234 |      1434088 |      1434088 |      1377242 |      1377242 |      2876066 |      2876066 |      2754951 |      2754951 |      6289784 |      6289784 |      6033886 |      6033886 |     12607272 |     12607272 |     12067462 |     12067462 |
dl1.invalidations                                0 |            0 |            0 |            0 |            0 |            0 |            0 |            0 |            0 |            0 |            0 |            0 |            0 |            0 |            0 |            0 |            0 |            0 |            0 |            0 |            0 |            0 |            0 |            0 |            0 |            0 |            0 |            0 |            0 |            0 |            0 |            0 |            0 |            0 |            0 |            0 |            0 |            0 |            0 |            0 |            0 |            0 |            0 |            0 |
dl1.miss_rate                               0.0855 |       0.0855 |       0.0816 |       0.0816 |       0.0872 |       0.0872 |       0.0833 |       0.0833 |       0.0858 |       0.0858 |       0.0813 |       0.0813 |       0.0873 |       0.0873 |       0.0830 |       0.0830 |       0.0862 |       0.0862 |       0.0814 |       0.0814 |       0.0878 |       0.0878 |       0.0830 |       0.0830 |       0.0865 |       0.0865 |       0.0816 |       0.0816 |       0.0880 |       0.0880 |       0.0830 |       0.0830 |       0.0869 |       0.0869 |       0.0817 |       0.0817 |       0.0882 |       0.0882 |       0.0831 |       0.0831 |       0.0872 |       0.0872 |       0.0819 |       0.0819 |
dl1.repl_rate                               0.0839 |       0.0839 |       0.0800 |       0.0800 |       0.0865 |       0.0865 |       0.0826 |       0.0826 |       0.0854 |       0.0854 |       0.0809 |       0.0809 |       0.0872 |       0.0872 |       0.0829 |       0.0829 |       0.0861 |       0.0861 |       0.0813 |       0.0813 |       0.0877 |       0.0877 |       0.0830 |       0.0830 |       0.0865 |       0.0865 |       0.0815 |       0.0815 |       0.0880 |       0.0880 |       0.0830 |       0.0830 |       0.0869 |       0.0869 |       0.0817 |       0.0817 |       0.0882 |       0.0882 |       0.0831 |       0.0831 |       0.0872 |       0.0872 |       0.0819 |       0.0819 |
dl1.wb_rate                                 0.0447 |       0.0447 |       0.0428 |       0.0428 |       0.0448 |       0.0448 |       0.0433 |       0.0433 |       0.0439 |       0.0439 |       0.0421 |       0.0421 |       0.0444 |       0.0444 |       0.0428 |       0.0428 |       0.0437 |       0.0437 |       0.0419 |       0.0419 |       0.0444 |       0.0444 |       0.0427 |       0.0427 |       0.0437 |       0.0437 |       0.0419 |       0.0419 |       0.0443 |       0.0443 |       0.0425 |       0.0425 |       0.0437 |       0.0437 |       0.0419 |       0.0419 |       0.0443 |       0.0443 |       0.0425 |       0.0425 |       0.0437 |       0.0437 |       0.0419 |       0.0419 |
dl1.inv_rate                                0.0000 |       0.0000 |       0.0000 |       0.0000 |       0.0000 |       0.0000 |       0.0000 |       0.0000 |       0.0000 |       0.0000 |       0.0000 |       0.0000 |       0.0000 |       0.0000 |       0.0000 |       0.0000 |       0.0000 |       0.0000 |       0.0000 |       0.0000 |       0.0000 |       0.0000 |       0.0000 |       0.0000 |       0.0000 |       0.0000 |       0.0000 |       0.0000 |       0.0000 |       0.0000 |       0.0000 |       0.0000 |       0.0000 |       0.0000 |       0.0000 |       0.0000 |       0.0000 |       0.0000 |       0.0000 |       0.0000 |       0.0000 |       0.0000 |       0.0000 |       0.0000 |
dl2.accesses                                 21554 |        21554 |        20564 |        20564 |        48294 |        48294 |        46198 |        46198 |        95971 |        95971 |        91251 |        91251 |       215718 |       215718 |       206009 |       206009 |       432951 |       432951 |       410865 |       410865 |       966139 |       966139 |       918970 |       918970 |      1937959 |      1937959 |      1836786 |      1836786 |      4283176 |      4283176 |      4065723 |      4065723 |      8596501 |      8596501 |      8132279 |      8132279 |     18822591 |     18822591 |     17835884 |     17835884 |     37758480 |     37758480 |     35670199 |     35670199 |
dl2.hits                                     19760 |        19760 |        18788 |        18788 |        45454 |        45454 |        43384 |        43384 |        91097 |        91097 |        86407 |        86407 |       206731 |       206731 |       197049 |       197049 |       415796 |       415796 |       393737 |       393737 |       932576 |       932576 |       885434 |       885434 |      1871651 |      1816611 |      1770506 |      1472238 |      4090160 |      1843910 |      3310328 |      1394253 |      3789523 |      3260097 |      2789207 |      2772764 |      7108006 |      7052485 |      6069255 |      6052871 |     14221942 |     14186926 |     12105175 |     12088791 |
dl2.misses                                    1794 |         1794 |         1776 |         1776 |         2840 |         2840 |         2814 |         2814 |         4874 |         4874 |         4844 |         4844 |         8987 |         8987 |         8960 |         8960 |        17155 |        17155 |        17128 |        17128 |        33563 |        33563 |        33536 |        33536 |        66308 |       121348 |        66280 |       364548 |       193016 |      2439266 |       755395 |      2671470 |      4806978 |      5336404 |      5343072 |      5359515 |     11714585 |     11770106 |     11766629 |     11783013 |     23536538 |     23571554 |     23565024 |     23581408 |
dl2.replacements                               182 |          182 |            0 |            0 |          210 |          210 |            0 |            0 |          229 |          229 |            0 |            0 |          232 |          232 |            0 |            0 |          223 |          223 |            0 |            0 |          232 |          232 |            0 |            0 |          224 |        56935 |            0 |       299012 |        63052 |      2373730 |       624323 |      2605934 |      4675906 |      5270868 |      5212000 |      5293979 |     11583513 |     11704570 |     11635557 |     11717477 |     23405466 |     23506018 |     23433952 |     23515872 |
dl2.writebacks                                 112 |          112 |            0 |            0 |          136 |          136 |            0 |            0 |          151 |          151 |            0 |            0 |          155 |          155 |            0 |            0 |          146 |          146 |            0 |            0 |          155 |          155 |            0 |            0 |          146 |        31325 |            0 |       298471 |        35220 |      1313204 |       623763 |      1343940 |      2709536 |      2711756 |      2688185 |      2720953 |      5902910 |      5968793 |      5965758 |      5998526 |     11977801 |     12022271 |     11996605 |     12029373 |
dl2.invalidations                                0 |            0 |            0 |            0 |            0 |            0 |            0 |            0 |            0 |            0 |            0 |            0 |            0 |            0 |            0 |            0 |            0 |            0 |            0 |            0 |            0 |            0 |            0 |            0 |            0 |            0 |            0 |            0 |            0 |            0 |            0 |            0 |            0 |            0 |            0 |            0 |            0 |            0 |            0 |            0 |            0 |            0 |            0 |            0 |
dl2.miss_rate                               0.0832 |       0.0832 |       0.0864 |       0.0864 |       0.0588 |       0.0588 |       0.0609 |       0.0609 |       0.0508 |       0.0508 |       0.0531 |       0.0531 |       0.0417 |       0.0417 |       0.0435 |       0.0435 |       0.0396 |       0.0396 |       0.0417 |       0.0417 |       0.0347 |       0.0347 |       0.0365 |       0.0365 |       0.0342 |       0.0626 |       0.0361 |       0.1985 |       0.0451 |       0.5695 |       0.1858 |       0.6571 |       0.5592 |       0.6208 |       0.6570 |       0.6590 |       0.6224 |       0.6253 |       0.6597 |       0.6606 |       0.6233 |       0.6243 |       0.6606 |       0.6611 |
dl2.repl_rate                               0.0084 |       0.0084 |       0.0000 |       0.0000 |       0.0043 |       0.0043 |       0.0000 |       0.0000 |       0.0024 |       0.0024 |       0.0000 |       0.0000 |       0.0011 |       0.0011 |       0.0000 |       0.0000 |       0.0005 |       0.0005 |       0.0000 |       0.0000 |       0.0002 |       0.0002 |       0.0000 |       0.0000 |       0.0001 |       0.0294 |       0.0000 |       0.1628 |       0.0147 |       0.5542 |       0.1536 |       0.6410 |       0.5439 |       0.6131 |       0.6409 |       0.6510 |       0.6154 |       0.6218 |       0.6524 |       0.6570 |       0.6199 |       0.6225 |       0.6570 |       0.6593 |
dl2.wb_rate                                 0.0052 |       0.0052 |       0.0000 |       0.0000 |       0.0028 |       0.0028 |       0.0000 |       0.0000 |       0.0016 |       0.0016 |       0.0000 |       0.0000 |       0.0007 |       0.0007 |       0.0000 |       0.0000 |       0.0003 |       0.0003 |       0.0000 |       0.0000 |       0.0002 |       0.0002 |       0.0000 |       0.0000 |       0.0001 |       0.0162 |       0.0000 |       0.1625 |       0.0082 |       0.3066 |       0.1534 |       0.3306 |       0.3152 |       0.3154 |       0.3306 |       0.3346 |       0.3136 |       0.3171 |       0.3345 |       0.3363 |       0.3172 |       0.3184 |       0.3363 |       0.3372 |
dl2.inv_rate                                0.0000 |       0.0000 |       0.0000 |       0.0000 |       0.0000 |       0.0000 |       0.0000 |       0.0000 |       0.0000 |       0.0000 |       0.0000 |       0.0000 |       0.0000 |       0.0000 |       0.0000 |       0.0000 |       0.0000 |       0.0000 |       0.0000 |       0.0000 |       0.0000 |       0.0000 |       0.0000 |       0.0000 |       0.0000 |       0.0000 |       0.0000 |       0.0000 |       0.0000 |       0.0000 |       0.0000 |       0.0000 |       0.0000 |       0.0000 |       0.0000 |       0.0000 |       0.0000 |       0.0000 |       0.0000 |       0.0000 |       0.0000 |       0.0000 |       0.0000 |       0.0000 |
itlb.accesses                               766288 |       766288 |       766288 |       766288 |      1669319 |      1669319 |      1669319 |      1669319 |      3536772 |      3536772 |      3536772 |      3536772 |      7640436 |      7640436 |      7640436 |      7640436 |     16092602 |     16092602 |     16092602 |     16092602 |     34471197 |     34471197 |     34471197 |     34471197 |     72213695 |     72213695 |     72213695 |     72213695 |    153592145 |    153592145 |    153592145 |    153592145 |    320298277 |    320298277 |    320298277 |    320298277 |    677284928 |    677284928 |    677284928 |    677284928 |   1406991758 |   1406991758 |   1406991758 |   1406991758 |
itlb.hits                                   766279 |       766279 |       766279 |       766279 |      1669310 |      1669310 |      1669310 |      1669310 |      3536763 |      3536763 |      3536763 |      3536763 |      7640427 |      7640427 |      7640427 |      7640427 |     16092593 |     16092593 |     16092593 |     16092593 |     34471188 |     34471188 |     34471188 |     34471188 |     72213686 |     72213686 |     72213686 |     72213686 |    153592136 |    153592136 |    153592136 |    153592136 |    320298268 |    320298268 |    320298268 |    320298268 |    677284919 |    677284919 |    677284919 |    677284919 |   1406991749 |   1406991749 |   1406991749 |   1406991749 |
itlb.misses                                      9 |            9 |            9 |            9 |            9 |            9 |            9 |            9 |            9 |            9 |            9 |            9 |            9 |            9 |            9 |            9 |            9 |            9 |            9 |            9 |            9 |            9 |            9 |            9 |            9 |            9 |            9 |            9 |            9 |            9 |            9 |            9 |            9 |            9 |            9 |            9 |            9 |            9 |            9 |            9 |            9 |            9 |            9 |            9 |
itlb.replacements                                0 |            0 |            0 |            0 |            0 |            0 |            0 |            0 |            0 |            0 |            0 |            0 |            0 |            0 |            0 |            0 |            0 |            0 |            0 |            0 |            0 |            0 |            0 |            0 |            0 |            0 |            0 |            0 |            0 |            0 |            0 |            0 |            0 |            0 |            0 |            0 |            0 |            0 |            0 |            0 |            0 |            0 |            0 |            0 |
itlb.writebacks                                  0 |            0 |            0 |            0 |            0 |            0 |            0 |            0 |            0 |            0 |            0 |            0 |            0 |            0 |            0 |            0 |            0 |            0 |            0 |            0 |            0 |            0 |            0 |            0 |            0 |            0 |            0 |            0 |            0 |            0 |            0 |            0 |            0 |            0 |            0 |            0 |            0 |            0 |            0 |            0 |            0 |            0 |            0 |            0 |
itlb.invalidations                               0 |            0 |            0 |            0 |            0 |            0 |            0 |            0 |            0 |            0 |            0 |            0 |            0 |            0 |            0 |            0 |            0 |            0 |            0 |            0 |            0 |            0 |            0 |            0 |            0 |            0 |            0 |            0 |            0 |            0 |            0 |            0 |            0 |            0 |            0 |            0 |            0 |            0 |            0 |            0 |            0 |            0 |            0 |            0 |
itlb.miss_rate                              0.0000 |       0.0000 |       0.0000 |       0.0000 |       0.0000 |       0.0000 |       0.0000 |       0.0000 |       0.0000 |       0.0000 |       0.0000 |       0.0000 |       0.0000 |       0.0000 |       0.0000 |       0.0000 |       0.0000 |       0.0000 |       0.0000 |       0.0000 |       0.0000 |       0.0000 |       0.0000 |       0.0000 |       0.0000 |       0.0000 |       0.0000 |       0.0000 |       0.0000 |       0.0000 |       0.0000 |       0.0000 |       0.0000 |       0.0000 |       0.0000 |       0.0000 |       0.0000 |       0.0000 |       0.0000 |       0.0000 |       0.0000 |       0.0000 |       0.0000 |       0.0000 |
itlb.repl_rate                              0.0000 |       0.0000 |       0.0000 |       0.0000 |       0.0000 |       0.0000 |       0.0000 |       0.0000 |       0.0000 |       0.0000 |       0.0000 |       0.0000 |       0.0000 |       0.0000 |       0.0000 |       0.0000 |       0.0000 |       0.0000 |       0.0000 |       0.0000 |       0.0000 |       0.0000 |       0.0000 |       0.0000 |       0.0000 |       0.0000 |       0.0000 |       0.0000 |       0.0000 |       0.0000 |       0.0000 |       0.0000 |       0.0000 |       0.0000 |       0.0000 |       0.0000 |       0.0000 |       0.0000 |       0.0000 |       0.0000 |       0.0000 |       0.0000 |       0.0000 |       0.0000 |
itlb.wb_rate                                0.0000 |       0.0000 |       0.0000 |       0.0000 |       0.0000 |       0.0000 |       0.0000 |       0.0000 |       0.0000 |       0.0000 |       0.0000 |       0.0000 |       0.0000 |       0.0000 |       0.0000 |       0.0000 |       0.0000 |       0.0000 |       0.0000 |       0.0000 |       0.0000 |       0.0000 |       0.0000 |       0.0000 |       0.0000 |       0.0000 |       0.0000 |       0.0000 |       0.0000 |       0.0000 |       0.0000 |       0.0000 |       0.0000 |       0.0000 |       0.0000 |       0.0000 |       0.0000 |       0.0000 |       0.0000 |       0.0000 |       0.0000 |       0.0000 |       0.0000 |       0.0000 |
itlb.inv_rate                               0.0000 |       0.0000 |       0.0000 |       0.0000 |       0.0000 |       0.0000 |       0.0000 |       0.0000 |       0.0000 |       0.0000 |       0.0000 |       0.0000 |       0.0000 |       0.0000 |       0.0000 |       0.0000 |       0.0000 |       0.0000 |       0.0000 |       0.0000 |       0.0000 |       0.0000 |       0.0000 |       0.0000 |       0.0000 |       0.0000 |       0.0000 |       0.0000 |       0.0000 |       0.0000 |       0.0000 |       0.0000 |       0.0000 |       0.0000 |       0.0000 |       0.0000 |       0.0000 |       0.0000 |       0.0000 |       0.0000 |       0.0000 |       0.0000 |       0.0000 |       0.0000 |
dtlb.accesses                               162505 |       162505 |       162505 |       162505 |       362148 |       362148 |       362148 |       362148 |       736857 |       736857 |       736857 |       736857 |      1633750 |      1633750 |      1633750 |      1633750 |      3329021 |      3329021 |      3329021 |      3329021 |      7309230 |      7309230 |      7309230 |      7309230 |     14876988 |     14876988 |     14876988 |     14876988 |     32370871 |     32370871 |     32370871 |     32370871 |     65795962 |     65795962 |     65795962 |     65795962 |    142070280 |    142070280 |    142070280 |    142070280 |    288328984 |    288328984 |    288328984 |    288328984 |
dtlb.hits                                   162490 |       162490 |       162490 |       162490 |       362125 |       362125 |       362125 |       362125 |       736818 |       736818 |       736818 |       736818 |      1633679 |      1633679 |      1633679 |      1633679 |      3328810 |      3328810 |      3328810 |      3328810 |      7304540 |      7304540 |      7304540 |      7304540 |     14867514 |     14867514 |     14867514 |     14867514 |     32349868 |     32349868 |     32349868 |     32349868 |     65753952 |     65753952 |     65753952 |     65753952 |    141978064 |    141978064 |    141978064 |    141978064 |    288144550 |    288144550 |    288144550 |    288144550 |
dtlb.misses                                     15 |           15 |           15 |           15 |           23 |           23 |           23 |           23 |           39 |           39 |           39 |           39 |           71 |           71 |           71 |           71 |          211 |          211 |          211 |          211 |         4690 |         4690 |         4690 |         4690 |         9474 |         9474 |         9474 |         9474 |        21003 |        21003 |        21003 |        21003 |        42010 |        42010 |        42010 |        42010 |        92216 |        92216 |        92216 |        92216 |       184434 |       184434 |       184434 |       184434 |
dtlb.replacements                                0 |            0 |            0 |            0 |            0 |            0 |            0 |            0 |            0 |            0 |            0 |            0 |            0 |            0 |            0 |            0 |           83 |           83 |           83 |           83 |         4562 |         4562 |         4562 |         4562 |         9346 |         9346 |         9346 |         9346 |        20875 |        20875 |        20875 |        20875 |        41882 |        41882 |        41882 |        41882 |        92088 |        92088 |        92088 |        92088 |       184306 |       184306 |       184306 |       184306 |
dtlb.writebacks                                  0 |            0 |            0 |            0 |            0 |            0 |            0 |            0 |            0 |            0 |            0 |            0 |            0 |            0 |            0 |            0 |           47 |           47 |           47 |           47 |         2389 |         2389 |         2389 |         2389 |         4821 |         4821 |         4821 |         4821 |        10718 |        10718 |        10718 |        10718 |        21483 |        21483 |        21483 |        21483 |        47112 |        47112 |        47112 |        47112 |        94269 |        94269 |        94269 |        94269 |
dtlb.invalidations                               0 |            0 |            0 |            0 |            0 |            0 |            0 |            0 |            0 |            0 |            0 |            0 |            0 |            0 |            0 |            0 |            0 |            0 |            0 |            0 |            0 |            0 |            0 |            0 |            0 |            0 |            0 |            0 |            0 |            0 |            0 |            0 |            0 |            0 |            0 |            0 |            0 |            0 |            0 |            0 |            0 |            0 |            0 |            0 |
dtlb.miss_rate                              0.0001 |       0.0001 |       0.0001 |       0.0001 |       0.0001 |       0.0001 |       0.0001 |       0.0001 |       0.0001 |       0.0001 |       0.0001 |       0.0001 |       0.0000 |       0.0000 |       0.0000 |       0.0000 |       0.0001 |       0.0001 |       0.0001 |       0.0001 |       0.0006 |       0.0006 |       0.0006 |       0.0006 |       0.0006 |       0.0006 |       0.0006 |       0.0006 |       0.0006 |       0.0006 |       0.0006 |       0.0006 |       0.0006 |       0.0006 |       0.0006 |       0.0006 |       0.0006 |       0.0006 |       0.0006 |       0.0006 |       0.0006 |       0.0006 |       0.0006 |       0.0006 |
dtlb.repl_rate                              0.0000 |       0.0000 |       0.0000 |       0.0000 |       0.0000 |       0.0000 |       0.0000 |       0.0000 |       0.0000 |       0.0000 |       0.0000 |       0.0000 |       0.0000 |       0.0000 |       0.0000 |       0.0000 |       0.0000 |       0.0000 |       0.0000 |       0.0000 |       0.0006 |       0.0006 |       0.0006 |       0.0006 |       0.0006 |       0.0006 |       0.0006 |       0.0006 |       0.0006 |       0.0006 |       0.0006 |       0.0006 |       0.0006 |       0.0006 |       0.0006 |       0.0006 |       0.0006 |       0.0006 |       0.0006 |       0.0006 |       0.0006 |       0.0006 |       0.0006 |       0.0006 |
dtlb.wb_rate                                0.0000 |       0.0000 |       0.0000 |       0.0000 |       0.0000 |       0.0000 |       0.0000 |       0.0000 |       0.0000 |       0.0000 |       0.0000 |       0.0000 |       0.0000 |       0.0000 |       0.0000 |       0.0000 |       0.0000 |       0.0000 |       0.0000 |       0.0000 |       0.0003 |       0.0003 |       0.0003 |       0.0003 |       0.0003 |       0.0003 |       0.0003 |       0.0003 |       0.0003 |       0.0003 |       0.0003 |       0.0003 |       0.0003 |       0.0003 |       0.0003 |       0.0003 |       0.0003 |       0.0003 |       0.0003 |       0.0003 |       0.0003 |       0.0003 |       0.0003 |       0.0003 |
dtlb.inv_rate                               0.0000 |       0.0000 |       0.0000 |       0.0000 |       0.0000 |       0.0000 |       0.0000 |       0.0000 |       0.0000 |       0.0000 |       0.0000 |       0.0000 |       0.0000 |       0.0000 |       0.0000 |       0.0000 |       0.0000 |       0.0000 |       0.0000 |       0.0000 |       0.0000 |       0.0000 |       0.0000 |       0.0000 |       0.0000 |       0.0000 |       0.0000 |       0.0000 |       0.0000 |       0.0000 |       0.0000 |       0.0000 |       0.0000 |       0.0000 |       0.0000 |       0.0000 |       0.0000 |       0.0000 |       0.0000 |       0.0000 |       0.0000 |       0.0000 |       0.0000 |       0.0000 |
ld_text_base                            0x00400000 |   0x00400000 |   0x00400000 |   0x00400000 |   0x00400000 |   0x00400000 |   0x00400000 |   0x00400000 |   0x00400000 |   0x00400000 |   0x00400000 |   0x00400000 |   0x00400000 |   0x00400000 |   0x00400000 |   0x00400000 |   0x00400000 |   0x00400000 |   0x00400000 |   0x00400000 |   0x00400000 |   0x00400000 |   0x00400000 |   0x00400000 |   0x00400000 |   0x00400000 |   0x00400000 |   0x00400000 |   0x00400000 |   0x00400000 |   0x00400000 |   0x00400000 |   0x00400000 |   0x00400000 |   0x00400000 |   0x00400000 |   0x00400000 |   0x00400000 |   0x00400000 |   0x00400000 |   0x00400000 |   0x00400000 |   0x00400000 |   0x00400000 |
ld_text_size                                 71456 |        71456 |        71456 |        71456 |        71488 |        71488 |        71488 |        71488 |        71504 |        71504 |        71504 |        71504 |        71520 |        71520 |        71520 |        71520 |        71520 |        71520 |        71520 |        71520 |        71520 |        71520 |        71520 |        71520 |        71520 |        71520 |        71520 |        71520 |        71520 |        71520 |        71520 |        71520 |        71520 |        71520 |        71520 |        71520 |        71520 |        71520 |        71520 |        71520 |        71520 |        71520 |        71520 |        71520 |
ld_data_base                            0x10000000 |   0x10000000 |   0x10000000 |   0x10000000 |   0x10000000 |   0x10000000 |   0x10000000 |   0x10000000 |   0x10000000 |   0x10000000 |   0x10000000 |   0x10000000 |   0x10000000 |   0x10000000 |   0x10000000 |   0x10000000 |   0x10000000 |   0x10000000 |   0x10000000 |   0x10000000 |   0x10000000 |   0x10000000 |   0x10000000 |   0x10000000 |   0x10000000 |   0x10000000 |   0x10000000 |   0x10000000 |   0x10000000 |   0x10000000 |   0x10000000 |   0x10000000 |   0x10000000 |   0x10000000 |   0x10000000 |   0x10000000 |   0x10000000 |   0x10000000 |   0x10000000 |   0x10000000 |   0x10000000 |   0x10000000 |   0x10000000 |   0x10000000 |
ld_data_size                                  8192 |         8192 |         8192 |         8192 |         8192 |         8192 |         8192 |         8192 |         8192 |         8192 |         8192 |         8192 |         8192 |         8192 |         8192 |         8192 |         8192 |         8192 |         8192 |         8192 |         8192 |         8192 |         8192 |         8192 |         8192 |         8192 |         8192 |         8192 |         8192 |         8192 |         8192 |         8192 |         8192 |         8192 |         8192 |         8192 |         8192 |         8192 |         8192 |         8192 |         8192 |         8192 |         8192 |         8192 |
ld_stack_base                           0x7fffc000 |   0x7fffc000 |   0x7fffc000 |   0x7fffc000 |   0x7fffc000 |   0x7fffc000 |   0x7fffc000 |   0x7fffc000 |   0x7fffc000 |   0x7fffc000 |   0x7fffc000 |   0x7fffc000 |   0x7fffc000 |   0x7fffc000 |   0x7fffc000 |   0x7fffc000 |   0x7fffc000 |   0x7fffc000 |   0x7fffc000 |   0x7fffc000 |   0x7fffc000 |   0x7fffc000 |   0x7fffc000 |   0x7fffc000 |   0x7fffc000 |   0x7fffc000 |   0x7fffc000 |   0x7fffc000 |   0x7fffc000 |   0x7fffc000 |   0x7fffc000 |   0x7fffc000 |   0x7fffc000 |   0x7fffc000 |   0x7fffc000 |   0x7fffc000 |   0x7fffc000 |   0x7fffc000 |   0x7fffc000 |   0x7fffc000 |   0x7fffc000 |   0x7fffc000 |   0x7fffc000 |   0x7fffc000 |
ld_stack_size                                16384 |        16384 |        16384 |        16384 |        16384 |        16384 |        16384 |        16384 |        16384 |        16384 |        16384 |        16384 |        16384 |        16384 |        16384 |        16384 |        16384 |        16384 |        16384 |        16384 |        16384 |        16384 |        16384 |        16384 |        16384 |        16384 |        16384 |        16384 |        16384 |        16384 |        16384 |        16384 |        16384 |        16384 |        16384 |        16384 |        16384 |        16384 |        16384 |        16384 |        16384 |        16384 |        16384 |        16384 |
ld_prog_entry                           0x00400140 |   0x00400140 |   0x00400140 |   0x00400140 |   0x00400140 |   0x00400140 |   0x00400140 |   0x00400140 |   0x00400140 |   0x00400140 |   0x00400140 |   0x00400140 |   0x00400140 |   0x00400140 |   0x00400140 |   0x00400140 |   0x00400140 |   0x00400140 |   0x00400140 |   0x00400140 |   0x00400140 |   0x00400140 |   0x00400140 |   0x00400140 |   0x00400140 |   0x00400140 |   0x00400140 |   0x00400140 |   0x00400140 |   0x00400140 |   0x00400140 |   0x00400140 |   0x00400140 |   0x00400140 |   0x00400140 |   0x00400140 |   0x00400140 |   0x00400140 |   0x00400140 |   0x00400140 |   0x00400140 |   0x00400140 |   0x00400140 |   0x00400140 |
ld_environ_base                         0x7fff8000 |   0x7fff8000 |   0x7fff8000 |   0x7fff8000 |   0x7fff8000 |   0x7fff8000 |   0x7fff8000 |   0x7fff8000 |   0x7fff8000 |   0x7fff8000 |   0x7fff8000 |   0x7fff8000 |   0x7fff8000 |   0x7fff8000 |   0x7fff8000 |   0x7fff8000 |   0x7fff8000 |   0x7fff8000 |   0x7fff8000 |   0x7fff8000 |   0x7fff8000 |   0x7fff8000 |   0x7fff8000 |   0x7fff8000 |   0x7fff8000 |   0x7fff8000 |   0x7fff8000 |   0x7fff8000 |   0x7fff8000 |   0x7fff8000 |   0x7fff8000 |   0x7fff8000 |   0x7fff8000 |   0x7fff8000 |   0x7fff8000 |   0x7fff8000 |   0x7fff8000 |   0x7fff8000 |   0x7fff8000 |   0x7fff8000 |   0x7fff8000 |   0x7fff8000 |   0x7fff8000 |   0x7fff8000 |
ld_target_big_endian                             0 |            0 |            0 |            0 |            0 |            0 |            0 |            0 |            0 |            0 |            0 |            0 |            0 |            0 |            0 |            0 |            0 |            0 |            0 |            0 |            0 |            0 |            0 |            0 |            0 |            0 |            0 |            0 |            0 |            0 |            0 |            0 |            0 |            0 |            0 |            0 |            0 |            0 |            0 |            0 |            0 |            0 |            0 |            0 |
mem.page_count                                  33 |           33 |           33 |           33 |           41 |           41 |           41 |           41 |           57 |           57 |           57 |           57 |           89 |           89 |           89 |           89 |          153 |          153 |          153 |          153 |          281 |          281 |          281 |          281 |          537 |          537 |          537 |          537 |         1049 |         1049 |         1049 |         1049 |         2079 |         2079 |         2079 |         2079 |         4133 |         4133 |         4133 |         4133 |         8241 |         8241 |         8241 |         8241 |
mem.page_mem                                  132k |         132k |         132k |         132k |         164k |         164k |         164k |         164k |         228k |         228k |         228k |         228k |         356k |         356k |         356k |         356k |         612k |         612k |         612k |         612k |        1124k |        1124k |        1124k |        1124k |        2148k |        2148k |        2148k |        2148k |        4196k |        4196k |        4196k |        4196k |        8316k |        8316k |        8316k |        8316k |       16532k |       16532k |       16532k |       16532k |       32964k |       32964k |       32964k |       32964k |
mem.ptab_misses                                 33 |           33 |           33 |           33 |           41 |           41 |           41 |           41 |           57 |           57 |           57 |           57 |           89 |           89 |           89 |           89 |          153 |          153 |          153 |          153 |          281 |          281 |          281 |          281 |          537 |          537 |          537 |          537 |         1049 |         1049 |         1049 |         1049 |        62537 |        62537 |        62537 |        62537 |        68553 |        68553 |        68553 |        68553 |        74485 |        74485 |        74485 |        74485 |
mem.ptab_accesses                          3833480 |      3833480 |      3833480 |      3833480 |      7845082 |      7845082 |      7845082 |      7845082 |     16064408 |     16064408 |     16064408 |     16064408 |     34272946 |     34272946 |     34272946 |     34272946 |     71472152 |     71472152 |     71472152 |     71472152 |    152946950 |    152946950 |    152946950 |    152946950 |    319052458 |    319052458 |    319052458 |    319052458 |    679554024 |    679554024 |    679554024 |    679554024 |   1413228734 |   1413228734 |   1413228734 |   1413228734 |   2993723974 |   2993723974 |   2993723974 |   2993723974 |   6205068702 |   6205068702 |   6205068702 |   6205068702 |
mem.ptab_miss_rate                          0.0000 |       0.0000 |       0.0000 |       0.0000 |       0.0000 |       0.0000 |       0.0000 |       0.0000 |       0.0000 |       0.0000 |       0.0000 |       0.0000 |       0.0000 |       0.0000 |       0.0000 |       0.0000 |       0.0000 |       0.0000 |       0.0000 |       0.0000 |       0.0000 |       0.0000 |       0.0000 |       0.0000 |       0.0000 |       0.0000 |       0.0000 |       0.0000 |       0.0000 |       0.0000 |       0.0000 |       0.0000 |       0.0000 |       0.0000 |       0.0000 |       0.0000 |       0.0000 |       0.0000 |       0.0000 |       0.0000 |       0.0000 |       0.0000 |       0.0000 |       0.0000 |
-------------------------------------------------------------------------------------------------
sim-bpred                                     4096 |         4096 |         4096 |         4096 |         4096 |         4096 |         4096 |         8192 |         8192 |         8192 |         8192 |         8192 |         8192 |         8192 |        16384 |        16384 |        16384 |        16384 |        16384 |        16384 |        16384 |        32768 |        32768 |        32768 |        32768 |        32768 |        32768 |        32768 |        65536 |        65536 |        65536 |        65536 |        65536 |        65536 |        65536 |       131072 |       131072 |       131072 |       131072 |       131072 |       131072 |       131072 |       262144 |       262144 |       262144 |       262144 |       262144 |       262144 |       262144 |       524288 |       524288 |       524288 |       524288 |       524288 |       524288 |       524288 |      1048576 |      1048576 |      1048576 |      1048576 |      1048576 |      1048576 |      1048576 |      2097152 |      2097152 |      2097152 |      2097152 |      2097152 |      2097152 |      2097152 |      4194304 |      4194304 |      4194304 |      4194304 |      4194304 |      4194304 |      4194304 |
-bpred bimod -bpred:bimod 512
-bpred bimod -bpred:bimod 1024
-bpred bimod -bpred:bimod 2048
-bpred 2lev -bpred:2lev 1 512 10 1
-bpred 2lev -bpred:2lev 1 1024 10 1
-bpred 2lev -bpred:2lev 1 2048 10 1
-bpred 2lev -bpred:2lev 1 4096 10 1
-------------------------------------------------------------------------------------------------
sim_num_insn                                766288 |       766288 |       766288 |       766288 |       766288 |       766288 |       766288 |      1669319 |      1669319 |      1669319 |      1669319 |      1669319 |      1669319 |      1669319 |      3536772 |      3536772 |      3536772 |      3536772 |      3536772 |      3536772 |      3536772 |      7640436 |      7640436 |      7640436 |      7640436 |      7640436 |      7640436 |      7640436 |     16092602 |     16092602 |     16092602 |     16092602 |     16092602 |     16092602 |     16092602 |     34471197 |     34471197 |     34471197 |     34471197 |     34471197 |     34471197 |     34471197 |     72213695 |     72213695 |     72213695 |     72213695 |     72213695 |     72213695 |     72213695 |    153592145 |    153592145 |    153592145 |    153592145 |    153592145 |    153592145 |    153592145 |    320298277 |    320298277 |    320298277 |    320298277 |    320298277 |    320298277 |    320298277 |    677284928 |    677284928 |    677284928 |    677284928 |    677284928 |    677284928 |    677284928 |   1406991758 |   1406991758 |   1406991758 |   1406991758 |   1406991758 |   1406991758 |   1406991758 |
sim_num_refs                                146039 |       146039 |       146039 |       146039 |       146039 |       146039 |       146039 |       329298 |       329298 |       329298 |       329298 |       329298 |       329298 |       329298 |       671239 |       671239 |       671239 |       671239 |       671239 |       671239 |       671239 |      1502596 |      1502596 |      1502596 |      1502596 |      1502596 |      1502596 |      1502596 |      3066795 |      3066795 |      3066795 |      3066795 |      3066795 |      3066795 |      3066795 |      6784860 |      6784860 |      6784860 |      6784860 |      6784860 |      6784860 |      6784860 |     13828330 |     13828330 |     13828330 |     13828330 |     13828330 |     13828330 |     13828330 |     30273637 |     30273637 |     30273637 |     30273637 |     30273637 |     30273637 |     30273637 |     61601576 |     61601576 |     61601576 |     61601576 |     61601576 |     61601576 |     61601576 |    133681590 |    133681590 |    133681590 |    133681590 |    133681590 |    133681590 |    133681590 |    271551686 |    271551686 |    271551686 |    271551686 |    271551686 |    271551686 |    271551686 |
sim_elapsed_time                                 1 |            1 |            1 |            1 |            1 |            1 |            1 |            1 |            1 |            1 |            1 |            1 |            1 |            1 |            1 |            1 |            1 |            1 |            1 |            1 |            1 |            1 |            1 |            1 |            1 |            1 |            1 |            1 |            1 |            2 |            2 |            2 |            2 |            1 |            2 |            4 |            4 |            4 |            3 |            4 |            4 |            4 |            8 |            8 |            8 |            8 |            8 |            8 |            8 |           17 |           17 |           17 |           17 |           17 |           17 |           17 |           35 |           35 |           35 |           36 |           35 |           36 |           36 |           75 |           75 |           74 |           76 |           75 |           75 |           76 |          155 |          156 |          154 |          157 |          155 |          157 |          157 |
sim_inst_rate                          766288.0000 |  766288.0000 |  766288.0000 |  766288.0000 |  766288.0000 |  766288.0000 |  766288.0000 | 1669319.0000 | 1669319.0000 | 1669319.0000 | 1669319.0000 | 1669319.0000 | 1669319.0000 | 1669319.0000 | 3536772.0000 | 3536772.0000 | 3536772.0000 | 3536772.0000 | 3536772.0000 | 3536772.0000 | 3536772.0000 | 7640436.0000 | 7640436.0000 | 7640436.0000 | 7640436.0000 | 7640436.0000 | 7640436.0000 | 7640436.0000 |16092602.0000 | 8046301.0000 | 8046301.0000 | 8046301.0000 | 8046301.0000 |16092602.0000 | 8046301.0000 | 8617799.2500 | 8617799.2500 | 8617799.2500 |11490399.0000 | 8617799.2500 | 8617799.2500 | 8617799.2500 | 9026711.8750 | 9026711.8750 | 9026711.8750 | 9026711.8750 | 9026711.8750 | 9026711.8750 | 9026711.8750 | 9034832.0588 | 9034832.0588 | 9034832.0588 | 9034832.0588 | 9034832.0588 | 9034832.0588 | 9034832.0588 | 9151379.3429 | 9151379.3429 | 9151379.3429 | 8897174.3611 | 9151379.3429 | 8897174.3611 | 8897174.3611 | 9030465.7067 | 9030465.7067 | 9152499.0270 | 8911643.7895 | 9030465.7067 | 9030465.7067 | 8911643.7895 | 9077366.1806 | 9019177.9359 | 9136310.1169 | 8961730.9427 | 9077366.1806 | 8961730.9427 | 8961730.9427 |
sim_num_branches                            109381 |       109381 |       109381 |       109381 |       109381 |       109381 |       109381 |       235407 |       235407 |       235407 |       235407 |       235407 |       235407 |       235407 |       500581 |       500581 |       500581 |       500581 |       500581 |       500581 |       500581 |      1069909 |      1069909 |      1069909 |      1069909 |      1069909 |      1069909 |      1069909 |      2261742 |      2261742 |      2261742 |      2261742 |      2261742 |      2261742 |      2261742 |      4801409 |      4801409 |      4801409 |      4801409 |      4801409 |      4801409 |      4801409 |     10093786 |     10093786 |     10093786 |     10093786 |     10093786 |     10093786 |     10093786 |     21300085 |     21300085 |     21300085 |     21300085 |     21300085 |     21300085 |     21300085 |     44566337 |     44566337 |     44566337 |     44566337 |     44566337 |     44566337 |     44566337 |     93588244 |     93588244 |     93588244 |     93588244 |     93588244 |     93588244 |     93588244 |    195038732 |    195038732 |    195038732 |    195038732 |    195038732 |    195038732 |    195038732 |
sim_IPB                                     7.0057 |       7.0057 |       7.0057 |       7.0057 |       7.0057 |       7.0057 |       7.0057 |       7.0912 |       7.0912 |       7.0912 |       7.0912 |       7.0912 |       7.0912 |       7.0912 |       7.0653 |       7.0653 |       7.0653 |       7.0653 |       7.0653 |       7.0653 |       7.0653 |       7.1412 |       7.1412 |       7.1412 |       7.1412 |       7.1412 |       7.1412 |       7.1412 |       7.1151 |       7.1151 |       7.1151 |       7.1151 |       7.1151 |       7.1151 |       7.1151 |       7.1794 |       7.1794 |       7.1794 |       7.1794 |       7.1794 |       7.1794 |       7.1794 |       7.1543 |       7.1543 |       7.1543 |       7.1543 |       7.1543 |       7.1543 |       7.1543 |       7.2109 |       7.2109 |       7.2109 |       7.2109 |       7.2109 |       7.2109 |       7.2109 |       7.1870 |       7.1870 |       7.1870 |       7.1870 |       7.1870 |       7.1870 |       7.1870 |       7.2369 |       7.2369 |       7.2369 |       7.2369 |       7.2369 |       7.2369 |       7.2369 |       7.2139 |       7.2139 |       7.2139 |       7.2139 |       7.2139 |       7.2139 |       7.2139 |
bpred_bimod.lookups                         109381 |       109381 |       109381 |xxxxxxxxxxxxx |xxxxxxxxxxxxx |xxxxxxxxxxxxx |xxxxxxxxxxxxx |       235407 |       235407 |       235407 |xxxxxxxxxxxxx |xxxxxxxxxxxxx |xxxxxxxxxxxxx |xxxxxxxxxxxxx |       500581 |       500581 |       500581 |xxxxxxxxxxxxx |xxxxxxxxxxxxx |xxxxxxxxxxxxx |xxxxxxxxxxxxx |      1069909 |      1069909 |      1069909 |xxxxxxxxxxxxx |xxxxxxxxxxxxx |xxxxxxxxxxxxx |xxxxxxxxxxxxx |      2261742 |      2261742 |      2261742 |xxxxxxxxxxxxx |xxxxxxxxxxxxx |xxxxxxxxxxxxx |xxxxxxxxxxxxx |      4801409 |      4801409 |      4801409 |xxxxxxxxxxxxx |xxxxxxxxxxxxx |xxxxxxxxxxxxx |xxxxxxxxxxxxx |     10093786 |     10093786 |     10093786 |xxxxxxxxxxxxx |xxxxxxxxxxxxx |xxxxxxxxxxxxx |xxxxxxxxxxxxx |     21300085 |     21300085 |     21300085 |xxxxxxxxxxxxx |xxxxxxxxxxxxx |xxxxxxxxxxxxx |xxxxxxxxxxxxx |     44566337 |     44566337 |     44566337 |xxxxxxxxxxxxx |xxxxxxxxxxxxx |xxxxxxxxxxxxx |xxxxxxxxxxxxx |     93588244 |     93588244 |     93588244 |xxxxxxxxxxxxx |xxxxxxxxxxxxx |xxxxxxxxxxxxx |xxxxxxxxxxxxx |    195038732 |    195038732 |    195038732 |
bpred_bimod.updates                         109381 |       109381 |       109381 |xxxxxxxxxxxxx |xxxxxxxxxxxxx |xxxxxxxxxxxxx |xxxxxxxxxxxxx |       235407 |       235407 |       235407 |xxxxxxxxxxxxx |xxxxxxxxxxxxx |xxxxxxxxxxxxx |xxxxxxxxxxxxx |       500581 |       500581 |       500581 |xxxxxxxxxxxxx |xxxxxxxxxxxxx |xxxxxxxxxxxxx |xxxxxxxxxxxxx |      1069909 |      1069909 |      1069909 |xxxxxxxxxxxxx |xxxxxxxxxxxxx |xxxxxxxxxxxxx |xxxxxxxxxxxxx |      2261742 |      2261742 |      2261742 |xxxxxxxxxxxxx |xxxxxxxxxxxxx |xxxxxxxxxxxxx |xxxxxxxxxxxxx |      4801409 |      4801409 |      4801409 |xxxxxxxxxxxxx |xxxxxxxxxxxxx |xxxxxxxxxxxxx |xxxxxxxxxxxxx |     10093786 |     10093786 |     10093786 |xxxxxxxxxxxxx |xxxxxxxxxxxxx |xxxxxxxxxxxxx |xxxxxxxxxxxxx |     21300085 |     21300085 |     21300085 |xxxxxxxxxxxxx |xxxxxxxxxxxxx |xxxxxxxxxxxxx |xxxxxxxxxxxxx |     44566337 |     44566337 |     44566337 |xxxxxxxxxxxxx |xxxxxxxxxxxxx |xxxxxxxxxxxxx |xxxxxxxxxxxxx |     93588244 |     93588244 |     93588244 |xxxxxxxxxxxxx |xxxxxxxxxxxxx |xxxxxxxxxxxxx |xxxxxxxxxxxxx |    195038732 |    195038732 |    195038732 |
bpred_bimod.addr_hits                        83300 |        83302 |        83307 |xxxxxxxxxxxxx |xxxxxxxxxxxxx |xxxxxxxxxxxxx |xxxxxxxxxxxxx |       179441 |       179444 |       179449 |xxxxxxxxxxxxx |xxxxxxxxxxxxx |xxxxxxxxxxxxx |xxxxxxxxxxxxx |       380147 |       380149 |       380155 |xxxxxxxxxxxxx |xxxxxxxxxxxxx |xxxxxxxxxxxxx |xxxxxxxxxxxxx |       813039 |       813042 |       813048 |xxxxxxxxxxxxx |xxxxxxxxxxxxx |xxxxxxxxxxxxx |xxxxxxxxxxxxx |      1715562 |      1715564 |      1715571 |xxxxxxxxxxxxx |xxxxxxxxxxxxx |xxxxxxxxxxxxx |xxxxxxxxxxxxx |      3644244 |      3644247 |      3644253 |xxxxxxxxxxxxx |xxxxxxxxxxxxx |xxxxxxxxxxxxx |xxxxxxxxxxxxx |      7648539 |      7648541 |      7648548 |xxxxxxxxxxxxx |xxxxxxxxxxxxx |xxxxxxxxxxxxx |xxxxxxxxxxxxx |     16143947 |     16143950 |     16143956 |xxxxxxxxxxxxx |xxxxxxxxxxxxx |xxxxxxxxxxxxx |xxxxxxxxxxxxx |     33730352 |     33730355 |     33730361 |xxxxxxxxxxxxx |xxxxxxxxxxxxx |xxxxxxxxxxxxx |xxxxxxxxxxxxx |     70867289 |     70867292 |     70867296 |xxxxxxxxxxxxx |xxxxxxxxxxxxx |xxxxxxxxxxxxx |xxxxxxxxxxxxx |    147507120 |    147507123 |    147507128 |
bpred_bimod.dir_hits                         83399 |        83401 |        83405 |xxxxxxxxxxxxx |xxxxxxxxxxxxx |xxxxxxxxxxxxx |xxxxxxxxxxxxx |       179550 |       179552 |       179557 |xxxxxxxxxxxxx |xxxxxxxxxxxxx |xxxxxxxxxxxxx |xxxxxxxxxxxxx |       380252 |       380253 |       380257 |xxxxxxxxxxxxx |xxxxxxxxxxxxx |xxxxxxxxxxxxx |xxxxxxxxxxxxx |       813147 |       813149 |       813155 |xxxxxxxxxxxxx |xxxxxxxxxxxxx |xxxxxxxxxxxxx |xxxxxxxxxxxxx |      1715664 |      1715665 |      1715672 |xxxxxxxxxxxxx |xxxxxxxxxxxxx |xxxxxxxxxxxxx |xxxxxxxxxxxxx |      3644353 |      3644355 |      3644361 |xxxxxxxxxxxxx |xxxxxxxxxxxxx |xxxxxxxxxxxxx |xxxxxxxxxxxxx |      7648642 |      7648643 |      7648650 |xxxxxxxxxxxxx |xxxxxxxxxxxxx |xxxxxxxxxxxxx |xxxxxxxxxxxxx |     16144056 |     16144058 |     16144064 |xxxxxxxxxxxxx |xxxxxxxxxxxxx |xxxxxxxxxxxxx |xxxxxxxxxxxxx |     33730466 |     33730468 |     33730474 |xxxxxxxxxxxxx |xxxxxxxxxxxxx |xxxxxxxxxxxxx |xxxxxxxxxxxxx |     70867404 |     70867406 |     70867410 |xxxxxxxxxxxxx |xxxxxxxxxxxxx |xxxxxxxxxxxxx |xxxxxxxxxxxxx |    147507234 |    147507236 |    147507241 |
bpred_bimod.misses                           25982 |        25980 |        25976 |xxxxxxxxxxxxx |xxxxxxxxxxxxx |xxxxxxxxxxxxx |xxxxxxxxxxxxx |        55857 |        55855 |        55850 |xxxxxxxxxxxxx |xxxxxxxxxxxxx |xxxxxxxxxxxxx |xxxxxxxxxxxxx |       120329 |       120328 |       120324 |xxxxxxxxxxxxx |xxxxxxxxxxxxx |xxxxxxxxxxxxx |xxxxxxxxxxxxx |       256762 |       256760 |       256754 |xxxxxxxxxxxxx |xxxxxxxxxxxxx |xxxxxxxxxxxxx |xxxxxxxxxxxxx |       546078 |       546077 |       546070 |xxxxxxxxxxxxx |xxxxxxxxxxxxx |xxxxxxxxxxxxx |xxxxxxxxxxxxx |      1157056 |      1157054 |      1157048 |xxxxxxxxxxxxx |xxxxxxxxxxxxx |xxxxxxxxxxxxx |xxxxxxxxxxxxx |      2445144 |      2445143 |      2445136 |xxxxxxxxxxxxx |xxxxxxxxxxxxx |xxxxxxxxxxxxx |xxxxxxxxxxxxx |      5156029 |      5156027 |      5156021 |xxxxxxxxxxxxx |xxxxxxxxxxxxx |xxxxxxxxxxxxx |xxxxxxxxxxxxx |     10835871 |     10835869 |     10835863 |xxxxxxxxxxxxx |xxxxxxxxxxxxx |xxxxxxxxxxxxx |xxxxxxxxxxxxx |     22720840 |     22720838 |     22720834 |xxxxxxxxxxxxx |xxxxxxxxxxxxx |xxxxxxxxxxxxx |xxxxxxxxxxxxx |     47531498 |     47531496 |     47531491 |
bpred_bimod.jr_hits                             61 |           61 |           61 |xxxxxxxxxxxxx |xxxxxxxxxxxxx |xxxxxxxxxxxxx |xxxxxxxxxxxxx |           71 |           71 |           71 |xxxxxxxxxxxxx |xxxxxxxxxxxxx |xxxxxxxxxxxxx |xxxxxxxxxxxxx |           69 |           69 |           69 |xxxxxxxxxxxxx |xxxxxxxxxxxxx |xxxxxxxxxxxxx |xxxxxxxxxxxxx |           71 |           71 |           71 |xxxxxxxxxxxxx |xxxxxxxxxxxxx |xxxxxxxxxxxxx |xxxxxxxxxxxxx |           69 |           69 |           69 |xxxxxxxxxxxxx |xxxxxxxxxxxxx |xxxxxxxxxxxxx |xxxxxxxxxxxxx |           71 |           71 |           71 |xxxxxxxxxxxxx |xxxxxxxxxxxxx |xxxxxxxxxxxxx |xxxxxxxxxxxxx |           69 |           69 |           69 |xxxxxxxxxxxxx |xxxxxxxxxxxxx |xxxxxxxxxxxxx |xxxxxxxxxxxxx |           71 |           71 |           71 |xxxxxxxxxxxxx |xxxxxxxxxxxxx |xxxxxxxxxxxxx |xxxxxxxxxxxxx |           72 |           72 |           72 |xxxxxxxxxxxxx |xxxxxxxxxxxxx |xxxxxxxxxxxxx |xxxxxxxxxxxxx |           75 |           75 |           75 |xxxxxxxxxxxxx |xxxxxxxxxxxxx |xxxxxxxxxxxxx |xxxxxxxxxxxxx |           72 |           72 |           72 |
bpred_bimod.jr_seen                             61 |           61 |           61 |xxxxxxxxxxxxx |xxxxxxxxxxxxx |xxxxxxxxxxxxx |xxxxxxxxxxxxx |           73 |           73 |           73 |xxxxxxxxxxxxx |xxxxxxxxxxxxx |xxxxxxxxxxxxx |xxxxxxxxxxxxx |           70 |           70 |           70 |xxxxxxxxxxxxx |xxxxxxxxxxxxx |xxxxxxxxxxxxx |xxxxxxxxxxxxx |           73 |           73 |           73 |xxxxxxxxxxxxx |xxxxxxxxxxxxx |xxxxxxxxxxxxx |xxxxxxxxxxxxx |           70 |           70 |           70 |xxxxxxxxxxxxx |xxxxxxxxxxxxx |xxxxxxxxxxxxx |xxxxxxxxxxxxx |           73 |           73 |           73 |xxxxxxxxxxxxx |xxxxxxxxxxxxx |xxxxxxxxxxxxx |xxxxxxxxxxxxx |           70 |           70 |           70 |xxxxxxxxxxxxx |xxxxxxxxxxxxx |xxxxxxxxxxxxx |xxxxxxxxxxxxx |           73 |           73 |           73 |xxxxxxxxxxxxx |xxxxxxxxxxxxx |xxxxxxxxxxxxx |xxxxxxxxxxxxx |           73 |           73 |           73 |xxxxxxxxxxxxx |xxxxxxxxxxxxx |xxxxxxxxxxxxx |xxxxxxxxxxxxx |           76 |           76 |           76 |xxxxxxxxxxxxx |xxxxxxxxxxxxx |xxxxxxxxxxxxx |xxxxxxxxxxxxx |           73 |           73 |           73 |
bpred_bimod.jr_non_ras_hits.PP                   0 |            0 |            0 |xxxxxxxxxxxxx |xxxxxxxxxxxxx |xxxxxxxxxxxxx |xxxxxxxxxxxxx |            0 |            0 |            0 |xxxxxxxxxxxxx |xxxxxxxxxxxxx |xxxxxxxxxxxxx |xxxxxxxxxxxxx |            0 |            0 |            0 |xxxxxxxxxxxxx |xxxxxxxxxxxxx |xxxxxxxxxxxxx |xxxxxxxxxxxxx |            0 |            0 |            0 |xxxxxxxxxxxxx |xxxxxxxxxxxxx |xxxxxxxxxxxxx |xxxxxxxxxxxxx |            0 |            0 |            0 |xxxxxxxxxxxxx |xxxxxxxxxxxxx |xxxxxxxxxxxxx |xxxxxxxxxxxxx |            0 |            0 |            0 |xxxxxxxxxxxxx |xxxxxxxxxxxxx |xxxxxxxxxxxxx |xxxxxxxxxxxxx |            0 |            0 |            0 |xxxxxxxxxxxxx |xxxxxxxxxxxxx |xxxxxxxxxxxxx |xxxxxxxxxxxxx |            0 |            0 |            0 |xxxxxxxxxxxxx |xxxxxxxxxxxxx |xxxxxxxxxxxxx |xxxxxxxxxxxxx |            0 |            0 |            0 |xxxxxxxxxxxxx |xxxxxxxxxxxxx |xxxxxxxxxxxxx |xxxxxxxxxxxxx |            1 |            1 |            1 |xxxxxxxxxxxxx |xxxxxxxxxxxxx |xxxxxxxxxxxxx |xxxxxxxxxxxxx |            0 |            0 |            0 |
bpred_bimod.jr_non_ras_seen.PP                   0 |            0 |            0 |xxxxxxxxxxxxx |xxxxxxxxxxxxx |xxxxxxxxxxxxx |xxxxxxxxxxxxx |            1 |            1 |            1 |xxxxxxxxxxxxx |xxxxxxxxxxxxx |xxxxxxxxxxxxx |xxxxxxxxxxxxx |            0 |            0 |            0 |xxxxxxxxxxxxx |xxxxxxxxxxxxx |xxxxxxxxxxxxx |xxxxxxxxxxxxx |            1 |            1 |            1 |xxxxxxxxxxxxx |xxxxxxxxxxxxx |xxxxxxxxxxxxx |xxxxxxxxxxxxx |            0 |            0 |            0 |xxxxxxxxxxxxx |xxxxxxxxxxxxx |xxxxxxxxxxxxx |xxxxxxxxxxxxx |            1 |            1 |            1 |xxxxxxxxxxxxx |xxxxxxxxxxxxx |xxxxxxxxxxxxx |xxxxxxxxxxxxx |            0 |            0 |            0 |xxxxxxxxxxxxx |xxxxxxxxxxxxx |xxxxxxxxxxxxx |xxxxxxxxxxxxx |            1 |            1 |            1 |xxxxxxxxxxxxx |xxxxxxxxxxxxx |xxxxxxxxxxxxx |xxxxxxxxxxxxx |            1 |            1 |            1 |xxxxxxxxxxxxx |xxxxxxxxxxxxx |xxxxxxxxxxxxx |xxxxxxxxxxxxx |            2 |            2 |            2 |xxxxxxxxxxxxx |xxxxxxxxxxxxx |xxxxxxxxxxxxx |xxxxxxxxxxxxx |            1 |            1 |            1 |
bpred_bimod.bpred_addr_rate                 0.7616 |       0.7616 |       0.7616 |xxxxxxxxxxxxx |xxxxxxxxxxxxx |xxxxxxxxxxxxx |xxxxxxxxxxxxx |       0.7623 |       0.7623 |       0.7623 |xxxxxxxxxxxxx |xxxxxxxxxxxxx |xxxxxxxxxxxxx |xxxxxxxxxxxxx |       0.7594 |       0.7594 |       0.7594 |xxxxxxxxxxxxx |xxxxxxxxxxxxx |xxxxxxxxxxxxx |xxxxxxxxxxxxx |       0.7599 |       0.7599 |       0.7599 |xxxxxxxxxxxxx |xxxxxxxxxxxxx |xxxxxxxxxxxxx |xxxxxxxxxxxxx |       0.7585 |       0.7585 |       0.7585 |xxxxxxxxxxxxx |xxxxxxxxxxxxx |xxxxxxxxxxxxx |xxxxxxxxxxxxx |       0.7590 |       0.7590 |       0.7590 |xxxxxxxxxxxxx |xxxxxxxxxxxxx |xxxxxxxxxxxxx |xxxxxxxxxxxxx |       0.7577 |       0.7577 |       0.7577 |xxxxxxxxxxxxx |xxxxxxxxxxxxx |xxxxxxxxxxxxx |xxxxxxxxxxxxx |       0.7579 |       0.7579 |       0.7579 |xxxxxxxxxxxxx |xxxxxxxxxxxxx |xxxxxxxxxxxxx |xxxxxxxxxxxxx |       0.7569 |       0.7569 |       0.7569 |xxxxxxxxxxxxx |xxxxxxxxxxxxx |xxxxxxxxxxxxx |xxxxxxxxxxxxx |       0.7572 |       0.7572 |       0.7572 |xxxxxxxxxxxxx |xxxxxxxxxxxxx |xxxxxxxxxxxxx |xxxxxxxxxxxxx |       0.7563 |       0.7563 |       0.7563 |
bpred_bimod.bpred_dir_rate                  0.7625 |       0.7625 |       0.7625 |xxxxxxxxxxxxx |xxxxxxxxxxxxx |xxxxxxxxxxxxx |xxxxxxxxxxxxx |       0.7627 |       0.7627 |       0.7628 |xxxxxxxxxxxxx |xxxxxxxxxxxxx |xxxxxxxxxxxxx |xxxxxxxxxxxxx |       0.7596 |       0.7596 |       0.7596 |xxxxxxxxxxxxx |xxxxxxxxxxxxx |xxxxxxxxxxxxx |xxxxxxxxxxxxx |       0.7600 |       0.7600 |       0.7600 |xxxxxxxxxxxxx |xxxxxxxxxxxxx |xxxxxxxxxxxxx |xxxxxxxxxxxxx |       0.7586 |       0.7586 |       0.7586 |xxxxxxxxxxxxx |xxxxxxxxxxxxx |xxxxxxxxxxxxx |xxxxxxxxxxxxx |       0.7590 |       0.7590 |       0.7590 |xxxxxxxxxxxxx |xxxxxxxxxxxxx |xxxxxxxxxxxxx |xxxxxxxxxxxxx |       0.7578 |       0.7578 |       0.7578 |xxxxxxxxxxxxx |xxxxxxxxxxxxx |xxxxxxxxxxxxx |xxxxxxxxxxxxx |       0.7579 |       0.7579 |       0.7579 |xxxxxxxxxxxxx |xxxxxxxxxxxxx |xxxxxxxxxxxxx |xxxxxxxxxxxxx |       0.7569 |       0.7569 |       0.7569 |xxxxxxxxxxxxx |xxxxxxxxxxxxx |xxxxxxxxxxxxx |xxxxxxxxxxxxx |       0.7572 |       0.7572 |       0.7572 |xxxxxxxxxxxxx |xxxxxxxxxxxxx |xxxxxxxxxxxxx |xxxxxxxxxxxxx |       0.7563 |       0.7563 |       0.7563 |
bpred_bimod.bpred_jr_rate                   1.0000 |       1.0000 |       1.0000 |xxxxxxxxxxxxx |xxxxxxxxxxxxx |xxxxxxxxxxxxx |xxxxxxxxxxxxx |       0.9726 |       0.9726 |       0.9726 |xxxxxxxxxxxxx |xxxxxxxxxxxxx |xxxxxxxxxxxxx |xxxxxxxxxxxxx |       0.9857 |       0.9857 |       0.9857 |xxxxxxxxxxxxx |xxxxxxxxxxxxx |xxxxxxxxxxxxx |xxxxxxxxxxxxx |       0.9726 |       0.9726 |       0.9726 |xxxxxxxxxxxxx |xxxxxxxxxxxxx |xxxxxxxxxxxxx |xxxxxxxxxxxxx |       0.9857 |       0.9857 |       0.9857 |xxxxxxxxxxxxx |xxxxxxxxxxxxx |xxxxxxxxxxxxx |xxxxxxxxxxxxx |       0.9726 |       0.9726 |       0.9726 |xxxxxxxxxxxxx |xxxxxxxxxxxxx |xxxxxxxxxxxxx |xxxxxxxxxxxxx |       0.9857 |       0.9857 |       0.9857 |xxxxxxxxxxxxx |xxxxxxxxxxxxx |xxxxxxxxxxxxx |xxxxxxxxxxxxx |       0.9726 |       0.9726 |       0.9726 |xxxxxxxxxxxxx |xxxxxxxxxxxxx |xxxxxxxxxxxxx |xxxxxxxxxxxxx |       0.9863 |       0.9863 |       0.9863 |xxxxxxxxxxxxx |xxxxxxxxxxxxx |xxxxxxxxxxxxx |xxxxxxxxxxxxx |       0.9868 |       0.9868 |       0.9868 |xxxxxxxxxxxxx |xxxxxxxxxxxxx |xxxxxxxxxxxxx |xxxxxxxxxxxxx |       0.9863 |       0.9863 |       0.9863 |
bpred_bimod.bpred_jr_non_ras_rate.PP       <error: |      <error: |      <error: |xxxxxxxxxxxxx |xxxxxxxxxxxxx |xxxxxxxxxxxxx |xxxxxxxxxxxxx |       0.0000 |       0.0000 |       0.0000 |xxxxxxxxxxxxx |xxxxxxxxxxxxx |xxxxxxxxxxxxx |xxxxxxxxxxxxx |      <error: |      <error: |      <error: |xxxxxxxxxxxxx |xxxxxxxxxxxxx |xxxxxxxxxxxxx |xxxxxxxxxxxxx |       0.0000 |       0.0000 |       0.0000 |xxxxxxxxxxxxx |xxxxxxxxxxxxx |xxxxxxxxxxxxx |xxxxxxxxxxxxx |      <error: |      <error: |      <error: |xxxxxxxxxxxxx |xxxxxxxxxxxxx |xxxxxxxxxxxxx |xxxxxxxxxxxxx |       0.0000 |       0.0000 |       0.0000 |xxxxxxxxxxxxx |xxxxxxxxxxxxx |xxxxxxxxxxxxx |xxxxxxxxxxxxx |      <error: |      <error: |      <error: |xxxxxxxxxxxxx |xxxxxxxxxxxxx |xxxxxxxxxxxxx |xxxxxxxxxxxxx |       0.0000 |       0.0000 |       0.0000 |xxxxxxxxxxxxx |xxxxxxxxxxxxx |xxxxxxxxxxxxx |xxxxxxxxxxxxx |       0.0000 |       0.0000 |       0.0000 |xxxxxxxxxxxxx |xxxxxxxxxxxxx |xxxxxxxxxxxxx |xxxxxxxxxxxxx |       0.5000 |       0.5000 |       0.5000 |xxxxxxxxxxxxx |xxxxxxxxxxxxx |xxxxxxxxxxxxx |xxxxxxxxxxxxx |       0.0000 |       0.0000 |       0.0000 |
bpred_bimod.retstack_pushes                     63 |           63 |           63 |xxxxxxxxxxxxx |xxxxxxxxxxxxx |xxxxxxxxxxxxx |xxxxxxxxxxxxx |           74 |           74 |           74 |xxxxxxxxxxxxx |xxxxxxxxxxxxx |xxxxxxxxxxxxx |xxxxxxxxxxxxx |           72 |           72 |           72 |xxxxxxxxxxxxx |xxxxxxxxxxxxx |xxxxxxxxxxxxx |xxxxxxxxxxxxx |           74 |           74 |           74 |xxxxxxxxxxxxx |xxxxxxxxxxxxx |xxxxxxxxxxxxx |xxxxxxxxxxxxx |           72 |           72 |           72 |xxxxxxxxxxxxx |xxxxxxxxxxxxx |xxxxxxxxxxxxx |xxxxxxxxxxxxx |           74 |           74 |           74 |xxxxxxxxxxxxx |xxxxxxxxxxxxx |xxxxxxxxxxxxx |xxxxxxxxxxxxx |           72 |           72 |           72 |xxxxxxxxxxxxx |xxxxxxxxxxxxx |xxxxxxxxxxxxx |xxxxxxxxxxxxx |           74 |           74 |           74 |xxxxxxxxxxxxx |xxxxxxxxxxxxx |xxxxxxxxxxxxx |xxxxxxxxxxxxx |           74 |           74 |           74 |xxxxxxxxxxxxx |xxxxxxxxxxxxx |xxxxxxxxxxxxx |xxxxxxxxxxxxx |           76 |           76 |           76 |xxxxxxxxxxxxx |xxxxxxxxxxxxx |xxxxxxxxxxxxx |xxxxxxxxxxxxx |           74 |           74 |           74 |
bpred_bimod.retstack_pops                       61 |           61 |           61 |xxxxxxxxxxxxx |xxxxxxxxxxxxx |xxxxxxxxxxxxx |xxxxxxxxxxxxx |           72 |           72 |           72 |xxxxxxxxxxxxx |xxxxxxxxxxxxx |xxxxxxxxxxxxx |xxxxxxxxxxxxx |           70 |           70 |           70 |xxxxxxxxxxxxx |xxxxxxxxxxxxx |xxxxxxxxxxxxx |xxxxxxxxxxxxx |           72 |           72 |           72 |xxxxxxxxxxxxx |xxxxxxxxxxxxx |xxxxxxxxxxxxx |xxxxxxxxxxxxx |           70 |           70 |           70 |xxxxxxxxxxxxx |xxxxxxxxxxxxx |xxxxxxxxxxxxx |xxxxxxxxxxxxx |           72 |           72 |           72 |xxxxxxxxxxxxx |xxxxxxxxxxxxx |xxxxxxxxxxxxx |xxxxxxxxxxxxx |           70 |           70 |           70 |xxxxxxxxxxxxx |xxxxxxxxxxxxx |xxxxxxxxxxxxx |xxxxxxxxxxxxx |           72 |           72 |           72 |xxxxxxxxxxxxx |xxxxxxxxxxxxx |xxxxxxxxxxxxx |xxxxxxxxxxxxx |           72 |           72 |           72 |xxxxxxxxxxxxx |xxxxxxxxxxxxx |xxxxxxxxxxxxx |xxxxxxxxxxxxx |           74 |           74 |           74 |xxxxxxxxxxxxx |xxxxxxxxxxxxx |xxxxxxxxxxxxx |xxxxxxxxxxxxx |           72 |           72 |           72 |
bpred_bimod.used_ras.PP                         61 |           61 |           61 |xxxxxxxxxxxxx |xxxxxxxxxxxxx |xxxxxxxxxxxxx |xxxxxxxxxxxxx |           72 |           72 |           72 |xxxxxxxxxxxxx |xxxxxxxxxxxxx |xxxxxxxxxxxxx |xxxxxxxxxxxxx |           70 |           70 |           70 |xxxxxxxxxxxxx |xxxxxxxxxxxxx |xxxxxxxxxxxxx |xxxxxxxxxxxxx |           72 |           72 |           72 |xxxxxxxxxxxxx |xxxxxxxxxxxxx |xxxxxxxxxxxxx |xxxxxxxxxxxxx |           70 |           70 |           70 |xxxxxxxxxxxxx |xxxxxxxxxxxxx |xxxxxxxxxxxxx |xxxxxxxxxxxxx |           72 |           72 |           72 |xxxxxxxxxxxxx |xxxxxxxxxxxxx |xxxxxxxxxxxxx |xxxxxxxxxxxxx |           70 |           70 |           70 |xxxxxxxxxxxxx |xxxxxxxxxxxxx |xxxxxxxxxxxxx |xxxxxxxxxxxxx |           72 |           72 |           72 |xxxxxxxxxxxxx |xxxxxxxxxxxxx |xxxxxxxxxxxxx |xxxxxxxxxxxxx |           72 |           72 |           72 |xxxxxxxxxxxxx |xxxxxxxxxxxxx |xxxxxxxxxxxxx |xxxxxxxxxxxxx |           74 |           74 |           74 |xxxxxxxxxxxxx |xxxxxxxxxxxxx |xxxxxxxxxxxxx |xxxxxxxxxxxxx |           72 |           72 |           72 |
bpred_bimod.ras_hits.PP                         61 |           61 |           61 |xxxxxxxxxxxxx |xxxxxxxxxxxxx |xxxxxxxxxxxxx |xxxxxxxxxxxxx |           71 |           71 |           71 |xxxxxxxxxxxxx |xxxxxxxxxxxxx |xxxxxxxxxxxxx |xxxxxxxxxxxxx |           69 |           69 |           69 |xxxxxxxxxxxxx |xxxxxxxxxxxxx |xxxxxxxxxxxxx |xxxxxxxxxxxxx |           71 |           71 |           71 |xxxxxxxxxxxxx |xxxxxxxxxxxxx |xxxxxxxxxxxxx |xxxxxxxxxxxxx |           69 |           69 |           69 |xxxxxxxxxxxxx |xxxxxxxxxxxxx |xxxxxxxxxxxxx |xxxxxxxxxxxxx |           71 |           71 |           71 |xxxxxxxxxxxxx |xxxxxxxxxxxxx |xxxxxxxxxxxxx |xxxxxxxxxxxxx |           69 |           69 |           69 |xxxxxxxxxxxxx |xxxxxxxxxxxxx |xxxxxxxxxxxxx |xxxxxxxxxxxxx |           71 |           71 |           71 |xxxxxxxxxxxxx |xxxxxxxxxxxxx |xxxxxxxxxxxxx |xxxxxxxxxxxxx |           72 |           72 |           72 |xxxxxxxxxxxxx |xxxxxxxxxxxxx |xxxxxxxxxxxxx |xxxxxxxxxxxxx |           74 |           74 |           74 |xxxxxxxxxxxxx |xxxxxxxxxxxxx |xxxxxxxxxxxxx |xxxxxxxxxxxxx |           72 |           72 |           72 |
bpred_bimod.ras_rate.PP                     1.0000 |       1.0000 |       1.0000 |xxxxxxxxxxxxx |xxxxxxxxxxxxx |xxxxxxxxxxxxx |xxxxxxxxxxxxx |       0.9861 |       0.9861 |       0.9861 |xxxxxxxxxxxxx |xxxxxxxxxxxxx |xxxxxxxxxxxxx |xxxxxxxxxxxxx |       0.9857 |       0.9857 |       0.9857 |xxxxxxxxxxxxx |xxxxxxxxxxxxx |xxxxxxxxxxxxx |xxxxxxxxxxxxx |       0.9861 |       0.9861 |       0.9861 |xxxxxxxxxxxxx |xxxxxxxxxxxxx |xxxxxxxxxxxxx |xxxxxxxxxxxxx |       0.9857 |       0.9857 |       0.9857 |xxxxxxxxxxxxx |xxxxxxxxxxxxx |xxxxxxxxxxxxx |xxxxxxxxxxxxx |       0.9861 |       0.9861 |       0.9861 |xxxxxxxxxxxxx |xxxxxxxxxxxxx |xxxxxxxxxxxxx |xxxxxxxxxxxxx |       0.9857 |       0.9857 |       0.9857 |xxxxxxxxxxxxx |xxxxxxxxxxxxx |xxxxxxxxxxxxx |xxxxxxxxxxxxx |       0.9861 |       0.9861 |       0.9861 |xxxxxxxxxxxxx |xxxxxxxxxxxxx |xxxxxxxxxxxxx |xxxxxxxxxxxxx |       1.0000 |       1.0000 |       1.0000 |xxxxxxxxxxxxx |xxxxxxxxxxxxx |xxxxxxxxxxxxx |xxxxxxxxxxxxx |       1.0000 |       1.0000 |       1.0000 |xxxxxxxxxxxxx |xxxxxxxxxxxxx |xxxxxxxxxxxxx |xxxxxxxxxxxxx |       1.0000 |       1.0000 |       1.0000 |
bpred_2lev.lookups                   xxxxxxxxxxxxx |xxxxxxxxxxxxx |xxxxxxxxxxxxx |       109381 |       109381 |       109381 |       109381 |xxxxxxxxxxxxx |xxxxxxxxxxxxx |xxxxxxxxxxxxx |       235407 |       235407 |       235407 |       235407 |xxxxxxxxxxxxx |xxxxxxxxxxxxx |xxxxxxxxxxxxx |       500581 |       500581 |       500581 |       500581 |xxxxxxxxxxxxx |xxxxxxxxxxxxx |xxxxxxxxxxxxx |      1069909 |      1069909 |      1069909 |      1069909 |xxxxxxxxxxxxx |xxxxxxxxxxxxx |xxxxxxxxxxxxx |      2261742 |      2261742 |      2261742 |      2261742 |xxxxxxxxxxxxx |xxxxxxxxxxxxx |xxxxxxxxxxxxx |      4801409 |      4801409 |      4801409 |      4801409 |xxxxxxxxxxxxx |xxxxxxxxxxxxx |xxxxxxxxxxxxx |     10093786 |     10093786 |     10093786 |     10093786 |xxxxxxxxxxxxx |xxxxxxxxxxxxx |xxxxxxxxxxxxx |     21300085 |     21300085 |     21300085 |     21300085 |xxxxxxxxxxxxx |xxxxxxxxxxxxx |xxxxxxxxxxxxx |     44566337 |     44566337 |     44566337 |     44566337 |xxxxxxxxxxxxx |xxxxxxxxxxxxx |xxxxxxxxxxxxx |     93588244 |     93588244 |     93588244 |     93588244 |xxxxxxxxxxxxx |xxxxxxxxxxxxx |xxxxxxxxxxxxx |    195038732 |    195038732 |    195038732 |    195038732 |
[...]
bpred_2lev.bpred_jr_non_ras_rate.PP  xxxxxxxxxxxxx |xxxxxxxxxxxxx |xxxxxxxxxxxxx |      <error: |      <error: |      <error: |      <error: |xxxxxxxxxxxxx |xxxxxxxxxxxxx |xxxxxxxxxxxxx |       0.0000 |       0.0000 |       0.0000 |       0.0000 |xxxxxxxxxxxxx |xxxxxxxxxxxxx |xxxxxxxxxxxxx |      <error: |      <error: |      <error: |      <error: |xxxxxxxxxxxxx |xxxxxxxxxxxxx |xxxxxxxxxxxxx |       0.0000 |       0.0000 |       0.0000 |       0.0000 |xxxxxxxxxxxxx |xxxxxxxxxxxxx |xxxxxxxxxxxxx |      <error: |      <error: |      <error: |      <error: |xxxxxxxxxxxxx |xxxxxxxxxxxxx |xxxxxxxxxxxxx |       0.0000 |       0.0000 |       0.0000 |       0.0000 |xxxxxxxxxxxxx |xxxxxxxxxxxxx |xxxxxxxxxxxxx |      <error: |      <error: |      <error: |      <error: |xxxxxxxxxxxxx |xxxxxxxxxxxxx |xxxxxxxxxxxxx |       0.0000 |       0.0000 |       0.0000 |       0.0000 |xxxxxxxxxxxxx |xxxxxxxxxxxxx |xxxxxxxxxxxxx |       0.0000 |       0.0000 |       0.0000 |       0.0000 |xxxxxxxxxxxxx |xxxxxxxxxxxxx |xxxxxxxxxxxxx |       0.5000 |       0.5000 |       0.5000 |       0.5000 |xxxxxxxxxxxxx |xxxxxxxxxxxxx |xxxxxxxxxxxxx |       0.0000 |       0.0000 |       0.0000 |       0.0000 |
bpred_2lev.retstack_pushes           xxxxxxxxxxxxx |xxxxxxxxxxxxx |xxxxxxxxxxxxx |           63 |           63 |           63 |           63 |xxxxxxxxxxxxx |xxxxxxxxxxxxx |xxxxxxxxxxxxx |           74 |           74 |           74 |           74 |xxxxxxxxxxxxx |xxxxxxxxxxxxx |xxxxxxxxxxxxx |           72 |           72 |           72 |           72 |xxxxxxxxxxxxx |xxxxxxxxxxxxx |xxxxxxxxxxxxx |           74 |           74 |           74 |           74 |xxxxxxxxxxxxx |xxxxxxxxxxxxx |xxxxxxxxxxxxx |           72 |           72 |           72 |           72 |xxxxxxxxxxxxx |xxxxxxxxxxxxx |xxxxxxxxxxxxx |           74 |           74 |           74 |           74 |xxxxxxxxxxxxx |xxxxxxxxxxxxx |xxxxxxxxxxxxx |           72 |           72 |           72 |           72 |xxxxxxxxxxxxx |xxxxxxxxxxxxx |xxxxxxxxxxxxx |           74 |           74 |           74 |           74 |xxxxxxxxxxxxx |xxxxxxxxxxxxx |xxxxxxxxxxxxx |           74 |           74 |           74 |           74 |xxxxxxxxxxxxx |xxxxxxxxxxxxx |xxxxxxxxxxxxx |           76 |           76 |           76 |           76 |xxxxxxxxxxxxx |xxxxxxxxxxxxx |xxxxxxxxxxxxx |           74 |           74 |           74 |           74 |
bpred_2lev.retstack_pops             xxxxxxxxxxxxx |xxxxxxxxxxxxx |xxxxxxxxxxxxx |           61 |           61 |           61 |           61 |xxxxxxxxxxxxx |xxxxxxxxxxxxx |xxxxxxxxxxxxx |           72 |           72 |           72 |           72 |xxxxxxxxxxxxx |xxxxxxxxxxxxx |xxxxxxxxxxxxx |           70 |           70 |           70 |           70 |xxxxxxxxxxxxx |xxxxxxxxxxxxx |xxxxxxxxxxxxx |           72 |           72 |           72 |           72 |xxxxxxxxxxxxx |xxxxxxxxxxxxx |xxxxxxxxxxxxx |           70 |           70 |           70 |           70 |xxxxxxxxxxxxx |xxxxxxxxxxxxx |xxxxxxxxxxxxx |           72 |           72 |           72 |           72 |xxxxxxxxxxxxx |xxxxxxxxxxxxx |xxxxxxxxxxxxx |           70 |           70 |           70 |           70 |xxxxxxxxxxxxx |xxxxxxxxxxxxx |xxxxxxxxxxxxx |           72 |           72 |           72 |           72 |xxxxxxxxxxxxx |xxxxxxxxxxxxx |xxxxxxxxxxxxx |           72 |           72 |           72 |           72 |xxxxxxxxxxxxx |xxxxxxxxxxxxx |xxxxxxxxxxxxx |           74 |           74 |           74 |           74 |xxxxxxxxxxxxx |xxxxxxxxxxxxx |xxxxxxxxxxxxx |           72 |           72 |           72 |           72 |
bpred_2lev.used_ras.PP               xxxxxxxxxxxxx |xxxxxxxxxxxxx |xxxxxxxxxxxxx |           61 |           61 |           61 |           61 |xxxxxxxxxxxxx |xxxxxxxxxxxxx |xxxxxxxxxxxxx |           72 |           72 |           72 |           72 |xxxxxxxxxxxxx |xxxxxxxxxxxxx |xxxxxxxxxxxxx |           70 |           70 |           70 |           70 |xxxxxxxxxxxxx |xxxxxxxxxxxxx |xxxxxxxxxxxxx |           72 |           72 |           72 |           72 |xxxxxxxxxxxxx |xxxxxxxxxxxxx |xxxxxxxxxxxxx |           70 |           70 |           70 |           70 |xxxxxxxxxxxxx |xxxxxxxxxxxxx |xxxxxxxxxxxxx |           72 |           72 |           72 |           72 |xxxxxxxxxxxxx |xxxxxxxxxxxxx |xxxxxxxxxxxxx |           70 |           70 |           70 |           70 |xxxxxxxxxxxxx |xxxxxxxxxxxxx |xxxxxxxxxxxxx |           72 |           72 |           72 |           72 |xxxxxxxxxxxxx |xxxxxxxxxxxxx |xxxxxxxxxxxxx |           72 |           72 |           72 |           72 |xxxxxxxxxxxxx |xxxxxxxxxxxxx |xxxxxxxxxxxxx |           74 |           74 |           74 |           74 |xxxxxxxxxxxxx |xxxxxxxxxxxxx |xxxxxxxxxxxxx |           72 |           72 |           72 |           72 |
bpred_2lev.ras_hits.PP               xxxxxxxxxxxxx |xxxxxxxxxxxxx |xxxxxxxxxxxxx |           61 |           61 |           61 |           61 |xxxxxxxxxxxxx |xxxxxxxxxxxxx |xxxxxxxxxxxxx |           71 |           71 |           71 |           71 |xxxxxxxxxxxxx |xxxxxxxxxxxxx |xxxxxxxxxxxxx |           69 |           69 |           69 |           69 |xxxxxxxxxxxxx |xxxxxxxxxxxxx |xxxxxxxxxxxxx |           71 |           71 |           71 |           71 |xxxxxxxxxxxxx |xxxxxxxxxxxxx |xxxxxxxxxxxxx |           69 |           69 |           69 |           69 |xxxxxxxxxxxxx |xxxxxxxxxxxxx |xxxxxxxxxxxxx |           71 |           71 |           71 |           71 |xxxxxxxxxxxxx |xxxxxxxxxxxxx |xxxxxxxxxxxxx |           69 |           69 |           69 |           69 |xxxxxxxxxxxxx |xxxxxxxxxxxxx |xxxxxxxxxxxxx |           71 |           71 |           71 |           71 |xxxxxxxxxxxxx |xxxxxxxxxxxxx |xxxxxxxxxxxxx |           72 |           72 |           72 |           72 |xxxxxxxxxxxxx |xxxxxxxxxxxxx |xxxxxxxxxxxxx |           74 |           74 |           74 |           74 |xxxxxxxxxxxxx |xxxxxxxxxxxxx |xxxxxxxxxxxxx |           72 |           72 |           72 |           72 |
bpred_2lev.ras_rate.PP               xxxxxxxxxxxxx |xxxxxxxxxxxxx |xxxxxxxxxxxxx |       1.0000 |       1.0000 |       1.0000 |       1.0000 |xxxxxxxxxxxxx |xxxxxxxxxxxxx |xxxxxxxxxxxxx |       0.9861 |       0.9861 |       0.9861 |       0.9861 |xxxxxxxxxxxxx |xxxxxxxxxxxxx |xxxxxxxxxxxxx |       0.9857 |       0.9857 |       0.9857 |       0.9857 |xxxxxxxxxxxxx |xxxxxxxxxxxxx |xxxxxxxxxxxxx |       0.9861 |       0.9861 |       0.9861 |       0.9861 |xxxxxxxxxxxxx |xxxxxxxxxxxxx |xxxxxxxxxxxxx |       0.9857 |       0.9857 |       0.9857 |       0.9857 |xxxxxxxxxxxxx |xxxxxxxxxxxxx |xxxxxxxxxxxxx |       0.9861 |       0.9861 |       0.9861 |       0.9861 |xxxxxxxxxxxxx |xxxxxxxxxxxxx |xxxxxxxxxxxxx |       0.9857 |       0.9857 |       0.9857 |       0.9857 |xxxxxxxxxxxxx |xxxxxxxxxxxxx |xxxxxxxxxxxxx |       0.9861 |       0.9861 |       0.9861 |       0.9861 |xxxxxxxxxxxxx |xxxxxxxxxxxxx |xxxxxxxxxxxxx |       1.0000 |       1.0000 |       1.0000 |       1.0000 |xxxxxxxxxxxxx |xxxxxxxxxxxxx |xxxxxxxxxxxxx |       1.0000 |       1.0000 |       1.0000 |       1.0000 |xxxxxxxxxxxxx |xxxxxxxxxxxxx |xxxxxxxxxxxxx |       1.0000 |       1.0000 |       1.0000 |       1.0000 |

Command list: 
	sslittle-na-sstrix-gcc -Wall -O3 -funroll-loops -finline-functions  -DRANDOM_SIZE=4096 -DOFFSET=3 -DSORT=algorithm_s sorts/algorithm_s146824553.c simpleMain.c -o algorithm_s644318623
	sim-cache -cache:dl1 dl1:256:32:1:l -cache:dl2 dl2:131072:32:1:l -cache:il1 il1:256:32:1:l -cache:il2 dl2 algorithm_s644318623
	sim-cache -cache:dl1 dl1:256:32:1:l -cache:dl2 dl2:65536:32:1:l -cache:il1 il1:256:32:1:l -cache:il2 dl2 algorithm_s644318623
	sim-cache -cache:dl1 dl1:1:32:256:l -cache:dl2 dl2:1:32:131072:l -cache:il1 il1:1:32:256:l -cache:il2 dl2 algorithm_s644318623
	sim-cache -cache:dl1 dl1:1:32:256:l -cache:dl2 dl2:1:32:65536:l -cache:il1 il1:1:32:256:l -cache:il2 dl2 algorithm_s644318623
	sim-bpred -bpred bimod -bpred:bimod 512 algorithm_s644318623
	sim-bpred -bpred bimod -bpred:bimod 1024 algorithm_s644318623
	sim-bpred -bpred bimod -bpred:bimod 2048 algorithm_s644318623
	sim-bpred -bpred 2lev -bpred:2lev 1 512 10 1 algorithm_s644318623
	sim-bpred -bpred 2lev -bpred:2lev 1 1024 10 1 algorithm_s644318623
	sim-bpred -bpred 2lev -bpred:2lev 1 2048 10 1 algorithm_s644318623
	sim-bpred -bpred 2lev -bpred:2lev 1 4096 10 1 algorithm_s644318623
	sslittle-na-sstrix-gcc -Wall -O3 -funroll-loops -finline-functions  -DRANDOM_SIZE=8192 -DOFFSET=3 -DSORT=algorithm_s sorts/algorithm_s146824553.c simpleMain.c -o algorithm_s644318623
	sim-cache -cache:dl1 dl1:256:32:1:l -cache:dl2 dl2:131072:32:1:l -cache:il1 il1:256:32:1:l -cache:il2 dl2 algorithm_s644318623
	sim-cache -cache:dl1 dl1:256:32:1:l -cache:dl2 dl2:65536:32:1:l -cache:il1 il1:256:32:1:l -cache:il2 dl2 algorithm_s644318623
	sim-cache -cache:dl1 dl1:1:32:256:l -cache:dl2 dl2:1:32:131072:l -cache:il1 il1:1:32:256:l -cache:il2 dl2 algorithm_s644318623
	sim-cache -cache:dl1 dl1:1:32:256:l -cache:dl2 dl2:1:32:65536:l -cache:il1 il1:1:32:256:l -cache:il2 dl2 algorithm_s644318623
	sim-bpred -bpred bimod -bpred:bimod 512 algorithm_s644318623
	sim-bpred -bpred bimod -bpred:bimod 1024 algorithm_s644318623
	sim-bpred -bpred bimod -bpred:bimod 2048 algorithm_s644318623
	sim-bpred -bpred 2lev -bpred:2lev 1 512 10 1 algorithm_s644318623
	sim-bpred -bpred 2lev -bpred:2lev 1 1024 10 1 algorithm_s644318623
	sim-bpred -bpred 2lev -bpred:2lev 1 2048 10 1 algorithm_s644318623
	sim-bpred -bpred 2lev -bpred:2lev 1 4096 10 1 algorithm_s644318623
	sslittle-na-sstrix-gcc -Wall -O3 -funroll-loops -finline-functions  -DRANDOM_SIZE=16384 -DOFFSET=3 -DSORT=algorithm_s sorts/algorithm_s146824553.c simpleMain.c -o algorithm_s644318623
	sim-cache -cache:dl1 dl1:256:32:1:l -cache:dl2 dl2:131072:32:1:l -cache:il1 il1:256:32:1:l -cache:il2 dl2 algorithm_s644318623
	sim-cache -cache:dl1 dl1:256:32:1:l -cache:dl2 dl2:65536:32:1:l -cache:il1 il1:256:32:1:l -cache:il2 dl2 algorithm_s644318623
	sim-cache -cache:dl1 dl1:1:32:256:l -cache:dl2 dl2:1:32:131072:l -cache:il1 il1:1:32:256:l -cache:il2 dl2 algorithm_s644318623
	sim-cache -cache:dl1 dl1:1:32:256:l -cache:dl2 dl2:1:32:65536:l -cache:il1 il1:1:32:256:l -cache:il2 dl2 algorithm_s644318623
	sim-bpred -bpred bimod -bpred:bimod 512 algorithm_s644318623
	sim-bpred -bpred bimod -bpred:bimod 1024 algorithm_s644318623
	sim-bpred -bpred bimod -bpred:bimod 2048 algorithm_s644318623
	sim-bpred -bpred 2lev -bpred:2lev 1 512 10 1 algorithm_s644318623
	sim-bpred -bpred 2lev -bpred:2lev 1 1024 10 1 algorithm_s644318623
	sim-bpred -bpred 2lev -bpred:2lev 1 2048 10 1 algorithm_s644318623
	sim-bpred -bpred 2lev -bpred:2lev 1 4096 10 1 algorithm_s644318623
	sslittle-na-sstrix-gcc -Wall -O3 -funroll-loops -finline-functions  -DRANDOM_SIZE=32768 -DOFFSET=3 -DSORT=algorithm_s sorts/algorithm_s146824553.c simpleMain.c -o algorithm_s644318623
	sim-cache -cache:dl1 dl1:256:32:1:l -cache:dl2 dl2:131072:32:1:l -cache:il1 il1:256:32:1:l -cache:il2 dl2 algorithm_s644318623
	sim-cache -cache:dl1 dl1:256:32:1:l -cache:dl2 dl2:65536:32:1:l -cache:il1 il1:256:32:1:l -cache:il2 dl2 algorithm_s644318623
	sim-cache -cache:dl1 dl1:1:32:256:l -cache:dl2 dl2:1:32:131072:l -cache:il1 il1:1:32:256:l -cache:il2 dl2 algorithm_s644318623
	sim-cache -cache:dl1 dl1:1:32:256:l -cache:dl2 dl2:1:32:65536:l -cache:il1 il1:1:32:256:l -cache:il2 dl2 algorithm_s644318623
	sim-bpred -bpred bimod -bpred:bimod 512 algorithm_s644318623
	sim-bpred -bpred bimod -bpred:bimod 1024 algorithm_s644318623
	sim-bpred -bpred bimod -bpred:bimod 2048 algorithm_s644318623
	sim-bpred -bpred 2lev -bpred:2lev 1 512 10 1 algorithm_s644318623
	sim-bpred -bpred 2lev -bpred:2lev 1 1024 10 1 algorithm_s644318623
	sim-bpred -bpred 2lev -bpred:2lev 1 2048 10 1 algorithm_s644318623
	sim-bpred -bpred 2lev -bpred:2lev 1 4096 10 1 algorithm_s644318623
	sslittle-na-sstrix-gcc -Wall -O3 -funroll-loops -finline-functions  -DRANDOM_SIZE=65536 -DOFFSET=3 -DSORT=algorithm_s sorts/algorithm_s146824553.c simpleMain.c -o algorithm_s644318623
	sim-cache -cache:dl1 dl1:256:32:1:l -cache:dl2 dl2:131072:32:1:l -cache:il1 il1:256:32:1:l -cache:il2 dl2 algorithm_s644318623
	sim-cache -cache:dl1 dl1:256:32:1:l -cache:dl2 dl2:65536:32:1:l -cache:il1 il1:256:32:1:l -cache:il2 dl2 algorithm_s644318623
	sim-cache -cache:dl1 dl1:1:32:256:l -cache:dl2 dl2:1:32:131072:l -cache:il1 il1:1:32:256:l -cache:il2 dl2 algorithm_s644318623
	sim-cache -cache:dl1 dl1:1:32:256:l -cache:dl2 dl2:1:32:65536:l -cache:il1 il1:1:32:256:l -cache:il2 dl2 algorithm_s644318623
	sim-bpred -bpred bimod -bpred:bimod 512 algorithm_s644318623
	sim-bpred -bpred bimod -bpred:bimod 1024 algorithm_s644318623
	sim-bpred -bpred bimod -bpred:bimod 2048 algorithm_s644318623
	sim-bpred -bpred 2lev -bpred:2lev 1 512 10 1 algorithm_s644318623
	sim-bpred -bpred 2lev -bpred:2lev 1 1024 10 1 algorithm_s644318623
	sim-bpred -bpred 2lev -bpred:2lev 1 2048 10 1 algorithm_s644318623
	sim-bpred -bpred 2lev -bpred:2lev 1 4096 10 1 algorithm_s644318623
	sslittle-na-sstrix-gcc -Wall -O3 -funroll-loops -finline-functions  -DRANDOM_SIZE=131072 -DOFFSET=3 -DSORT=algorithm_s sorts/algorithm_s146824553.c simpleMain.c -o algorithm_s644318623
	sim-cache -cache:dl1 dl1:256:32:1:l -cache:dl2 dl2:131072:32:1:l -cache:il1 il1:256:32:1:l -cache:il2 dl2 algorithm_s644318623
	sim-cache -cache:dl1 dl1:256:32:1:l -cache:dl2 dl2:65536:32:1:l -cache:il1 il1:256:32:1:l -cache:il2 dl2 algorithm_s644318623
	sim-cache -cache:dl1 dl1:1:32:256:l -cache:dl2 dl2:1:32:131072:l -cache:il1 il1:1:32:256:l -cache:il2 dl2 algorithm_s644318623
	sim-cache -cache:dl1 dl1:1:32:256:l -cache:dl2 dl2:1:32:65536:l -cache:il1 il1:1:32:256:l -cache:il2 dl2 algorithm_s644318623
	sim-bpred -bpred bimod -bpred:bimod 512 algorithm_s644318623
	sim-bpred -bpred bimod -bpred:bimod 1024 algorithm_s644318623
	sim-bpred -bpred bimod -bpred:bimod 2048 algorithm_s644318623
	sim-bpred -bpred 2lev -bpred:2lev 1 512 10 1 algorithm_s644318623
	sim-bpred -bpred 2lev -bpred:2lev 1 1024 10 1 algorithm_s644318623
	sim-bpred -bpred 2lev -bpred:2lev 1 2048 10 1 algorithm_s644318623
	sim-bpred -bpred 2lev -bpred:2lev 1 4096 10 1 algorithm_s644318623
	sslittle-na-sstrix-gcc -Wall -O3 -funroll-loops -finline-functions  -DRANDOM_SIZE=262144 -DOFFSET=3 -DSORT=algorithm_s sorts/algorithm_s146824553.c simpleMain.c -o algorithm_s644318623
	sim-cache -cache:dl1 dl1:256:32:1:l -cache:dl2 dl2:131072:32:1:l -cache:il1 il1:256:32:1:l -cache:il2 dl2 algorithm_s644318623
	sim-cache -cache:dl1 dl1:256:32:1:l -cache:dl2 dl2:65536:32:1:l -cache:il1 il1:256:32:1:l -cache:il2 dl2 algorithm_s644318623
	sim-cache -cache:dl1 dl1:1:32:256:l -cache:dl2 dl2:1:32:131072:l -cache:il1 il1:1:32:256:l -cache:il2 dl2 algorithm_s644318623
	sim-cache -cache:dl1 dl1:1:32:256:l -cache:dl2 dl2:1:32:65536:l -cache:il1 il1:1:32:256:l -cache:il2 dl2 algorithm_s644318623
	sim-bpred -bpred bimod -bpred:bimod 512 algorithm_s644318623
	sim-bpred -bpred bimod -bpred:bimod 1024 algorithm_s644318623
	sim-bpred -bpred bimod -bpred:bimod 2048 algorithm_s644318623
	sim-bpred -bpred 2lev -bpred:2lev 1 512 10 1 algorithm_s644318623
	sim-bpred -bpred 2lev -bpred:2lev 1 1024 10 1 algorithm_s644318623
	sim-bpred -bpred 2lev -bpred:2lev 1 2048 10 1 algorithm_s644318623
	sim-bpred -bpred 2lev -bpred:2lev 1 4096 10 1 algorithm_s644318623
	sslittle-na-sstrix-gcc -Wall -O3 -funroll-loops -finline-functions  -DRANDOM_SIZE=524288 -DOFFSET=3 -DSORT=algorithm_s sorts/algorithm_s146824553.c simpleMain.c -o algorithm_s644318623
	sim-cache -cache:dl1 dl1:256:32:1:l -cache:dl2 dl2:131072:32:1:l -cache:il1 il1:256:32:1:l -cache:il2 dl2 algorithm_s644318623
	sim-cache -cache:dl1 dl1:256:32:1:l -cache:dl2 dl2:65536:32:1:l -cache:il1 il1:256:32:1:l -cache:il2 dl2 algorithm_s644318623
	sim-cache -cache:dl1 dl1:1:32:256:l -cache:dl2 dl2:1:32:131072:l -cache:il1 il1:1:32:256:l -cache:il2 dl2 algorithm_s644318623
	sim-cache -cache:dl1 dl1:1:32:256:l -cache:dl2 dl2:1:32:65536:l -cache:il1 il1:1:32:256:l -cache:il2 dl2 algorithm_s644318623
	sim-bpred -bpred bimod -bpred:bimod 512 algorithm_s644318623
	sim-bpred -bpred bimod -bpred:bimod 1024 algorithm_s644318623
	sim-bpred -bpred bimod -bpred:bimod 2048 algorithm_s644318623
	sim-bpred -bpred 2lev -bpred:2lev 1 512 10 1 algorithm_s644318623
	sim-bpred -bpred 2lev -bpred:2lev 1 1024 10 1 algorithm_s644318623
	sim-bpred -bpred 2lev -bpred:2lev 1 2048 10 1 algorithm_s644318623
	sim-bpred -bpred 2lev -bpred:2lev 1 4096 10 1 algorithm_s644318623
	sslittle-na-sstrix-gcc -Wall -O3 -funroll-loops -finline-functions  -DRANDOM_SIZE=1048576 -DOFFSET=3 -DSORT=algorithm_s sorts/algorithm_s146824553.c simpleMain.c -o algorithm_s644318623
	sim-cache -cache:dl1 dl1:256:32:1:l -cache:dl2 dl2:131072:32:1:l -cache:il1 il1:256:32:1:l -cache:il2 dl2 algorithm_s644318623
	sim-cache -cache:dl1 dl1:256:32:1:l -cache:dl2 dl2:65536:32:1:l -cache:il1 il1:256:32:1:l -cache:il2 dl2 algorithm_s644318623
	sim-cache -cache:dl1 dl1:1:32:256:l -cache:dl2 dl2:1:32:131072:l -cache:il1 il1:1:32:256:l -cache:il2 dl2 algorithm_s644318623
	sim-cache -cache:dl1 dl1:1:32:256:l -cache:dl2 dl2:1:32:65536:l -cache:il1 il1:1:32:256:l -cache:il2 dl2 algorithm_s644318623
	sim-bpred -bpred bimod -bpred:bimod 512 algorithm_s644318623
	sim-bpred -bpred bimod -bpred:bimod 1024 algorithm_s644318623
	sim-bpred -bpred bimod -bpred:bimod 2048 algorithm_s644318623
	sim-bpred -bpred 2lev -bpred:2lev 1 512 10 1 algorithm_s644318623
	sim-bpred -bpred 2lev -bpred:2lev 1 1024 10 1 algorithm_s644318623
	sim-bpred -bpred 2lev -bpred:2lev 1 2048 10 1 algorithm_s644318623
	sim-bpred -bpred 2lev -bpred:2lev 1 4096 10 1 algorithm_s644318623
	sslittle-na-sstrix-gcc -Wall -O3 -funroll-loops -finline-functions  -DRANDOM_SIZE=2097152 -DOFFSET=3 -DSORT=algorithm_s sorts/algorithm_s146824553.c simpleMain.c -o algorithm_s644318623
	sim-cache -cache:dl1 dl1:256:32:1:l -cache:dl2 dl2:131072:32:1:l -cache:il1 il1:256:32:1:l -cache:il2 dl2 algorithm_s644318623
	sim-cache -cache:dl1 dl1:256:32:1:l -cache:dl2 dl2:65536:32:1:l -cache:il1 il1:256:32:1:l -cache:il2 dl2 algorithm_s644318623
	sim-cache -cache:dl1 dl1:1:32:256:l -cache:dl2 dl2:1:32:131072:l -cache:il1 il1:1:32:256:l -cache:il2 dl2 algorithm_s644318623
	sim-cache -cache:dl1 dl1:1:32:256:l -cache:dl2 dl2:1:32:65536:l -cache:il1 il1:1:32:256:l -cache:il2 dl2 algorithm_s644318623
	sim-bpred -bpred bimod -bpred:bimod 512 algorithm_s644318623
	sim-bpred -bpred bimod -bpred:bimod 1024 algorithm_s644318623
	sim-bpred -bpred bimod -bpred:bimod 2048 algorithm_s644318623
	sim-bpred -bpred 2lev -bpred:2lev 1 512 10 1 algorithm_s644318623
	sim-bpred -bpred 2lev -bpred:2lev 1 1024 10 1 algorithm_s644318623
	sim-bpred -bpred 2lev -bpred:2lev 1 2048 10 1 algorithm_s644318623
	sim-bpred -bpred 2lev -bpred:2lev 1 4096 10 1 algorithm_s644318623
	sslittle-na-sstrix-gcc -Wall -O3 -funroll-loops -finline-functions  -DRANDOM_SIZE=4194304 -DOFFSET=3 -DSORT=algorithm_s sorts/algorithm_s146824553.c simpleMain.c -o algorithm_s644318623
	sim-cache -cache:dl1 dl1:256:32:1:l -cache:dl2 dl2:131072:32:1:l -cache:il1 il1:256:32:1:l -cache:il2 dl2 algorithm_s644318623
	sim-cache -cache:dl1 dl1:256:32:1:l -cache:dl2 dl2:65536:32:1:l -cache:il1 il1:256:32:1:l -cache:il2 dl2 algorithm_s644318623
	sim-cache -cache:dl1 dl1:1:32:256:l -cache:dl2 dl2:1:32:131072:l -cache:il1 il1:1:32:256:l -cache:il2 dl2 algorithm_s644318623
	sim-cache -cache:dl1 dl1:1:32:256:l -cache:dl2 dl2:1:32:65536:l -cache:il1 il1:1:32:256:l -cache:il2 dl2 algorithm_s644318623
	sim-bpred -bpred bimod -bpred:bimod 512 algorithm_s644318623
	sim-bpred -bpred bimod -bpred:bimod 1024 algorithm_s644318623
	sim-bpred -bpred bimod -bpred:bimod 2048 algorithm_s644318623
	sim-bpred -bpred 2lev -bpred:2lev 1 512 10 1 algorithm_s644318623
	sim-bpred -bpred 2lev -bpred:2lev 1 1024 10 1 algorithm_s644318623
	sim-bpred -bpred 2lev -bpred:2lev 1 2048 10 1 algorithm_s644318623
	sim-bpred -bpred 2lev -bpred:2lev 1 4096 10 1 algorithm_s644318623
