Tue Jun 14 15:31:44 2005
Run as: "./simple -c random.org0 -o 0 algorithm_n"
-------------------------------------------------------------------------------------------------
sim-cache                                     4096 |         4096 |         4096 |         4096 |         8192 |         8192 |         8192 |         8192 |        16384 |        16384 |        16384 |        16384 |        32768 |        32768 |        32768 |        32768 |        65536 |        65536 |        65536 |        65536 |       131072 |       131072 |       131072 |       131072 |       262144 |       262144 |       262144 |       262144 |       524288 |       524288 |       524288 |       524288 |      1048576 |      1048576 |      1048576 |      1048576 |      2097152 |      2097152 |      2097152 |      2097152 |      4194304 |      4194304 |      4194304 |      4194304 |
-cache:dl1 dl1:256:32:1:l -cache:dl2 dl2:131072:32:1:l -cache:il1 il1:256:32:1:l -cache:il2 dl2
-cache:dl1 dl1:256:32:1:l -cache:dl2 dl2:65536:32:1:l -cache:il1 il1:256:32:1:l -cache:il2 dl2
-cache:dl1 dl1:1:32:256:l -cache:dl2 dl2:1:32:131072:l -cache:il1 il1:1:32:256:l -cache:il2 dl2
-cache:dl1 dl1:1:32:256:l -cache:dl2 dl2:1:32:65536:l -cache:il1 il1:1:32:256:l -cache:il2 dl2
-------------------------------------------------------------------------------------------------
sim_num_insn                                891954 |       891954 |       891954 |       891954 |      1916531 |      1916531 |      1916531 |      1916531 |      4186792 |      4186792 |      4186792 |      4186792 |      8923970 |      8923970 |      8923970 |      8923970 |     19282234 |     19282234 |     19282234 |     19282234 |     40784517 |     40784517 |     40784517 |     40784517 |     87330910 |     87330910 |     87330910 |     87330910 |    183569828 |    183569828 |    183569828 |    183569828 |    390205570 |    390205570 |    390205570 |    390205570 |    816058518 |    816058518 |    816058518 |    816058518 |   1724399520 |   1724399520 |   1724399520 |   1724399520 |
sim_num_refs                                234160 |       234160 |       234160 |       234160 |       489130 |       489130 |       489130 |       489130 |      1089200 |      1089200 |      1089200 |      1089200 |      2272845 |      2272845 |      2272845 |      2272845 |      5000528 |      5000528 |      5000528 |      5000528 |     10390335 |     10390335 |     10390335 |     10390335 |     22611904 |     22611904 |     22611904 |     22611904 |     46794041 |     46794041 |     46794041 |     46794041 |    100931648 |    100931648 |    100931648 |    100931648 |    208148740 |    208148740 |    208148740 |    208148740 |    445653084 |    445653084 |    445653084 |    445653084 |
sim_elapsed_time                                 1 |            1 |           10 |            5 |            1 |            1 |           15 |            8 |            1 |            1 |           26 |           14 |            3 |            2 |           48 |           24 |            6 |            5 |           89 |           44 |           11 |           11 |          163 |           77 |           23 |           23 |          282 |          110 |           49 |           49 |          393 |          139 |          104 |          105 |          458 |          202 |          217 |          219 |          585 |          330 |          461 |          462 |          861 |          605 |
sim_inst_rate                          891954.0000 |  891954.0000 |   89195.4000 |  178390.8000 | 1916531.0000 | 1916531.0000 |  127768.7333 |  239566.3750 | 4186792.0000 | 4186792.0000 |  161030.4615 |  299056.5714 | 2974656.6667 | 4461985.0000 |  185916.0417 |  371832.0833 | 3213705.6667 | 3856446.8000 |  216654.3146 |  438232.5909 | 3707683.3636 | 3707683.3636 |  250211.7607 |  529669.0519 | 3796996.0870 | 3796996.0870 |  309684.0780 |  793917.3636 | 3746323.0204 | 3746323.0204 |  467098.7990 | 1320646.2446 | 3751976.6346 | 3716243.5238 |  851977.2271 | 1931710.7426 | 3760638.3318 | 3726294.6027 | 1394971.8256 | 2472904.6000 | 3740562.9501 | 3732466.4935 | 2002786.8990 | 2850247.1405 |
il1.accesses                                891954 |       891954 |       891954 |       891954 |      1916531 |      1916531 |      1916531 |      1916531 |      4186792 |      4186792 |      4186792 |      4186792 |      8923970 |      8923970 |      8923970 |      8923970 |     19282234 |     19282234 |     19282234 |     19282234 |     40784517 |     40784517 |     40784517 |     40784517 |     87330910 |     87330910 |     87330910 |     87330910 |    183569828 |    183569828 |    183569828 |    183569828 |    390205570 |    390205570 |    390205570 |    390205570 |    816058518 |    816058518 |    816058518 |    816058518 |   1724399520 |   1724399520 |   1724399520 |   1724399520 |
il1.hits                                    891525 |       891525 |       891583 |       891583 |      1916093 |      1916093 |      1916190 |      1916190 |      4186324 |      4186324 |      4186432 |      4186432 |      8923532 |      8923532 |      8923628 |      8923628 |     19281776 |     19281776 |     19281872 |     19281872 |     40784080 |     40784080 |     40784176 |     40784176 |     87330453 |     87330453 |     87330549 |     87330549 |    183569391 |    183569391 |    183569487 |    183569487 |    390205100 |    390205100 |    390205171 |    390205171 |    816058056 |    816058056 |    816058123 |    816058123 |   1724399050 |   1724399050 |   1724399121 |   1724399121 |
il1.misses                                     429 |          429 |          371 |          371 |          438 |          438 |          341 |          341 |          468 |          468 |          360 |          360 |          438 |          438 |          342 |          342 |          458 |          458 |          362 |          362 |          437 |          437 |          341 |          341 |          457 |          457 |          361 |          361 |          437 |          437 |          341 |          341 |          470 |          470 |          399 |          399 |          462 |          462 |          395 |          395 |          470 |          470 |          399 |          399 |
il1.replacements                               223 |          223 |          115 |          115 |          253 |          253 |           85 |           85 |          267 |          267 |          104 |          104 |          253 |          253 |           86 |           86 |          257 |          257 |          106 |          106 |          252 |          252 |           85 |           85 |          256 |          256 |          105 |          105 |          252 |          252 |           85 |           85 |          251 |          251 |          143 |          143 |          243 |          243 |          139 |          139 |          251 |          251 |          143 |          143 |
il1.writebacks                                   0 |            0 |            0 |            0 |            0 |            0 |            0 |            0 |            0 |            0 |            0 |            0 |            0 |            0 |            0 |            0 |            0 |            0 |            0 |            0 |            0 |            0 |            0 |            0 |            0 |            0 |            0 |            0 |            0 |            0 |            0 |            0 |            0 |            0 |            0 |            0 |            0 |            0 |            0 |            0 |            0 |            0 |            0 |            0 |
il1.invalidations                                0 |            0 |            0 |            0 |            0 |            0 |            0 |            0 |            0 |            0 |            0 |            0 |            0 |            0 |            0 |            0 |            0 |            0 |            0 |            0 |            0 |            0 |            0 |            0 |            0 |            0 |            0 |            0 |            0 |            0 |            0 |            0 |            0 |            0 |            0 |            0 |            0 |            0 |            0 |            0 |            0 |            0 |            0 |            0 |
il1.miss_rate                               0.0005 |       0.0005 |       0.0004 |       0.0004 |       0.0002 |       0.0002 |       0.0002 |       0.0002 |       0.0001 |       0.0001 |       0.0001 |       0.0001 |       0.0000 |       0.0000 |       0.0000 |       0.0000 |       0.0000 |       0.0000 |       0.0000 |       0.0000 |       0.0000 |       0.0000 |       0.0000 |       0.0000 |       0.0000 |       0.0000 |       0.0000 |       0.0000 |       0.0000 |       0.0000 |       0.0000 |       0.0000 |       0.0000 |       0.0000 |       0.0000 |       0.0000 |       0.0000 |       0.0000 |       0.0000 |       0.0000 |       0.0000 |       0.0000 |       0.0000 |       0.0000 |
il1.repl_rate                               0.0003 |       0.0003 |       0.0001 |       0.0001 |       0.0001 |       0.0001 |       0.0000 |       0.0000 |       0.0001 |       0.0001 |       0.0000 |       0.0000 |       0.0000 |       0.0000 |       0.0000 |       0.0000 |       0.0000 |       0.0000 |       0.0000 |       0.0000 |       0.0000 |       0.0000 |       0.0000 |       0.0000 |       0.0000 |       0.0000 |       0.0000 |       0.0000 |       0.0000 |       0.0000 |       0.0000 |       0.0000 |       0.0000 |       0.0000 |       0.0000 |       0.0000 |       0.0000 |       0.0000 |       0.0000 |       0.0000 |       0.0000 |       0.0000 |       0.0000 |       0.0000 |
il1.wb_rate                                 0.0000 |       0.0000 |       0.0000 |       0.0000 |       0.0000 |       0.0000 |       0.0000 |       0.0000 |       0.0000 |       0.0000 |       0.0000 |       0.0000 |       0.0000 |       0.0000 |       0.0000 |       0.0000 |       0.0000 |       0.0000 |       0.0000 |       0.0000 |       0.0000 |       0.0000 |       0.0000 |       0.0000 |       0.0000 |       0.0000 |       0.0000 |       0.0000 |       0.0000 |       0.0000 |       0.0000 |       0.0000 |       0.0000 |       0.0000 |       0.0000 |       0.0000 |       0.0000 |       0.0000 |       0.0000 |       0.0000 |       0.0000 |       0.0000 |       0.0000 |       0.0000 |
il1.inv_rate                                0.0000 |       0.0000 |       0.0000 |       0.0000 |       0.0000 |       0.0000 |       0.0000 |       0.0000 |       0.0000 |       0.0000 |       0.0000 |       0.0000 |       0.0000 |       0.0000 |       0.0000 |       0.0000 |       0.0000 |       0.0000 |       0.0000 |       0.0000 |       0.0000 |       0.0000 |       0.0000 |       0.0000 |       0.0000 |       0.0000 |       0.0000 |       0.0000 |       0.0000 |       0.0000 |       0.0000 |       0.0000 |       0.0000 |       0.0000 |       0.0000 |       0.0000 |       0.0000 |       0.0000 |       0.0000 |       0.0000 |       0.0000 |       0.0000 |       0.0000 |       0.0000 |
dl1.accesses                                250618 |       250618 |       250618 |       250618 |       521972 |       521972 |       521972 |       521972 |      1154810 |      1154810 |      1154810 |      1154810 |      2403991 |      2403991 |      2403991 |      2403991 |      5262746 |      5262746 |      5262746 |      5262746 |     10914697 |     10914697 |     10914697 |     10914697 |     23660554 |     23660554 |     23660554 |     23660554 |     48891267 |     48891267 |     48891267 |     48891267 |    105126026 |    105126026 |    105126026 |    105126026 |    216537422 |    216537422 |    216537422 |    216537422 |    462430374 |    462430374 |    462430374 |    462430374 |
dl1.hits                                    236684 |       236684 |       237355 |       237355 |       494209 |       494209 |       495903 |       495903 |      1091331 |      1091331 |      1094931 |      1094931 |      2276105 |      2276105 |      2284695 |      2284695 |      4973745 |      4973745 |      4991840 |      4991840 |     10332835 |     10332835 |     10373355 |     10373355 |     22361902 |     22361902 |     22447263 |     22447263 |     46276350 |     46276350 |     46465128 |     46465128 |     99339969 |     99339969 |     99748764 |     99748764 |    204934465 |    204934465 |    205783717 |    205783717 |    436932174 |    436932174 |    438826633 |    438826633 |
dl1.misses                                   13934 |        13934 |        13263 |        13263 |        27763 |        27763 |        26069 |        26069 |        63479 |        63479 |        59879 |        59879 |       127886 |       127886 |       119296 |       119296 |       289001 |       289001 |       270906 |       270906 |       581862 |       581862 |       541342 |       541342 |      1298652 |      1298652 |      1213291 |      1213291 |      2614917 |      2614917 |      2426139 |      2426139 |      5786057 |      5786057 |      5377262 |      5377262 |     11602957 |     11602957 |     10753705 |     10753705 |     25498200 |     25498200 |     23603741 |     23603741 |
dl1.replacements                             13678 |        13678 |        13007 |        13007 |        27507 |        27507 |        25813 |        25813 |        63223 |        63223 |        59623 |        59623 |       127630 |       127630 |       119040 |       119040 |       288745 |       288745 |       270650 |       270650 |       581606 |       581606 |       541086 |       541086 |      1298396 |      1298396 |      1213035 |      1213035 |      2614661 |      2614661 |      2425883 |      2425883 |      5785801 |      5785801 |      5377006 |      5377006 |     11602701 |     11602701 |     10753449 |     10753449 |     25497944 |     25497944 |     23603485 |     23603485 |
dl1.writebacks                                7207 |         7207 |         6962 |         6962 |        14181 |        14181 |        13624 |        13624 |        32088 |        32088 |        31047 |        31047 |        64408 |        64408 |        61794 |        61794 |       144852 |       144852 |       139673 |       139673 |       290907 |       290907 |       279038 |       279038 |       647924 |       647924 |       623305 |       623305 |      1302479 |      1302479 |      1246331 |      1246331 |      2877984 |      2877984 |      2755273 |      2755273 |      5763094 |      5763094 |      5510278 |      5510278 |     12652360 |     12652360 |     12068855 |     12068855 |
dl1.invalidations                                0 |            0 |            0 |            0 |            0 |            0 |            0 |            0 |            0 |            0 |            0 |            0 |            0 |            0 |            0 |            0 |            0 |            0 |            0 |            0 |            0 |            0 |            0 |            0 |            0 |            0 |            0 |            0 |            0 |            0 |            0 |            0 |            0 |            0 |            0 |            0 |            0 |            0 |            0 |            0 |            0 |            0 |            0 |            0 |
dl1.miss_rate                               0.0556 |       0.0556 |       0.0529 |       0.0529 |       0.0532 |       0.0532 |       0.0499 |       0.0499 |       0.0550 |       0.0550 |       0.0519 |       0.0519 |       0.0532 |       0.0532 |       0.0496 |       0.0496 |       0.0549 |       0.0549 |       0.0515 |       0.0515 |       0.0533 |       0.0533 |       0.0496 |       0.0496 |       0.0549 |       0.0549 |       0.0513 |       0.0513 |       0.0535 |       0.0535 |       0.0496 |       0.0496 |       0.0550 |       0.0550 |       0.0512 |       0.0512 |       0.0536 |       0.0536 |       0.0497 |       0.0497 |       0.0551 |       0.0551 |       0.0510 |       0.0510 |
dl1.repl_rate                               0.0546 |       0.0546 |       0.0519 |       0.0519 |       0.0527 |       0.0527 |       0.0495 |       0.0495 |       0.0547 |       0.0547 |       0.0516 |       0.0516 |       0.0531 |       0.0531 |       0.0495 |       0.0495 |       0.0549 |       0.0549 |       0.0514 |       0.0514 |       0.0533 |       0.0533 |       0.0496 |       0.0496 |       0.0549 |       0.0549 |       0.0513 |       0.0513 |       0.0535 |       0.0535 |       0.0496 |       0.0496 |       0.0550 |       0.0550 |       0.0511 |       0.0511 |       0.0536 |       0.0536 |       0.0497 |       0.0497 |       0.0551 |       0.0551 |       0.0510 |       0.0510 |
dl1.wb_rate                                 0.0288 |       0.0288 |       0.0278 |       0.0278 |       0.0272 |       0.0272 |       0.0261 |       0.0261 |       0.0278 |       0.0278 |       0.0269 |       0.0269 |       0.0268 |       0.0268 |       0.0257 |       0.0257 |       0.0275 |       0.0275 |       0.0265 |       0.0265 |       0.0267 |       0.0267 |       0.0256 |       0.0256 |       0.0274 |       0.0274 |       0.0263 |       0.0263 |       0.0266 |       0.0266 |       0.0255 |       0.0255 |       0.0274 |       0.0274 |       0.0262 |       0.0262 |       0.0266 |       0.0266 |       0.0254 |       0.0254 |       0.0274 |       0.0274 |       0.0261 |       0.0261 |
dl1.inv_rate                                0.0000 |       0.0000 |       0.0000 |       0.0000 |       0.0000 |       0.0000 |       0.0000 |       0.0000 |       0.0000 |       0.0000 |       0.0000 |       0.0000 |       0.0000 |       0.0000 |       0.0000 |       0.0000 |       0.0000 |       0.0000 |       0.0000 |       0.0000 |       0.0000 |       0.0000 |       0.0000 |       0.0000 |       0.0000 |       0.0000 |       0.0000 |       0.0000 |       0.0000 |       0.0000 |       0.0000 |       0.0000 |       0.0000 |       0.0000 |       0.0000 |       0.0000 |       0.0000 |       0.0000 |       0.0000 |       0.0000 |       0.0000 |       0.0000 |       0.0000 |       0.0000 |
dl2.accesses                                 21570 |        21570 |        20596 |        20596 |        42382 |        42382 |        40034 |        40034 |        96035 |        96035 |        91286 |        91286 |       192732 |       192732 |       181432 |       181432 |       434311 |       434311 |       410941 |       410941 |       873206 |       873206 |       820721 |       820721 |      1947033 |      1947033 |      1836957 |      1836957 |      3917833 |      3917833 |      3672811 |      3672811 |      8664511 |      8664511 |      8132934 |      8132934 |     17366513 |     17366513 |     16264378 |     16264378 |     38151030 |     38151030 |     35672995 |     35672995 |
dl2.hits                                     19746 |        19746 |        18788 |        18788 |        39553 |        39553 |        37232 |        37232 |        91137 |        91137 |        86417 |        86417 |       183758 |       183758 |       172485 |       172485 |       417124 |       417124 |       393781 |       393781 |       839657 |       839657 |       787199 |       787199 |      1880694 |      1825335 |      1770646 |      1536465 |      3731124 |      1710315 |      3044025 |      1263957 |      3896255 |      3330194 |      2790681 |      2773380 |      6695797 |      6643026 |      5546294 |      5529936 |     14610968 |     14575164 |     12107942 |     12091563 |
dl2.misses                                    1824 |         1824 |         1808 |         1808 |         2829 |         2829 |         2802 |         2802 |         4898 |         4898 |         4869 |         4869 |         8974 |         8974 |         8947 |         8947 |        17187 |        17187 |        17160 |        17160 |        33549 |        33549 |        33522 |        33522 |        66339 |       121698 |        66311 |       300492 |       186709 |      2207518 |       628786 |      2408854 |      4768256 |      5334317 |      5342253 |      5359554 |     10670716 |     10723487 |     10718084 |     10734442 |     23540062 |     23575866 |     23565053 |     23581432 |
dl2.replacements                               197 |          197 |            0 |            0 |          209 |          209 |            0 |            0 |          239 |          239 |            0 |            0 |          231 |          231 |            0 |            0 |          241 |          241 |            0 |            0 |          231 |          231 |            0 |            0 |          242 |        57272 |            0 |       234956 |        56758 |      2141982 |       497714 |      2343318 |      4637184 |      5268781 |      5211181 |      5294018 |     10539644 |     10657951 |     10587012 |     10668906 |     23408990 |     23510330 |     23433981 |     23515896 |
dl2.writebacks                                 124 |          124 |            0 |            0 |          130 |          130 |            0 |            0 |          158 |          158 |            0 |            0 |          151 |          151 |            0 |            0 |          161 |          161 |            0 |            0 |          151 |          151 |            0 |            0 |          161 |        31874 |            0 |       234416 |        31346 |      1223459 |       496596 |      1212864 |      2625161 |      2690868 |      2688188 |      2720959 |      5423014 |      5467280 |      5441468 |      5474242 |     11936155 |     12002549 |     11996614 |     12029395 |
dl2.invalidations                                0 |            0 |            0 |            0 |            0 |            0 |            0 |            0 |            0 |            0 |            0 |            0 |            0 |            0 |            0 |            0 |            0 |            0 |            0 |            0 |            0 |            0 |            0 |            0 |            0 |            0 |            0 |            0 |            0 |            0 |            0 |            0 |            0 |            0 |            0 |            0 |            0 |            0 |            0 |            0 |            0 |            0 |            0 |            0 |
dl2.miss_rate                               0.0846 |       0.0846 |       0.0878 |       0.0878 |       0.0668 |       0.0668 |       0.0700 |       0.0700 |       0.0510 |       0.0510 |       0.0533 |       0.0533 |       0.0466 |       0.0466 |       0.0493 |       0.0493 |       0.0396 |       0.0396 |       0.0418 |       0.0418 |       0.0384 |       0.0384 |       0.0408 |       0.0408 |       0.0341 |       0.0625 |       0.0361 |       0.1636 |       0.0477 |       0.5635 |       0.1712 |       0.6559 |       0.5503 |       0.6157 |       0.6569 |       0.6590 |       0.6144 |       0.6175 |       0.6590 |       0.6600 |       0.6170 |       0.6180 |       0.6606 |       0.6610 |
dl2.repl_rate                               0.0091 |       0.0091 |       0.0000 |       0.0000 |       0.0049 |       0.0049 |       0.0000 |       0.0000 |       0.0025 |       0.0025 |       0.0000 |       0.0000 |       0.0012 |       0.0012 |       0.0000 |       0.0000 |       0.0006 |       0.0006 |       0.0000 |       0.0000 |       0.0003 |       0.0003 |       0.0000 |       0.0000 |       0.0001 |       0.0294 |       0.0000 |       0.1279 |       0.0145 |       0.5467 |       0.1355 |       0.6380 |       0.5352 |       0.6081 |       0.6408 |       0.6509 |       0.6069 |       0.6137 |       0.6509 |       0.6560 |       0.6136 |       0.6162 |       0.6569 |       0.6592 |
dl2.wb_rate                                 0.0057 |       0.0057 |       0.0000 |       0.0000 |       0.0031 |       0.0031 |       0.0000 |       0.0000 |       0.0016 |       0.0016 |       0.0000 |       0.0000 |       0.0008 |       0.0008 |       0.0000 |       0.0000 |       0.0004 |       0.0004 |       0.0000 |       0.0000 |       0.0002 |       0.0002 |       0.0000 |       0.0000 |       0.0001 |       0.0164 |       0.0000 |       0.1276 |       0.0080 |       0.3123 |       0.1352 |       0.3302 |       0.3030 |       0.3106 |       0.3305 |       0.3346 |       0.3123 |       0.3148 |       0.3346 |       0.3366 |       0.3129 |       0.3146 |       0.3363 |       0.3372 |
dl2.inv_rate                                0.0000 |       0.0000 |       0.0000 |       0.0000 |       0.0000 |       0.0000 |       0.0000 |       0.0000 |       0.0000 |       0.0000 |       0.0000 |       0.0000 |       0.0000 |       0.0000 |       0.0000 |       0.0000 |       0.0000 |       0.0000 |       0.0000 |       0.0000 |       0.0000 |       0.0000 |       0.0000 |       0.0000 |       0.0000 |       0.0000 |       0.0000 |       0.0000 |       0.0000 |       0.0000 |       0.0000 |       0.0000 |       0.0000 |       0.0000 |       0.0000 |       0.0000 |       0.0000 |       0.0000 |       0.0000 |       0.0000 |       0.0000 |       0.0000 |       0.0000 |       0.0000 |
itlb.accesses                               891954 |       891954 |       891954 |       891954 |      1916531 |      1916531 |      1916531 |      1916531 |      4186792 |      4186792 |      4186792 |      4186792 |      8923970 |      8923970 |      8923970 |      8923970 |     19282234 |     19282234 |     19282234 |     19282234 |     40784517 |     40784517 |     40784517 |     40784517 |     87330910 |     87330910 |     87330910 |     87330910 |    183569828 |    183569828 |    183569828 |    183569828 |    390205570 |    390205570 |    390205570 |    390205570 |    816058518 |    816058518 |    816058518 |    816058518 |   1724399520 |   1724399520 |   1724399520 |   1724399520 |
itlb.hits                                   891945 |       891945 |       891945 |       891945 |      1916522 |      1916522 |      1916522 |      1916522 |      4186783 |      4186783 |      4186783 |      4186783 |      8923961 |      8923961 |      8923961 |      8923961 |     19282225 |     19282225 |     19282225 |     19282225 |     40784508 |     40784508 |     40784508 |     40784508 |     87330901 |     87330901 |     87330901 |     87330901 |    183569819 |    183569819 |    183569819 |    183569819 |    390205561 |    390205561 |    390205561 |    390205561 |    816058509 |    816058509 |    816058509 |    816058509 |   1724399511 |   1724399511 |   1724399511 |   1724399511 |
itlb.misses                                      9 |            9 |            9 |            9 |            9 |            9 |            9 |            9 |            9 |            9 |            9 |            9 |            9 |            9 |            9 |            9 |            9 |            9 |            9 |            9 |            9 |            9 |            9 |            9 |            9 |            9 |            9 |            9 |            9 |            9 |            9 |            9 |            9 |            9 |            9 |            9 |            9 |            9 |            9 |            9 |            9 |            9 |            9 |            9 |
itlb.replacements                                0 |            0 |            0 |            0 |            0 |            0 |            0 |            0 |            0 |            0 |            0 |            0 |            0 |            0 |            0 |            0 |            0 |            0 |            0 |            0 |            0 |            0 |            0 |            0 |            0 |            0 |            0 |            0 |            0 |            0 |            0 |            0 |            0 |            0 |            0 |            0 |            0 |            0 |            0 |            0 |            0 |            0 |            0 |            0 |
itlb.writebacks                                  0 |            0 |            0 |            0 |            0 |            0 |            0 |            0 |            0 |            0 |            0 |            0 |            0 |            0 |            0 |            0 |            0 |            0 |            0 |            0 |            0 |            0 |            0 |            0 |            0 |            0 |            0 |            0 |            0 |            0 |            0 |            0 |            0 |            0 |            0 |            0 |            0 |            0 |            0 |            0 |            0 |            0 |            0 |            0 |
itlb.invalidations                               0 |            0 |            0 |            0 |            0 |            0 |            0 |            0 |            0 |            0 |            0 |            0 |            0 |            0 |            0 |            0 |            0 |            0 |            0 |            0 |            0 |            0 |            0 |            0 |            0 |            0 |            0 |            0 |            0 |            0 |            0 |            0 |            0 |            0 |            0 |            0 |            0 |            0 |            0 |            0 |            0 |            0 |            0 |            0 |
itlb.miss_rate                              0.0000 |       0.0000 |       0.0000 |       0.0000 |       0.0000 |       0.0000 |       0.0000 |       0.0000 |       0.0000 |       0.0000 |       0.0000 |       0.0000 |       0.0000 |       0.0000 |       0.0000 |       0.0000 |       0.0000 |       0.0000 |       0.0000 |       0.0000 |       0.0000 |       0.0000 |       0.0000 |       0.0000 |       0.0000 |       0.0000 |       0.0000 |       0.0000 |       0.0000 |       0.0000 |       0.0000 |       0.0000 |       0.0000 |       0.0000 |       0.0000 |       0.0000 |       0.0000 |       0.0000 |       0.0000 |       0.0000 |       0.0000 |       0.0000 |       0.0000 |       0.0000 |
itlb.repl_rate                              0.0000 |       0.0000 |       0.0000 |       0.0000 |       0.0000 |       0.0000 |       0.0000 |       0.0000 |       0.0000 |       0.0000 |       0.0000 |       0.0000 |       0.0000 |       0.0000 |       0.0000 |       0.0000 |       0.0000 |       0.0000 |       0.0000 |       0.0000 |       0.0000 |       0.0000 |       0.0000 |       0.0000 |       0.0000 |       0.0000 |       0.0000 |       0.0000 |       0.0000 |       0.0000 |       0.0000 |       0.0000 |       0.0000 |       0.0000 |       0.0000 |       0.0000 |       0.0000 |       0.0000 |       0.0000 |       0.0000 |       0.0000 |       0.0000 |       0.0000 |       0.0000 |
itlb.wb_rate                                0.0000 |       0.0000 |       0.0000 |       0.0000 |       0.0000 |       0.0000 |       0.0000 |       0.0000 |       0.0000 |       0.0000 |       0.0000 |       0.0000 |       0.0000 |       0.0000 |       0.0000 |       0.0000 |       0.0000 |       0.0000 |       0.0000 |       0.0000 |       0.0000 |       0.0000 |       0.0000 |       0.0000 |       0.0000 |       0.0000 |       0.0000 |       0.0000 |       0.0000 |       0.0000 |       0.0000 |       0.0000 |       0.0000 |       0.0000 |       0.0000 |       0.0000 |       0.0000 |       0.0000 |       0.0000 |       0.0000 |       0.0000 |       0.0000 |       0.0000 |       0.0000 |
itlb.inv_rate                               0.0000 |       0.0000 |       0.0000 |       0.0000 |       0.0000 |       0.0000 |       0.0000 |       0.0000 |       0.0000 |       0.0000 |       0.0000 |       0.0000 |       0.0000 |       0.0000 |       0.0000 |       0.0000 |       0.0000 |       0.0000 |       0.0000 |       0.0000 |       0.0000 |       0.0000 |       0.0000 |       0.0000 |       0.0000 |       0.0000 |       0.0000 |       0.0000 |       0.0000 |       0.0000 |       0.0000 |       0.0000 |       0.0000 |       0.0000 |       0.0000 |       0.0000 |       0.0000 |       0.0000 |       0.0000 |       0.0000 |       0.0000 |       0.0000 |       0.0000 |       0.0000 |
dtlb.accesses                               250618 |       250618 |       250618 |       250618 |       521972 |       521972 |       521972 |       521972 |      1154810 |      1154810 |      1154810 |      1154810 |      2403991 |      2403991 |      2403991 |      2403991 |      5262746 |      5262746 |      5262746 |      5262746 |     10914697 |     10914697 |     10914697 |     10914697 |     23660554 |     23660554 |     23660554 |     23660554 |     48891267 |     48891267 |     48891267 |     48891267 |    105126026 |    105126026 |    105126026 |    105126026 |    216537422 |    216537422 |    216537422 |    216537422 |    462430374 |    462430374 |    462430374 |    462430374 |
dtlb.hits                                   250603 |       250603 |       250603 |       250603 |       521949 |       521949 |       521949 |       521949 |      1154771 |      1154771 |      1154771 |      1154771 |      2403920 |      2403920 |      2403920 |      2403920 |      5262534 |      5262534 |      5262534 |      5262534 |     10910514 |     10910514 |     10910514 |     10910514 |     23651080 |     23651080 |     23651080 |     23651080 |     48872314 |     48872314 |     48872314 |     48872314 |    105084009 |    105084009 |    105084009 |    105084009 |    216453385 |    216453385 |    216453385 |    216453385 |    462245903 |    462245903 |    462245903 |    462245903 |
dtlb.misses                                     15 |           15 |           15 |           15 |           23 |           23 |           23 |           23 |           39 |           39 |           39 |           39 |           71 |           71 |           71 |           71 |          212 |          212 |          212 |          212 |         4183 |         4183 |         4183 |         4183 |         9474 |         9474 |         9474 |         9474 |        18953 |        18953 |        18953 |        18953 |        42017 |        42017 |        42017 |        42017 |        84037 |        84037 |        84037 |        84037 |       184471 |       184471 |       184471 |       184471 |
dtlb.replacements                                0 |            0 |            0 |            0 |            0 |            0 |            0 |            0 |            0 |            0 |            0 |            0 |            0 |            0 |            0 |            0 |           84 |           84 |           84 |           84 |         4055 |         4055 |         4055 |         4055 |         9346 |         9346 |         9346 |         9346 |        18825 |        18825 |        18825 |        18825 |        41889 |        41889 |        41889 |        41889 |        83909 |        83909 |        83909 |        83909 |       184343 |       184343 |       184343 |       184343 |
dtlb.writebacks                                  0 |            0 |            0 |            0 |            0 |            0 |            0 |            0 |            0 |            0 |            0 |            0 |            0 |            0 |            0 |            0 |           51 |           51 |           51 |           51 |         2129 |         2129 |         2129 |         2129 |         4823 |         4823 |         4823 |         4823 |         9694 |         9694 |         9694 |         9694 |        21491 |        21491 |        21491 |        21491 |        43033 |        43033 |        43033 |        43033 |        94307 |        94307 |        94307 |        94307 |
dtlb.invalidations                               0 |            0 |            0 |            0 |            0 |            0 |            0 |            0 |            0 |            0 |            0 |            0 |            0 |            0 |            0 |            0 |            0 |            0 |            0 |            0 |            0 |            0 |            0 |            0 |            0 |            0 |            0 |            0 |            0 |            0 |            0 |            0 |            0 |            0 |            0 |            0 |            0 |            0 |            0 |            0 |            0 |            0 |            0 |            0 |
dtlb.miss_rate                              0.0001 |       0.0001 |       0.0001 |       0.0001 |       0.0000 |       0.0000 |       0.0000 |       0.0000 |       0.0000 |       0.0000 |       0.0000 |       0.0000 |       0.0000 |       0.0000 |       0.0000 |       0.0000 |       0.0000 |       0.0000 |       0.0000 |       0.0000 |       0.0004 |       0.0004 |       0.0004 |       0.0004 |       0.0004 |       0.0004 |       0.0004 |       0.0004 |       0.0004 |       0.0004 |       0.0004 |       0.0004 |       0.0004 |       0.0004 |       0.0004 |       0.0004 |       0.0004 |       0.0004 |       0.0004 |       0.0004 |       0.0004 |       0.0004 |       0.0004 |       0.0004 |
dtlb.repl_rate                              0.0000 |       0.0000 |       0.0000 |       0.0000 |       0.0000 |       0.0000 |       0.0000 |       0.0000 |       0.0000 |       0.0000 |       0.0000 |       0.0000 |       0.0000 |       0.0000 |       0.0000 |       0.0000 |       0.0000 |       0.0000 |       0.0000 |       0.0000 |       0.0004 |       0.0004 |       0.0004 |       0.0004 |       0.0004 |       0.0004 |       0.0004 |       0.0004 |       0.0004 |       0.0004 |       0.0004 |       0.0004 |       0.0004 |       0.0004 |       0.0004 |       0.0004 |       0.0004 |       0.0004 |       0.0004 |       0.0004 |       0.0004 |       0.0004 |       0.0004 |       0.0004 |
dtlb.wb_rate                                0.0000 |       0.0000 |       0.0000 |       0.0000 |       0.0000 |       0.0000 |       0.0000 |       0.0000 |       0.0000 |       0.0000 |       0.0000 |       0.0000 |       0.0000 |       0.0000 |       0.0000 |       0.0000 |       0.0000 |       0.0000 |       0.0000 |       0.0000 |       0.0002 |       0.0002 |       0.0002 |       0.0002 |       0.0002 |       0.0002 |       0.0002 |       0.0002 |       0.0002 |       0.0002 |       0.0002 |       0.0002 |       0.0002 |       0.0002 |       0.0002 |       0.0002 |       0.0002 |       0.0002 |       0.0002 |       0.0002 |       0.0002 |       0.0002 |       0.0002 |       0.0002 |
dtlb.inv_rate                               0.0000 |       0.0000 |       0.0000 |       0.0000 |       0.0000 |       0.0000 |       0.0000 |       0.0000 |       0.0000 |       0.0000 |       0.0000 |       0.0000 |       0.0000 |       0.0000 |       0.0000 |       0.0000 |       0.0000 |       0.0000 |       0.0000 |       0.0000 |       0.0000 |       0.0000 |       0.0000 |       0.0000 |       0.0000 |       0.0000 |       0.0000 |       0.0000 |       0.0000 |       0.0000 |       0.0000 |       0.0000 |       0.0000 |       0.0000 |       0.0000 |       0.0000 |       0.0000 |       0.0000 |       0.0000 |       0.0000 |       0.0000 |       0.0000 |       0.0000 |       0.0000 |
ld_text_base                            0x00400000 |   0x00400000 |   0x00400000 |   0x00400000 |   0x00400000 |   0x00400000 |   0x00400000 |   0x00400000 |   0x00400000 |   0x00400000 |   0x00400000 |   0x00400000 |   0x00400000 |   0x00400000 |   0x00400000 |   0x00400000 |   0x00400000 |   0x00400000 |   0x00400000 |   0x00400000 |   0x00400000 |   0x00400000 |   0x00400000 |   0x00400000 |   0x00400000 |   0x00400000 |   0x00400000 |   0x00400000 |   0x00400000 |   0x00400000 |   0x00400000 |   0x00400000 |   0x00400000 |   0x00400000 |   0x00400000 |   0x00400000 |   0x00400000 |   0x00400000 |   0x00400000 |   0x00400000 |   0x00400000 |   0x00400000 |   0x00400000 |   0x00400000 |
ld_text_size                                 71536 |        71536 |        71536 |        71536 |        71568 |        71568 |        71568 |        71568 |        71584 |        71584 |        71584 |        71584 |        71600 |        71600 |        71600 |        71600 |        71600 |        71600 |        71600 |        71600 |        71600 |        71600 |        71600 |        71600 |        71600 |        71600 |        71600 |        71600 |        71600 |        71600 |        71600 |        71600 |        71600 |        71600 |        71600 |        71600 |        71600 |        71600 |        71600 |        71600 |        71600 |        71600 |        71600 |        71600 |
ld_data_base                            0x10000000 |   0x10000000 |   0x10000000 |   0x10000000 |   0x10000000 |   0x10000000 |   0x10000000 |   0x10000000 |   0x10000000 |   0x10000000 |   0x10000000 |   0x10000000 |   0x10000000 |   0x10000000 |   0x10000000 |   0x10000000 |   0x10000000 |   0x10000000 |   0x10000000 |   0x10000000 |   0x10000000 |   0x10000000 |   0x10000000 |   0x10000000 |   0x10000000 |   0x10000000 |   0x10000000 |   0x10000000 |   0x10000000 |   0x10000000 |   0x10000000 |   0x10000000 |   0x10000000 |   0x10000000 |   0x10000000 |   0x10000000 |   0x10000000 |   0x10000000 |   0x10000000 |   0x10000000 |   0x10000000 |   0x10000000 |   0x10000000 |   0x10000000 |
ld_data_size                                  8192 |         8192 |         8192 |         8192 |         8192 |         8192 |         8192 |         8192 |         8192 |         8192 |         8192 |         8192 |         8192 |         8192 |         8192 |         8192 |         8192 |         8192 |         8192 |         8192 |         8192 |         8192 |         8192 |         8192 |         8192 |         8192 |         8192 |         8192 |         8192 |         8192 |         8192 |         8192 |         8192 |         8192 |         8192 |         8192 |         8192 |         8192 |         8192 |         8192 |         8192 |         8192 |         8192 |         8192 |
ld_stack_base                           0x7fffc000 |   0x7fffc000 |   0x7fffc000 |   0x7fffc000 |   0x7fffc000 |   0x7fffc000 |   0x7fffc000 |   0x7fffc000 |   0x7fffc000 |   0x7fffc000 |   0x7fffc000 |   0x7fffc000 |   0x7fffc000 |   0x7fffc000 |   0x7fffc000 |   0x7fffc000 |   0x7fffc000 |   0x7fffc000 |   0x7fffc000 |   0x7fffc000 |   0x7fffc000 |   0x7fffc000 |   0x7fffc000 |   0x7fffc000 |   0x7fffc000 |   0x7fffc000 |   0x7fffc000 |   0x7fffc000 |   0x7fffc000 |   0x7fffc000 |   0x7fffc000 |   0x7fffc000 |   0x7fffc000 |   0x7fffc000 |   0x7fffc000 |   0x7fffc000 |   0x7fffc000 |   0x7fffc000 |   0x7fffc000 |   0x7fffc000 |   0x7fffc000 |   0x7fffc000 |   0x7fffc000 |   0x7fffc000 |
ld_stack_size                                16384 |        16384 |        16384 |        16384 |        16384 |        16384 |        16384 |        16384 |        16384 |        16384 |        16384 |        16384 |        16384 |        16384 |        16384 |        16384 |        16384 |        16384 |        16384 |        16384 |        16384 |        16384 |        16384 |        16384 |        16384 |        16384 |        16384 |        16384 |        16384 |        16384 |        16384 |        16384 |        16384 |        16384 |        16384 |        16384 |        16384 |        16384 |        16384 |        16384 |        16384 |        16384 |        16384 |        16384 |
ld_prog_entry                           0x00400140 |   0x00400140 |   0x00400140 |   0x00400140 |   0x00400140 |   0x00400140 |   0x00400140 |   0x00400140 |   0x00400140 |   0x00400140 |   0x00400140 |   0x00400140 |   0x00400140 |   0x00400140 |   0x00400140 |   0x00400140 |   0x00400140 |   0x00400140 |   0x00400140 |   0x00400140 |   0x00400140 |   0x00400140 |   0x00400140 |   0x00400140 |   0x00400140 |   0x00400140 |   0x00400140 |   0x00400140 |   0x00400140 |   0x00400140 |   0x00400140 |   0x00400140 |   0x00400140 |   0x00400140 |   0x00400140 |   0x00400140 |   0x00400140 |   0x00400140 |   0x00400140 |   0x00400140 |   0x00400140 |   0x00400140 |   0x00400140 |   0x00400140 |
ld_environ_base                         0x7fff8000 |   0x7fff8000 |   0x7fff8000 |   0x7fff8000 |   0x7fff8000 |   0x7fff8000 |   0x7fff8000 |   0x7fff8000 |   0x7fff8000 |   0x7fff8000 |   0x7fff8000 |   0x7fff8000 |   0x7fff8000 |   0x7fff8000 |   0x7fff8000 |   0x7fff8000 |   0x7fff8000 |   0x7fff8000 |   0x7fff8000 |   0x7fff8000 |   0x7fff8000 |   0x7fff8000 |   0x7fff8000 |   0x7fff8000 |   0x7fff8000 |   0x7fff8000 |   0x7fff8000 |   0x7fff8000 |   0x7fff8000 |   0x7fff8000 |   0x7fff8000 |   0x7fff8000 |   0x7fff8000 |   0x7fff8000 |   0x7fff8000 |   0x7fff8000 |   0x7fff8000 |   0x7fff8000 |   0x7fff8000 |   0x7fff8000 |   0x7fff8000 |   0x7fff8000 |   0x7fff8000 |   0x7fff8000 |
ld_target_big_endian                             0 |            0 |            0 |            0 |            0 |            0 |            0 |            0 |            0 |            0 |            0 |            0 |            0 |            0 |            0 |            0 |            0 |            0 |            0 |            0 |            0 |            0 |            0 |            0 |            0 |            0 |            0 |            0 |            0 |            0 |            0 |            0 |            0 |            0 |            0 |            0 |            0 |            0 |            0 |            0 |            0 |            0 |            0 |            0 |
mem.page_count                                  33 |           33 |           33 |           33 |           41 |           41 |           41 |           41 |           57 |           57 |           57 |           57 |           89 |           89 |           89 |           89 |          153 |          153 |          153 |          153 |          281 |          281 |          281 |          281 |          537 |          537 |          537 |          537 |         1049 |         1049 |         1049 |         1049 |         2079 |         2079 |         2079 |         2079 |         4133 |         4133 |         4133 |         4133 |         8241 |         8241 |         8241 |         8241 |
mem.page_mem                                  132k |         132k |         132k |         132k |         164k |         164k |         164k |         164k |         228k |         228k |         228k |         228k |         356k |         356k |         356k |         356k |         612k |         612k |         612k |         612k |        1124k |        1124k |        1124k |        1124k |        2148k |        2148k |        2148k |        2148k |        4196k |        4196k |        4196k |        4196k |        8316k |        8316k |        8316k |        8316k |       16532k |       16532k |       16532k |       16532k |       32964k |       32964k |       32964k |       32964k |
mem.ptab_misses                                 33 |           33 |           33 |           33 |           41 |           41 |           41 |           41 |           57 |           57 |           57 |           57 |           89 |           89 |           89 |           89 |          153 |          153 |          153 |          153 |          281 |          281 |          281 |          281 |          537 |          537 |          537 |          537 |         1049 |         1049 |         1049 |         1049 |        97870 |        97870 |        97870 |        97870 |       104489 |       104489 |       104489 |       104489 |       113678 |       113678 |       113678 |       113678 |
mem.ptab_accesses                          4512892 |      4512892 |      4512892 |      4512892 |      9154100 |      9154100 |      9154100 |      9154100 |     19500916 |     19500916 |     19500916 |     19500916 |     40948086 |     40948086 |     40948086 |     40948086 |     88098652 |     88098652 |     88098652 |     88098652 |    185411686 |    185411686 |    185411686 |    185411686 |    397088972 |    397088972 |    397088972 |    397088972 |    832506070 |    832506070 |    832506070 |    832506070 |   1771518556 |   1771518556 |   1771518556 |   1771518556 |   3697753140 |   3697753140 |   3697753140 |   3697753140 |   7822903052 |   7822903052 |   7822903052 |   7822903052 |
mem.ptab_miss_rate                          0.0000 |       0.0000 |       0.0000 |       0.0000 |       0.0000 |       0.0000 |       0.0000 |       0.0000 |       0.0000 |       0.0000 |       0.0000 |       0.0000 |       0.0000 |       0.0000 |       0.0000 |       0.0000 |       0.0000 |       0.0000 |       0.0000 |       0.0000 |       0.0000 |       0.0000 |       0.0000 |       0.0000 |       0.0000 |       0.0000 |       0.0000 |       0.0000 |       0.0000 |       0.0000 |       0.0000 |       0.0000 |       0.0001 |       0.0001 |       0.0001 |       0.0001 |       0.0000 |       0.0000 |       0.0000 |       0.0000 |       0.0000 |       0.0000 |       0.0000 |       0.0000 |
-------------------------------------------------------------------------------------------------
sim-bpred                                     4096 |         4096 |         4096 |         4096 |         4096 |         4096 |         4096 |         8192 |         8192 |         8192 |         8192 |         8192 |         8192 |         8192 |        16384 |        16384 |        16384 |        16384 |        16384 |        16384 |        16384 |        32768 |        32768 |        32768 |        32768 |        32768 |        32768 |        32768 |        65536 |        65536 |        65536 |        65536 |        65536 |        65536 |        65536 |       131072 |       131072 |       131072 |       131072 |       131072 |       131072 |       131072 |       262144 |       262144 |       262144 |       262144 |       262144 |       262144 |       262144 |       524288 |       524288 |       524288 |       524288 |       524288 |       524288 |       524288 |      1048576 |      1048576 |      1048576 |      1048576 |      1048576 |      1048576 |      1048576 |      2097152 |      2097152 |      2097152 |      2097152 |      2097152 |      2097152 |      2097152 |      4194304 |      4194304 |      4194304 |      4194304 |      4194304 |      4194304 |      4194304 |
-bpred bimod -bpred:bimod 512
-bpred bimod -bpred:bimod 1024
-bpred bimod -bpred:bimod 2048
-bpred 2lev -bpred:2lev 1 512 10 1
-bpred 2lev -bpred:2lev 1 1024 10 1
-bpred 2lev -bpred:2lev 1 2048 10 1
-bpred 2lev -bpred:2lev 1 4096 10 1
-------------------------------------------------------------------------------------------------
sim_num_insn                                891954 |       891954 |       891954 |       891954 |       891954 |       891954 |       891954 |      1916531 |      1916531 |      1916531 |      1916531 |      1916531 |      1916531 |      1916531 |      4186792 |      4186792 |      4186792 |      4186792 |      4186792 |      4186792 |      4186792 |      8923970 |      8923970 |      8923970 |      8923970 |      8923970 |      8923970 |      8923970 |     19282234 |     19282234 |     19282234 |     19282234 |     19282234 |     19282234 |     19282234 |     40784517 |     40784517 |     40784517 |     40784517 |     40784517 |     40784517 |     40784517 |     87330910 |     87330910 |     87330910 |     87330910 |     87330910 |     87330910 |     87330910 |    183569828 |    183569828 |    183569828 |    183569828 |    183569828 |    183569828 |    183569828 |    390205570 |    390205570 |    390205570 |    390205570 |    390205570 |    390205570 |    390205570 |    816058518 |    816058518 |    816058518 |    816058518 |    816058518 |    816058518 |    816058518 |   1724399520 |   1724399520 |   1724399520 |   1724399520 |   1724399520 |   1724399520 |   1724399520 |
sim_num_refs                                234160 |       234160 |       234160 |       234160 |       234160 |       234160 |       234160 |       489130 |       489130 |       489130 |       489130 |       489130 |       489130 |       489130 |      1089200 |      1089200 |      1089200 |      1089200 |      1089200 |      1089200 |      1089200 |      2272845 |      2272845 |      2272845 |      2272845 |      2272845 |      2272845 |      2272845 |      5000528 |      5000528 |      5000528 |      5000528 |      5000528 |      5000528 |      5000528 |     10390335 |     10390335 |     10390335 |     10390335 |     10390335 |     10390335 |     10390335 |     22611904 |     22611904 |     22611904 |     22611904 |     22611904 |     22611904 |     22611904 |     46794041 |     46794041 |     46794041 |     46794041 |     46794041 |     46794041 |     46794041 |    100931648 |    100931648 |    100931648 |    100931648 |    100931648 |    100931648 |    100931648 |    208148740 |    208148740 |    208148740 |    208148740 |    208148740 |    208148740 |    208148740 |    445653084 |    445653084 |    445653084 |    445653084 |    445653084 |    445653084 |    445653084 |
sim_elapsed_time                                 1 |            1 |            1 |            1 |            1 |            1 |            1 |            1 |            1 |            1 |            1 |            1 |            1 |            1 |            1 |            1 |            1 |            1 |            1 |            1 |            1 |            1 |            1 |            1 |            1 |            1 |            1 |            1 |            2 |            3 |            2 |            2 |            2 |            3 |            2 |            4 |            5 |            5 |            4 |            5 |            5 |            5 |           10 |           10 |           10 |           10 |           10 |           10 |           10 |           22 |           20 |           21 |           22 |           21 |           21 |           21 |           45 |           44 |           44 |           47 |           44 |           44 |           45 |           94 |           92 |           91 |           97 |           93 |           94 |           94 |          198 |          193 |          193 |          205 |          198 |          198 |          198 |
sim_inst_rate                          891954.0000 |  891954.0000 |  891954.0000 |  891954.0000 |  891954.0000 |  891954.0000 |  891954.0000 | 1916531.0000 | 1916531.0000 | 1916531.0000 | 1916531.0000 | 1916531.0000 | 1916531.0000 | 1916531.0000 | 4186792.0000 | 4186792.0000 | 4186792.0000 | 4186792.0000 | 4186792.0000 | 4186792.0000 | 4186792.0000 | 8923970.0000 | 8923970.0000 | 8923970.0000 | 8923970.0000 | 8923970.0000 | 8923970.0000 | 8923970.0000 | 9641117.0000 | 6427411.3333 | 9641117.0000 | 9641117.0000 | 9641117.0000 | 6427411.3333 | 9641117.0000 |10196129.2500 | 8156903.4000 | 8156903.4000 |10196129.2500 | 8156903.4000 | 8156903.4000 | 8156903.4000 | 8733091.0000 | 8733091.0000 | 8733091.0000 | 8733091.0000 | 8733091.0000 | 8733091.0000 | 8733091.0000 | 8344083.0909 | 9178491.4000 | 8741420.3810 | 8344083.0909 | 8741420.3810 | 8741420.3810 | 8741420.3810 | 8671234.8889 | 8868308.4091 | 8868308.4091 | 8302246.1702 | 8868308.4091 | 8868308.4091 | 8671234.8889 | 8681473.5957 | 8870201.2826 | 8967676.0220 | 8412974.4124 | 8774822.7742 | 8681473.5957 | 8681473.5957 | 8709088.4848 | 8934712.5389 | 8934712.5389 | 8411704.9756 | 8709088.4848 | 8709088.4848 | 8709088.4848 |
sim_num_branches                            112764 |       112764 |       112764 |       112764 |       112764 |       112764 |       112764 |       243900 |       243900 |       243900 |       243900 |       243900 |       243900 |       243900 |       529730 |       529730 |       529730 |       529730 |       529730 |       529730 |       529730 |      1136718 |      1136718 |      1136718 |      1136718 |      1136718 |      1136718 |      1136718 |      2444391 |      2444391 |      2444391 |      2444391 |      2444391 |      2444391 |      2444391 |      5198377 |      5198377 |      5198377 |      5198377 |      5198377 |      5198377 |      5198377 |     11084954 |     11084954 |     11084954 |     11084954 |     11084954 |     11084954 |     11084954 |     23414623 |     23414623 |     23414623 |     23414623 |     23414623 |     23414623 |     23414623 |     49576559 |     49576559 |     49576559 |     49576559 |     49576559 |     49576559 |     49576559 |    104134371 |    104134371 |    104134371 |    104134371 |    104134371 |    104134371 |    104134371 |    219287247 |    219287247 |    219287247 |    219287247 |    219287247 |    219287247 |    219287247 |
sim_IPB                                     7.9099 |       7.9099 |       7.9099 |       7.9099 |       7.9099 |       7.9099 |       7.9099 |       7.8579 |       7.8579 |       7.8579 |       7.8579 |       7.8579 |       7.8579 |       7.8579 |       7.9036 |       7.9036 |       7.9036 |       7.9036 |       7.9036 |       7.9036 |       7.9036 |       7.8506 |       7.8506 |       7.8506 |       7.8506 |       7.8506 |       7.8506 |       7.8506 |       7.8884 |       7.8884 |       7.8884 |       7.8884 |       7.8884 |       7.8884 |       7.8884 |       7.8456 |       7.8456 |       7.8456 |       7.8456 |       7.8456 |       7.8456 |       7.8456 |       7.8783 |       7.8783 |       7.8783 |       7.8783 |       7.8783 |       7.8783 |       7.8783 |       7.8400 |       7.8400 |       7.8400 |       7.8400 |       7.8400 |       7.8400 |       7.8400 |       7.8708 |       7.8708 |       7.8708 |       7.8708 |       7.8708 |       7.8708 |       7.8708 |       7.8366 |       7.8366 |       7.8366 |       7.8366 |       7.8366 |       7.8366 |       7.8366 |       7.8637 |       7.8637 |       7.8637 |       7.8637 |       7.8637 |       7.8637 |       7.8637 |
bpred_bimod.lookups                         112764 |       112764 |       112764 |xxxxxxxxxxxxx |xxxxxxxxxxxxx |xxxxxxxxxxxxx |xxxxxxxxxxxxx |       243900 |       243900 |       243900 |xxxxxxxxxxxxx |xxxxxxxxxxxxx |xxxxxxxxxxxxx |xxxxxxxxxxxxx |       529730 |       529730 |       529730 |xxxxxxxxxxxxx |xxxxxxxxxxxxx |xxxxxxxxxxxxx |xxxxxxxxxxxxx |      1136718 |      1136718 |      1136718 |xxxxxxxxxxxxx |xxxxxxxxxxxxx |xxxxxxxxxxxxx |xxxxxxxxxxxxx |      2444391 |      2444391 |      2444391 |xxxxxxxxxxxxx |xxxxxxxxxxxxx |xxxxxxxxxxxxx |xxxxxxxxxxxxx |      5198377 |      5198377 |      5198377 |xxxxxxxxxxxxx |xxxxxxxxxxxxx |xxxxxxxxxxxxx |xxxxxxxxxxxxx |     11084954 |     11084954 |     11084954 |xxxxxxxxxxxxx |xxxxxxxxxxxxx |xxxxxxxxxxxxx |xxxxxxxxxxxxx |     23414623 |     23414623 |     23414623 |xxxxxxxxxxxxx |xxxxxxxxxxxxx |xxxxxxxxxxxxx |xxxxxxxxxxxxx |     49576559 |     49576559 |     49576559 |xxxxxxxxxxxxx |xxxxxxxxxxxxx |xxxxxxxxxxxxx |xxxxxxxxxxxxx |    104134371 |    104134371 |    104134371 |xxxxxxxxxxxxx |xxxxxxxxxxxxx |xxxxxxxxxxxxx |xxxxxxxxxxxxx |    219287247 |    219287247 |    219287247 |
bpred_bimod.updates                         112764 |       112764 |       112764 |xxxxxxxxxxxxx |xxxxxxxxxxxxx |xxxxxxxxxxxxx |xxxxxxxxxxxxx |       243900 |       243900 |       243900 |xxxxxxxxxxxxx |xxxxxxxxxxxxx |xxxxxxxxxxxxx |xxxxxxxxxxxxx |       529730 |       529730 |       529730 |xxxxxxxxxxxxx |xxxxxxxxxxxxx |xxxxxxxxxxxxx |xxxxxxxxxxxxx |      1136718 |      1136718 |      1136718 |xxxxxxxxxxxxx |xxxxxxxxxxxxx |xxxxxxxxxxxxx |xxxxxxxxxxxxx |      2444391 |      2444391 |      2444391 |xxxxxxxxxxxxx |xxxxxxxxxxxxx |xxxxxxxxxxxxx |xxxxxxxxxxxxx |      5198377 |      5198377 |      5198377 |xxxxxxxxxxxxx |xxxxxxxxxxxxx |xxxxxxxxxxxxx |xxxxxxxxxxxxx |     11084954 |     11084954 |     11084954 |xxxxxxxxxxxxx |xxxxxxxxxxxxx |xxxxxxxxxxxxx |xxxxxxxxxxxxx |     23414623 |     23414623 |     23414623 |xxxxxxxxxxxxx |xxxxxxxxxxxxx |xxxxxxxxxxxxx |xxxxxxxxxxxxx |     49576559 |     49576559 |     49576559 |xxxxxxxxxxxxx |xxxxxxxxxxxxx |xxxxxxxxxxxxx |xxxxxxxxxxxxx |    104134371 |    104134371 |    104134371 |xxxxxxxxxxxxx |xxxxxxxxxxxxx |xxxxxxxxxxxxx |xxxxxxxxxxxxx |    219287247 |    219287247 |    219287247 |
bpred_bimod.addr_hits                        87716 |        87719 |        87723 |xxxxxxxxxxxxx |xxxxxxxxxxxxx |xxxxxxxxxxxxx |xxxxxxxxxxxxx |       189745 |       189747 |       189751 |xxxxxxxxxxxxx |xxxxxxxxxxxxx |xxxxxxxxxxxxx |xxxxxxxxxxxxx |       412994 |       412997 |       413003 |xxxxxxxxxxxxx |xxxxxxxxxxxxx |xxxxxxxxxxxxx |xxxxxxxxxxxxx |       887217 |       887219 |       887228 |xxxxxxxxxxxxx |xxxxxxxxxxxxx |xxxxxxxxxxxxx |xxxxxxxxxxxxx |      1913325 |      1913328 |      1913336 |xxxxxxxxxxxxx |xxxxxxxxxxxxx |xxxxxxxxxxxxx |xxxxxxxxxxxxx |      4069907 |      4069909 |      4069918 |xxxxxxxxxxxxx |xxxxxxxxxxxxx |xxxxxxxxxxxxx |xxxxxxxxxxxxx |      8698291 |      8698294 |      8698302 |xxxxxxxxxxxxx |xxxxxxxxxxxxx |xxxxxxxxxxxxx |xxxxxxxxxxxxx |     18380473 |     18380475 |     18380483 |xxxxxxxxxxxxx |xxxxxxxxxxxxx |xxxxxxxxxxxxx |xxxxxxxxxxxxx |     38982625 |     38982628 |     38982631 |xxxxxxxxxxxxx |xxxxxxxxxxxxx |xxxxxxxxxxxxx |xxxxxxxxxxxxx |     81881591 |     81881594 |     81881597 |xxxxxxxxxxxxx |xxxxxxxxxxxxx |xxxxxxxxxxxxx |xxxxxxxxxxxxx |    172707784 |    172707787 |    172707791 |
bpred_bimod.dir_hits                         87823 |        87825 |        87829 |xxxxxxxxxxxxx |xxxxxxxxxxxxx |xxxxxxxxxxxxx |xxxxxxxxxxxxx |       189851 |       189852 |       189856 |xxxxxxxxxxxxx |xxxxxxxxxxxxx |xxxxxxxxxxxxx |xxxxxxxxxxxxx |       413105 |       413107 |       413113 |xxxxxxxxxxxxx |xxxxxxxxxxxxx |xxxxxxxxxxxxx |xxxxxxxxxxxxx |       887323 |       887324 |       887332 |xxxxxxxxxxxxx |xxxxxxxxxxxxx |xxxxxxxxxxxxx |xxxxxxxxxxxxx |      1913436 |      1913438 |      1913445 |xxxxxxxxxxxxx |xxxxxxxxxxxxx |xxxxxxxxxxxxx |xxxxxxxxxxxxx |      4070014 |      4070015 |      4070023 |xxxxxxxxxxxxx |xxxxxxxxxxxxx |xxxxxxxxxxxxx |xxxxxxxxxxxxx |      8698403 |      8698405 |      8698412 |xxxxxxxxxxxxx |xxxxxxxxxxxxx |xxxxxxxxxxxxx |xxxxxxxxxxxxx |     18380580 |     18380581 |     18380588 |xxxxxxxxxxxxx |xxxxxxxxxxxxx |xxxxxxxxxxxxx |xxxxxxxxxxxxx |     38982744 |     38982746 |     38982747 |xxxxxxxxxxxxx |xxxxxxxxxxxxx |xxxxxxxxxxxxx |xxxxxxxxxxxxx |     81881710 |     81881712 |     81881713 |xxxxxxxxxxxxx |xxxxxxxxxxxxx |xxxxxxxxxxxxx |xxxxxxxxxxxxx |    172707902 |    172707904 |    172707907 |
bpred_bimod.misses                           24941 |        24939 |        24935 |xxxxxxxxxxxxx |xxxxxxxxxxxxx |xxxxxxxxxxxxx |xxxxxxxxxxxxx |        54049 |        54048 |        54044 |xxxxxxxxxxxxx |xxxxxxxxxxxxx |xxxxxxxxxxxxx |xxxxxxxxxxxxx |       116625 |       116623 |       116617 |xxxxxxxxxxxxx |xxxxxxxxxxxxx |xxxxxxxxxxxxx |xxxxxxxxxxxxx |       249395 |       249394 |       249386 |xxxxxxxxxxxxx |xxxxxxxxxxxxx |xxxxxxxxxxxxx |xxxxxxxxxxxxx |       530955 |       530953 |       530946 |xxxxxxxxxxxxx |xxxxxxxxxxxxx |xxxxxxxxxxxxx |xxxxxxxxxxxxx |      1128363 |      1128362 |      1128354 |xxxxxxxxxxxxx |xxxxxxxxxxxxx |xxxxxxxxxxxxx |xxxxxxxxxxxxx |      2386551 |      2386549 |      2386542 |xxxxxxxxxxxxx |xxxxxxxxxxxxx |xxxxxxxxxxxxx |xxxxxxxxxxxxx |      5034043 |      5034042 |      5034035 |xxxxxxxxxxxxx |xxxxxxxxxxxxx |xxxxxxxxxxxxx |xxxxxxxxxxxxx |     10593815 |     10593813 |     10593812 |xxxxxxxxxxxxx |xxxxxxxxxxxxx |xxxxxxxxxxxxx |xxxxxxxxxxxxx |     22252661 |     22252659 |     22252658 |xxxxxxxxxxxxx |xxxxxxxxxxxxx |xxxxxxxxxxxxx |xxxxxxxxxxxxx |     46579345 |     46579343 |     46579340 |
bpred_bimod.jr_hits                             63 |           63 |           63 |xxxxxxxxxxxxx |xxxxxxxxxxxxx |xxxxxxxxxxxxx |xxxxxxxxxxxxx |           69 |           69 |           69 |xxxxxxxxxxxxx |xxxxxxxxxxxxx |xxxxxxxxxxxxx |xxxxxxxxxxxxx |           71 |           71 |           71 |xxxxxxxxxxxxx |xxxxxxxxxxxxx |xxxxxxxxxxxxx |xxxxxxxxxxxxx |           69 |           69 |           69 |xxxxxxxxxxxxx |xxxxxxxxxxxxx |xxxxxxxxxxxxx |xxxxxxxxxxxxx |           71 |           71 |           71 |xxxxxxxxxxxxx |xxxxxxxxxxxxx |xxxxxxxxxxxxx |xxxxxxxxxxxxx |           69 |           69 |           69 |xxxxxxxxxxxxx |xxxxxxxxxxxxx |xxxxxxxxxxxxx |xxxxxxxxxxxxx |           71 |           71 |           71 |xxxxxxxxxxxxx |xxxxxxxxxxxxx |xxxxxxxxxxxxx |xxxxxxxxxxxxx |           69 |           69 |           69 |xxxxxxxxxxxxx |xxxxxxxxxxxxx |xxxxxxxxxxxxx |xxxxxxxxxxxxx |           75 |           75 |           75 |xxxxxxxxxxxxx |xxxxxxxxxxxxx |xxxxxxxxxxxxx |xxxxxxxxxxxxx |           72 |           72 |           72 |xxxxxxxxxxxxx |xxxxxxxxxxxxx |xxxxxxxxxxxxx |xxxxxxxxxxxxx |           75 |           75 |           75 |
bpred_bimod.jr_seen                             64 |           64 |           64 |xxxxxxxxxxxxx |xxxxxxxxxxxxx |xxxxxxxxxxxxx |xxxxxxxxxxxxx |           70 |           70 |           70 |xxxxxxxxxxxxx |xxxxxxxxxxxxx |xxxxxxxxxxxxx |xxxxxxxxxxxxx |           73 |           73 |           73 |xxxxxxxxxxxxx |xxxxxxxxxxxxx |xxxxxxxxxxxxx |xxxxxxxxxxxxx |           70 |           70 |           70 |xxxxxxxxxxxxx |xxxxxxxxxxxxx |xxxxxxxxxxxxx |xxxxxxxxxxxxx |           73 |           73 |           73 |xxxxxxxxxxxxx |xxxxxxxxxxxxx |xxxxxxxxxxxxx |xxxxxxxxxxxxx |           70 |           70 |           70 |xxxxxxxxxxxxx |xxxxxxxxxxxxx |xxxxxxxxxxxxx |xxxxxxxxxxxxx |           73 |           73 |           73 |xxxxxxxxxxxxx |xxxxxxxxxxxxx |xxxxxxxxxxxxx |xxxxxxxxxxxxx |           70 |           70 |           70 |xxxxxxxxxxxxx |xxxxxxxxxxxxx |xxxxxxxxxxxxx |xxxxxxxxxxxxx |           76 |           76 |           76 |xxxxxxxxxxxxx |xxxxxxxxxxxxx |xxxxxxxxxxxxx |xxxxxxxxxxxxx |           73 |           73 |           73 |xxxxxxxxxxxxx |xxxxxxxxxxxxx |xxxxxxxxxxxxx |xxxxxxxxxxxxx |           76 |           76 |           76 |
bpred_bimod.jr_non_ras_hits.PP                   0 |            0 |            0 |xxxxxxxxxxxxx |xxxxxxxxxxxxx |xxxxxxxxxxxxx |xxxxxxxxxxxxx |            0 |            0 |            0 |xxxxxxxxxxxxx |xxxxxxxxxxxxx |xxxxxxxxxxxxx |xxxxxxxxxxxxx |            0 |            0 |            0 |xxxxxxxxxxxxx |xxxxxxxxxxxxx |xxxxxxxxxxxxx |xxxxxxxxxxxxx |            0 |            0 |            0 |xxxxxxxxxxxxx |xxxxxxxxxxxxx |xxxxxxxxxxxxx |xxxxxxxxxxxxx |            0 |            0 |            0 |xxxxxxxxxxxxx |xxxxxxxxxxxxx |xxxxxxxxxxxxx |xxxxxxxxxxxxx |            0 |            0 |            0 |xxxxxxxxxxxxx |xxxxxxxxxxxxx |xxxxxxxxxxxxx |xxxxxxxxxxxxx |            0 |            0 |            0 |xxxxxxxxxxxxx |xxxxxxxxxxxxx |xxxxxxxxxxxxx |xxxxxxxxxxxxx |            0 |            0 |            0 |xxxxxxxxxxxxx |xxxxxxxxxxxxx |xxxxxxxxxxxxx |xxxxxxxxxxxxx |            1 |            1 |            1 |xxxxxxxxxxxxx |xxxxxxxxxxxxx |xxxxxxxxxxxxx |xxxxxxxxxxxxx |            0 |            0 |            0 |xxxxxxxxxxxxx |xxxxxxxxxxxxx |xxxxxxxxxxxxx |xxxxxxxxxxxxx |            1 |            1 |            1 |
bpred_bimod.jr_non_ras_seen.PP                   1 |            1 |            1 |xxxxxxxxxxxxx |xxxxxxxxxxxxx |xxxxxxxxxxxxx |xxxxxxxxxxxxx |            0 |            0 |            0 |xxxxxxxxxxxxx |xxxxxxxxxxxxx |xxxxxxxxxxxxx |xxxxxxxxxxxxx |            1 |            1 |            1 |xxxxxxxxxxxxx |xxxxxxxxxxxxx |xxxxxxxxxxxxx |xxxxxxxxxxxxx |            0 |            0 |            0 |xxxxxxxxxxxxx |xxxxxxxxxxxxx |xxxxxxxxxxxxx |xxxxxxxxxxxxx |            1 |            1 |            1 |xxxxxxxxxxxxx |xxxxxxxxxxxxx |xxxxxxxxxxxxx |xxxxxxxxxxxxx |            0 |            0 |            0 |xxxxxxxxxxxxx |xxxxxxxxxxxxx |xxxxxxxxxxxxx |xxxxxxxxxxxxx |            1 |            1 |            1 |xxxxxxxxxxxxx |xxxxxxxxxxxxx |xxxxxxxxxxxxx |xxxxxxxxxxxxx |            0 |            0 |            0 |xxxxxxxxxxxxx |xxxxxxxxxxxxx |xxxxxxxxxxxxx |xxxxxxxxxxxxx |            2 |            2 |            2 |xxxxxxxxxxxxx |xxxxxxxxxxxxx |xxxxxxxxxxxxx |xxxxxxxxxxxxx |            1 |            1 |            1 |xxxxxxxxxxxxx |xxxxxxxxxxxxx |xxxxxxxxxxxxx |xxxxxxxxxxxxx |            2 |            2 |            2 |
bpred_bimod.bpred_addr_rate                 0.7779 |       0.7779 |       0.7779 |xxxxxxxxxxxxx |xxxxxxxxxxxxx |xxxxxxxxxxxxx |xxxxxxxxxxxxx |       0.7780 |       0.7780 |       0.7780 |xxxxxxxxxxxxx |xxxxxxxxxxxxx |xxxxxxxxxxxxx |xxxxxxxxxxxxx |       0.7796 |       0.7796 |       0.7796 |xxxxxxxxxxxxx |xxxxxxxxxxxxx |xxxxxxxxxxxxx |xxxxxxxxxxxxx |       0.7805 |       0.7805 |       0.7805 |xxxxxxxxxxxxx |xxxxxxxxxxxxx |xxxxxxxxxxxxx |xxxxxxxxxxxxx |       0.7827 |       0.7827 |       0.7827 |xxxxxxxxxxxxx |xxxxxxxxxxxxx |xxxxxxxxxxxxx |xxxxxxxxxxxxx |       0.7829 |       0.7829 |       0.7829 |xxxxxxxxxxxxx |xxxxxxxxxxxxx |xxxxxxxxxxxxx |xxxxxxxxxxxxx |       0.7847 |       0.7847 |       0.7847 |xxxxxxxxxxxxx |xxxxxxxxxxxxx |xxxxxxxxxxxxx |xxxxxxxxxxxxx |       0.7850 |       0.7850 |       0.7850 |xxxxxxxxxxxxx |xxxxxxxxxxxxx |xxxxxxxxxxxxx |xxxxxxxxxxxxx |       0.7863 |       0.7863 |       0.7863 |xxxxxxxxxxxxx |xxxxxxxxxxxxx |xxxxxxxxxxxxx |xxxxxxxxxxxxx |       0.7863 |       0.7863 |       0.7863 |xxxxxxxxxxxxx |xxxxxxxxxxxxx |xxxxxxxxxxxxx |xxxxxxxxxxxxx |       0.7876 |       0.7876 |       0.7876 |
bpred_bimod.bpred_dir_rate                  0.7788 |       0.7788 |       0.7789 |xxxxxxxxxxxxx |xxxxxxxxxxxxx |xxxxxxxxxxxxx |xxxxxxxxxxxxx |       0.7784 |       0.7784 |       0.7784 |xxxxxxxxxxxxx |xxxxxxxxxxxxx |xxxxxxxxxxxxx |xxxxxxxxxxxxx |       0.7798 |       0.7798 |       0.7799 |xxxxxxxxxxxxx |xxxxxxxxxxxxx |xxxxxxxxxxxxx |xxxxxxxxxxxxx |       0.7806 |       0.7806 |       0.7806 |xxxxxxxxxxxxx |xxxxxxxxxxxxx |xxxxxxxxxxxxx |xxxxxxxxxxxxx |       0.7828 |       0.7828 |       0.7828 |xxxxxxxxxxxxx |xxxxxxxxxxxxx |xxxxxxxxxxxxx |xxxxxxxxxxxxx |       0.7829 |       0.7829 |       0.7829 |xxxxxxxxxxxxx |xxxxxxxxxxxxx |xxxxxxxxxxxxx |xxxxxxxxxxxxx |       0.7847 |       0.7847 |       0.7847 |xxxxxxxxxxxxx |xxxxxxxxxxxxx |xxxxxxxxxxxxx |xxxxxxxxxxxxx |       0.7850 |       0.7850 |       0.7850 |xxxxxxxxxxxxx |xxxxxxxxxxxxx |xxxxxxxxxxxxx |xxxxxxxxxxxxx |       0.7863 |       0.7863 |       0.7863 |xxxxxxxxxxxxx |xxxxxxxxxxxxx |xxxxxxxxxxxxx |xxxxxxxxxxxxx |       0.7863 |       0.7863 |       0.7863 |xxxxxxxxxxxxx |xxxxxxxxxxxxx |xxxxxxxxxxxxx |xxxxxxxxxxxxx |       0.7876 |       0.7876 |       0.7876 |
bpred_bimod.bpred_jr_rate                   0.9844 |       0.9844 |       0.9844 |xxxxxxxxxxxxx |xxxxxxxxxxxxx |xxxxxxxxxxxxx |xxxxxxxxxxxxx |       0.9857 |       0.9857 |       0.9857 |xxxxxxxxxxxxx |xxxxxxxxxxxxx |xxxxxxxxxxxxx |xxxxxxxxxxxxx |       0.9726 |       0.9726 |       0.9726 |xxxxxxxxxxxxx |xxxxxxxxxxxxx |xxxxxxxxxxxxx |xxxxxxxxxxxxx |       0.9857 |       0.9857 |       0.9857 |xxxxxxxxxxxxx |xxxxxxxxxxxxx |xxxxxxxxxxxxx |xxxxxxxxxxxxx |       0.9726 |       0.9726 |       0.9726 |xxxxxxxxxxxxx |xxxxxxxxxxxxx |xxxxxxxxxxxxx |xxxxxxxxxxxxx |       0.9857 |       0.9857 |       0.9857 |xxxxxxxxxxxxx |xxxxxxxxxxxxx |xxxxxxxxxxxxx |xxxxxxxxxxxxx |       0.9726 |       0.9726 |       0.9726 |xxxxxxxxxxxxx |xxxxxxxxxxxxx |xxxxxxxxxxxxx |xxxxxxxxxxxxx |       0.9857 |       0.9857 |       0.9857 |xxxxxxxxxxxxx |xxxxxxxxxxxxx |xxxxxxxxxxxxx |xxxxxxxxxxxxx |       0.9868 |       0.9868 |       0.9868 |xxxxxxxxxxxxx |xxxxxxxxxxxxx |xxxxxxxxxxxxx |xxxxxxxxxxxxx |       0.9863 |       0.9863 |       0.9863 |xxxxxxxxxxxxx |xxxxxxxxxxxxx |xxxxxxxxxxxxx |xxxxxxxxxxxxx |       0.9868 |       0.9868 |       0.9868 |
bpred_bimod.bpred_jr_non_ras_rate.PP        0.0000 |       0.0000 |       0.0000 |xxxxxxxxxxxxx |xxxxxxxxxxxxx |xxxxxxxxxxxxx |xxxxxxxxxxxxx |      <error: |      <error: |      <error: |xxxxxxxxxxxxx |xxxxxxxxxxxxx |xxxxxxxxxxxxx |xxxxxxxxxxxxx |       0.0000 |       0.0000 |       0.0000 |xxxxxxxxxxxxx |xxxxxxxxxxxxx |xxxxxxxxxxxxx |xxxxxxxxxxxxx |      <error: |      <error: |      <error: |xxxxxxxxxxxxx |xxxxxxxxxxxxx |xxxxxxxxxxxxx |xxxxxxxxxxxxx |       0.0000 |       0.0000 |       0.0000 |xxxxxxxxxxxxx |xxxxxxxxxxxxx |xxxxxxxxxxxxx |xxxxxxxxxxxxx |      <error: |      <error: |      <error: |xxxxxxxxxxxxx |xxxxxxxxxxxxx |xxxxxxxxxxxxx |xxxxxxxxxxxxx |       0.0000 |       0.0000 |       0.0000 |xxxxxxxxxxxxx |xxxxxxxxxxxxx |xxxxxxxxxxxxx |xxxxxxxxxxxxx |      <error: |      <error: |      <error: |xxxxxxxxxxxxx |xxxxxxxxxxxxx |xxxxxxxxxxxxx |xxxxxxxxxxxxx |       0.5000 |       0.5000 |       0.5000 |xxxxxxxxxxxxx |xxxxxxxxxxxxx |xxxxxxxxxxxxx |xxxxxxxxxxxxx |       0.0000 |       0.0000 |       0.0000 |xxxxxxxxxxxxx |xxxxxxxxxxxxx |xxxxxxxxxxxxx |xxxxxxxxxxxxx |       0.5000 |       0.5000 |       0.5000 |
bpred_bimod.retstack_pushes                     65 |           65 |           65 |xxxxxxxxxxxxx |xxxxxxxxxxxxx |xxxxxxxxxxxxx |xxxxxxxxxxxxx |           72 |           72 |           72 |xxxxxxxxxxxxx |xxxxxxxxxxxxx |xxxxxxxxxxxxx |xxxxxxxxxxxxx |           74 |           74 |           74 |xxxxxxxxxxxxx |xxxxxxxxxxxxx |xxxxxxxxxxxxx |xxxxxxxxxxxxx |           72 |           72 |           72 |xxxxxxxxxxxxx |xxxxxxxxxxxxx |xxxxxxxxxxxxx |xxxxxxxxxxxxx |           74 |           74 |           74 |xxxxxxxxxxxxx |xxxxxxxxxxxxx |xxxxxxxxxxxxx |xxxxxxxxxxxxx |           72 |           72 |           72 |xxxxxxxxxxxxx |xxxxxxxxxxxxx |xxxxxxxxxxxxx |xxxxxxxxxxxxx |           74 |           74 |           74 |xxxxxxxxxxxxx |xxxxxxxxxxxxx |xxxxxxxxxxxxx |xxxxxxxxxxxxx |           72 |           72 |           72 |xxxxxxxxxxxxx |xxxxxxxxxxxxx |xxxxxxxxxxxxx |xxxxxxxxxxxxx |           76 |           76 |           76 |xxxxxxxxxxxxx |xxxxxxxxxxxxx |xxxxxxxxxxxxx |xxxxxxxxxxxxx |           74 |           74 |           74 |xxxxxxxxxxxxx |xxxxxxxxxxxxx |xxxxxxxxxxxxx |xxxxxxxxxxxxx |           76 |           76 |           76 |
bpred_bimod.retstack_pops                       63 |           63 |           63 |xxxxxxxxxxxxx |xxxxxxxxxxxxx |xxxxxxxxxxxxx |xxxxxxxxxxxxx |           70 |           70 |           70 |xxxxxxxxxxxxx |xxxxxxxxxxxxx |xxxxxxxxxxxxx |xxxxxxxxxxxxx |           72 |           72 |           72 |xxxxxxxxxxxxx |xxxxxxxxxxxxx |xxxxxxxxxxxxx |xxxxxxxxxxxxx |           70 |           70 |           70 |xxxxxxxxxxxxx |xxxxxxxxxxxxx |xxxxxxxxxxxxx |xxxxxxxxxxxxx |           72 |           72 |           72 |xxxxxxxxxxxxx |xxxxxxxxxxxxx |xxxxxxxxxxxxx |xxxxxxxxxxxxx |           70 |           70 |           70 |xxxxxxxxxxxxx |xxxxxxxxxxxxx |xxxxxxxxxxxxx |xxxxxxxxxxxxx |           72 |           72 |           72 |xxxxxxxxxxxxx |xxxxxxxxxxxxx |xxxxxxxxxxxxx |xxxxxxxxxxxxx |           70 |           70 |           70 |xxxxxxxxxxxxx |xxxxxxxxxxxxx |xxxxxxxxxxxxx |xxxxxxxxxxxxx |           74 |           74 |           74 |xxxxxxxxxxxxx |xxxxxxxxxxxxx |xxxxxxxxxxxxx |xxxxxxxxxxxxx |           72 |           72 |           72 |xxxxxxxxxxxxx |xxxxxxxxxxxxx |xxxxxxxxxxxxx |xxxxxxxxxxxxx |           74 |           74 |           74 |
bpred_bimod.used_ras.PP                         63 |           63 |           63 |xxxxxxxxxxxxx |xxxxxxxxxxxxx |xxxxxxxxxxxxx |xxxxxxxxxxxxx |           70 |           70 |           70 |xxxxxxxxxxxxx |xxxxxxxxxxxxx |xxxxxxxxxxxxx |xxxxxxxxxxxxx |           72 |           72 |           72 |xxxxxxxxxxxxx |xxxxxxxxxxxxx |xxxxxxxxxxxxx |xxxxxxxxxxxxx |           70 |           70 |           70 |xxxxxxxxxxxxx |xxxxxxxxxxxxx |xxxxxxxxxxxxx |xxxxxxxxxxxxx |           72 |           72 |           72 |xxxxxxxxxxxxx |xxxxxxxxxxxxx |xxxxxxxxxxxxx |xxxxxxxxxxxxx |           70 |           70 |           70 |xxxxxxxxxxxxx |xxxxxxxxxxxxx |xxxxxxxxxxxxx |xxxxxxxxxxxxx |           72 |           72 |           72 |xxxxxxxxxxxxx |xxxxxxxxxxxxx |xxxxxxxxxxxxx |xxxxxxxxxxxxx |           70 |           70 |           70 |xxxxxxxxxxxxx |xxxxxxxxxxxxx |xxxxxxxxxxxxx |xxxxxxxxxxxxx |           74 |           74 |           74 |xxxxxxxxxxxxx |xxxxxxxxxxxxx |xxxxxxxxxxxxx |xxxxxxxxxxxxx |           72 |           72 |           72 |xxxxxxxxxxxxx |xxxxxxxxxxxxx |xxxxxxxxxxxxx |xxxxxxxxxxxxx |           74 |           74 |           74 |
bpred_bimod.ras_hits.PP                         63 |           63 |           63 |xxxxxxxxxxxxx |xxxxxxxxxxxxx |xxxxxxxxxxxxx |xxxxxxxxxxxxx |           69 |           69 |           69 |xxxxxxxxxxxxx |xxxxxxxxxxxxx |xxxxxxxxxxxxx |xxxxxxxxxxxxx |           71 |           71 |           71 |xxxxxxxxxxxxx |xxxxxxxxxxxxx |xxxxxxxxxxxxx |xxxxxxxxxxxxx |           69 |           69 |           69 |xxxxxxxxxxxxx |xxxxxxxxxxxxx |xxxxxxxxxxxxx |xxxxxxxxxxxxx |           71 |           71 |           71 |xxxxxxxxxxxxx |xxxxxxxxxxxxx |xxxxxxxxxxxxx |xxxxxxxxxxxxx |           69 |           69 |           69 |xxxxxxxxxxxxx |xxxxxxxxxxxxx |xxxxxxxxxxxxx |xxxxxxxxxxxxx |           71 |           71 |           71 |xxxxxxxxxxxxx |xxxxxxxxxxxxx |xxxxxxxxxxxxx |xxxxxxxxxxxxx |           69 |           69 |           69 |xxxxxxxxxxxxx |xxxxxxxxxxxxx |xxxxxxxxxxxxx |xxxxxxxxxxxxx |           74 |           74 |           74 |xxxxxxxxxxxxx |xxxxxxxxxxxxx |xxxxxxxxxxxxx |xxxxxxxxxxxxx |           72 |           72 |           72 |xxxxxxxxxxxxx |xxxxxxxxxxxxx |xxxxxxxxxxxxx |xxxxxxxxxxxxx |           74 |           74 |           74 |
bpred_bimod.ras_rate.PP                     1.0000 |       1.0000 |       1.0000 |xxxxxxxxxxxxx |xxxxxxxxxxxxx |xxxxxxxxxxxxx |xxxxxxxxxxxxx |       0.9857 |       0.9857 |       0.9857 |xxxxxxxxxxxxx |xxxxxxxxxxxxx |xxxxxxxxxxxxx |xxxxxxxxxxxxx |       0.9861 |       0.9861 |       0.9861 |xxxxxxxxxxxxx |xxxxxxxxxxxxx |xxxxxxxxxxxxx |xxxxxxxxxxxxx |       0.9857 |       0.9857 |       0.9857 |xxxxxxxxxxxxx |xxxxxxxxxxxxx |xxxxxxxxxxxxx |xxxxxxxxxxxxx |       0.9861 |       0.9861 |       0.9861 |xxxxxxxxxxxxx |xxxxxxxxxxxxx |xxxxxxxxxxxxx |xxxxxxxxxxxxx |       0.9857 |       0.9857 |       0.9857 |xxxxxxxxxxxxx |xxxxxxxxxxxxx |xxxxxxxxxxxxx |xxxxxxxxxxxxx |       0.9861 |       0.9861 |       0.9861 |xxxxxxxxxxxxx |xxxxxxxxxxxxx |xxxxxxxxxxxxx |xxxxxxxxxxxxx |       0.9857 |       0.9857 |       0.9857 |xxxxxxxxxxxxx |xxxxxxxxxxxxx |xxxxxxxxxxxxx |xxxxxxxxxxxxx |       1.0000 |       1.0000 |       1.0000 |xxxxxxxxxxxxx |xxxxxxxxxxxxx |xxxxxxxxxxxxx |xxxxxxxxxxxxx |       1.0000 |       1.0000 |       1.0000 |xxxxxxxxxxxxx |xxxxxxxxxxxxx |xxxxxxxxxxxxx |xxxxxxxxxxxxx |       1.0000 |       1.0000 |       1.0000 |
bpred_2lev.lookups                   xxxxxxxxxxxxx |xxxxxxxxxxxxx |xxxxxxxxxxxxx |       112764 |       112764 |       112764 |       112764 |xxxxxxxxxxxxx |xxxxxxxxxxxxx |xxxxxxxxxxxxx |       243900 |       243900 |       243900 |       243900 |xxxxxxxxxxxxx |xxxxxxxxxxxxx |xxxxxxxxxxxxx |       529730 |       529730 |       529730 |       529730 |xxxxxxxxxxxxx |xxxxxxxxxxxxx |xxxxxxxxxxxxx |      1136718 |      1136718 |      1136718 |      1136718 |xxxxxxxxxxxxx |xxxxxxxxxxxxx |xxxxxxxxxxxxx |      2444391 |      2444391 |      2444391 |      2444391 |xxxxxxxxxxxxx |xxxxxxxxxxxxx |xxxxxxxxxxxxx |      5198377 |      5198377 |      5198377 |      5198377 |xxxxxxxxxxxxx |xxxxxxxxxxxxx |xxxxxxxxxxxxx |     11084954 |     11084954 |     11084954 |     11084954 |xxxxxxxxxxxxx |xxxxxxxxxxxxx |xxxxxxxxxxxxx |     23414623 |     23414623 |     23414623 |     23414623 |xxxxxxxxxxxxx |xxxxxxxxxxxxx |xxxxxxxxxxxxx |     49576559 |     49576559 |     49576559 |     49576559 |xxxxxxxxxxxxx |xxxxxxxxxxxxx |xxxxxxxxxxxxx |    104134371 |    104134371 |    104134371 |    104134371 |xxxxxxxxxxxxx |xxxxxxxxxxxxx |xxxxxxxxxxxxx |    219287247 |    219287247 |    219287247 |    219287247 |
[...]
bpred_2lev.bpred_jr_non_ras_rate.PP  xxxxxxxxxxxxx |xxxxxxxxxxxxx |xxxxxxxxxxxxx |       0.0000 |       0.0000 |       0.0000 |       0.0000 |xxxxxxxxxxxxx |xxxxxxxxxxxxx |xxxxxxxxxxxxx |      <error: |      <error: |      <error: |      <error: |xxxxxxxxxxxxx |xxxxxxxxxxxxx |xxxxxxxxxxxxx |       0.0000 |       0.0000 |       0.0000 |       0.0000 |xxxxxxxxxxxxx |xxxxxxxxxxxxx |xxxxxxxxxxxxx |      <error: |      <error: |      <error: |      <error: |xxxxxxxxxxxxx |xxxxxxxxxxxxx |xxxxxxxxxxxxx |       0.0000 |       0.0000 |       0.0000 |       0.0000 |xxxxxxxxxxxxx |xxxxxxxxxxxxx |xxxxxxxxxxxxx |      <error: |      <error: |      <error: |      <error: |xxxxxxxxxxxxx |xxxxxxxxxxxxx |xxxxxxxxxxxxx |       0.0000 |       0.0000 |       0.0000 |       0.0000 |xxxxxxxxxxxxx |xxxxxxxxxxxxx |xxxxxxxxxxxxx |      <error: |      <error: |      <error: |      <error: |xxxxxxxxxxxxx |xxxxxxxxxxxxx |xxxxxxxxxxxxx |       0.5000 |       0.5000 |       0.5000 |       0.5000 |xxxxxxxxxxxxx |xxxxxxxxxxxxx |xxxxxxxxxxxxx |       0.0000 |       0.0000 |       0.0000 |       0.0000 |xxxxxxxxxxxxx |xxxxxxxxxxxxx |xxxxxxxxxxxxx |       0.5000 |       0.5000 |       0.5000 |       0.5000 |
bpred_2lev.retstack_pushes           xxxxxxxxxxxxx |xxxxxxxxxxxxx |xxxxxxxxxxxxx |           65 |           65 |           65 |           65 |xxxxxxxxxxxxx |xxxxxxxxxxxxx |xxxxxxxxxxxxx |           72 |           72 |           72 |           72 |xxxxxxxxxxxxx |xxxxxxxxxxxxx |xxxxxxxxxxxxx |           74 |           74 |           74 |           74 |xxxxxxxxxxxxx |xxxxxxxxxxxxx |xxxxxxxxxxxxx |           72 |           72 |           72 |           72 |xxxxxxxxxxxxx |xxxxxxxxxxxxx |xxxxxxxxxxxxx |           74 |           74 |           74 |           74 |xxxxxxxxxxxxx |xxxxxxxxxxxxx |xxxxxxxxxxxxx |           72 |           72 |           72 |           72 |xxxxxxxxxxxxx |xxxxxxxxxxxxx |xxxxxxxxxxxxx |           74 |           74 |           74 |           74 |xxxxxxxxxxxxx |xxxxxxxxxxxxx |xxxxxxxxxxxxx |           72 |           72 |           72 |           72 |xxxxxxxxxxxxx |xxxxxxxxxxxxx |xxxxxxxxxxxxx |           76 |           76 |           76 |           76 |xxxxxxxxxxxxx |xxxxxxxxxxxxx |xxxxxxxxxxxxx |           74 |           74 |           74 |           74 |xxxxxxxxxxxxx |xxxxxxxxxxxxx |xxxxxxxxxxxxx |           76 |           76 |           76 |           76 |
bpred_2lev.retstack_pops             xxxxxxxxxxxxx |xxxxxxxxxxxxx |xxxxxxxxxxxxx |           63 |           63 |           63 |           63 |xxxxxxxxxxxxx |xxxxxxxxxxxxx |xxxxxxxxxxxxx |           70 |           70 |           70 |           70 |xxxxxxxxxxxxx |xxxxxxxxxxxxx |xxxxxxxxxxxxx |           72 |           72 |           72 |           72 |xxxxxxxxxxxxx |xxxxxxxxxxxxx |xxxxxxxxxxxxx |           70 |           70 |           70 |           70 |xxxxxxxxxxxxx |xxxxxxxxxxxxx |xxxxxxxxxxxxx |           72 |           72 |           72 |           72 |xxxxxxxxxxxxx |xxxxxxxxxxxxx |xxxxxxxxxxxxx |           70 |           70 |           70 |           70 |xxxxxxxxxxxxx |xxxxxxxxxxxxx |xxxxxxxxxxxxx |           72 |           72 |           72 |           72 |xxxxxxxxxxxxx |xxxxxxxxxxxxx |xxxxxxxxxxxxx |           70 |           70 |           70 |           70 |xxxxxxxxxxxxx |xxxxxxxxxxxxx |xxxxxxxxxxxxx |           74 |           74 |           74 |           74 |xxxxxxxxxxxxx |xxxxxxxxxxxxx |xxxxxxxxxxxxx |           72 |           72 |           72 |           72 |xxxxxxxxxxxxx |xxxxxxxxxxxxx |xxxxxxxxxxxxx |           74 |           74 |           74 |           74 |
bpred_2lev.used_ras.PP               xxxxxxxxxxxxx |xxxxxxxxxxxxx |xxxxxxxxxxxxx |           63 |           63 |           63 |           63 |xxxxxxxxxxxxx |xxxxxxxxxxxxx |xxxxxxxxxxxxx |           70 |           70 |           70 |           70 |xxxxxxxxxxxxx |xxxxxxxxxxxxx |xxxxxxxxxxxxx |           72 |           72 |           72 |           72 |xxxxxxxxxxxxx |xxxxxxxxxxxxx |xxxxxxxxxxxxx |           70 |           70 |           70 |           70 |xxxxxxxxxxxxx |xxxxxxxxxxxxx |xxxxxxxxxxxxx |           72 |           72 |           72 |           72 |xxxxxxxxxxxxx |xxxxxxxxxxxxx |xxxxxxxxxxxxx |           70 |           70 |           70 |           70 |xxxxxxxxxxxxx |xxxxxxxxxxxxx |xxxxxxxxxxxxx |           72 |           72 |           72 |           72 |xxxxxxxxxxxxx |xxxxxxxxxxxxx |xxxxxxxxxxxxx |           70 |           70 |           70 |           70 |xxxxxxxxxxxxx |xxxxxxxxxxxxx |xxxxxxxxxxxxx |           74 |           74 |           74 |           74 |xxxxxxxxxxxxx |xxxxxxxxxxxxx |xxxxxxxxxxxxx |           72 |           72 |           72 |           72 |xxxxxxxxxxxxx |xxxxxxxxxxxxx |xxxxxxxxxxxxx |           74 |           74 |           74 |           74 |
bpred_2lev.ras_hits.PP               xxxxxxxxxxxxx |xxxxxxxxxxxxx |xxxxxxxxxxxxx |           63 |           63 |           63 |           63 |xxxxxxxxxxxxx |xxxxxxxxxxxxx |xxxxxxxxxxxxx |           69 |           69 |           69 |           69 |xxxxxxxxxxxxx |xxxxxxxxxxxxx |xxxxxxxxxxxxx |           71 |           71 |           71 |           71 |xxxxxxxxxxxxx |xxxxxxxxxxxxx |xxxxxxxxxxxxx |           69 |           69 |           69 |           69 |xxxxxxxxxxxxx |xxxxxxxxxxxxx |xxxxxxxxxxxxx |           71 |           71 |           71 |           71 |xxxxxxxxxxxxx |xxxxxxxxxxxxx |xxxxxxxxxxxxx |           69 |           69 |           69 |           69 |xxxxxxxxxxxxx |xxxxxxxxxxxxx |xxxxxxxxxxxxx |           71 |           71 |           71 |           71 |xxxxxxxxxxxxx |xxxxxxxxxxxxx |xxxxxxxxxxxxx |           69 |           69 |           69 |           69 |xxxxxxxxxxxxx |xxxxxxxxxxxxx |xxxxxxxxxxxxx |           74 |           74 |           74 |           74 |xxxxxxxxxxxxx |xxxxxxxxxxxxx |xxxxxxxxxxxxx |           72 |           72 |           72 |           72 |xxxxxxxxxxxxx |xxxxxxxxxxxxx |xxxxxxxxxxxxx |           74 |           74 |           74 |           74 |
bpred_2lev.ras_rate.PP               xxxxxxxxxxxxx |xxxxxxxxxxxxx |xxxxxxxxxxxxx |       1.0000 |       1.0000 |       1.0000 |       1.0000 |xxxxxxxxxxxxx |xxxxxxxxxxxxx |xxxxxxxxxxxxx |       0.9857 |       0.9857 |       0.9857 |       0.9857 |xxxxxxxxxxxxx |xxxxxxxxxxxxx |xxxxxxxxxxxxx |       0.9861 |       0.9861 |       0.9861 |       0.9861 |xxxxxxxxxxxxx |xxxxxxxxxxxxx |xxxxxxxxxxxxx |       0.9857 |       0.9857 |       0.9857 |       0.9857 |xxxxxxxxxxxxx |xxxxxxxxxxxxx |xxxxxxxxxxxxx |       0.9861 |       0.9861 |       0.9861 |       0.9861 |xxxxxxxxxxxxx |xxxxxxxxxxxxx |xxxxxxxxxxxxx |       0.9857 |       0.9857 |       0.9857 |       0.9857 |xxxxxxxxxxxxx |xxxxxxxxxxxxx |xxxxxxxxxxxxx |       0.9861 |       0.9861 |       0.9861 |       0.9861 |xxxxxxxxxxxxx |xxxxxxxxxxxxx |xxxxxxxxxxxxx |       0.9857 |       0.9857 |       0.9857 |       0.9857 |xxxxxxxxxxxxx |xxxxxxxxxxxxx |xxxxxxxxxxxxx |       1.0000 |       1.0000 |       1.0000 |       1.0000 |xxxxxxxxxxxxx |xxxxxxxxxxxxx |xxxxxxxxxxxxx |       1.0000 |       1.0000 |       1.0000 |       1.0000 |xxxxxxxxxxxxx |xxxxxxxxxxxxx |xxxxxxxxxxxxx |       1.0000 |       1.0000 |       1.0000 |       1.0000 |

Command list: 
	sslittle-na-sstrix-gcc -Wall -O3 -funroll-loops -finline-functions  -DRANDOM_SIZE=4096 -DOFFSET=0 -DSORT=algorithm_n algorithm_n2072027887.c simpleMain.c -o algorithm_n2075784932
	sim-cache -cache:dl1 dl1:256:32:1:l -cache:dl2 dl2:131072:32:1:l -cache:il1 il1:256:32:1:l -cache:il2 dl2 algorithm_n2075784932
	sim-cache -cache:dl1 dl1:256:32:1:l -cache:dl2 dl2:65536:32:1:l -cache:il1 il1:256:32:1:l -cache:il2 dl2 algorithm_n2075784932
	sim-cache -cache:dl1 dl1:1:32:256:l -cache:dl2 dl2:1:32:131072:l -cache:il1 il1:1:32:256:l -cache:il2 dl2 algorithm_n2075784932
	sim-cache -cache:dl1 dl1:1:32:256:l -cache:dl2 dl2:1:32:65536:l -cache:il1 il1:1:32:256:l -cache:il2 dl2 algorithm_n2075784932
	sim-bpred -bpred bimod -bpred:bimod 512 algorithm_n2075784932
	sim-bpred -bpred bimod -bpred:bimod 1024 algorithm_n2075784932
	sim-bpred -bpred bimod -bpred:bimod 2048 algorithm_n2075784932
	sim-bpred -bpred 2lev -bpred:2lev 1 512 10 1 algorithm_n2075784932
	sim-bpred -bpred 2lev -bpred:2lev 1 1024 10 1 algorithm_n2075784932
	sim-bpred -bpred 2lev -bpred:2lev 1 2048 10 1 algorithm_n2075784932
	sim-bpred -bpred 2lev -bpred:2lev 1 4096 10 1 algorithm_n2075784932
	sslittle-na-sstrix-gcc -Wall -O3 -funroll-loops -finline-functions  -DRANDOM_SIZE=8192 -DOFFSET=0 -DSORT=algorithm_n algorithm_n2072027887.c simpleMain.c -o algorithm_n2075784932
	sim-cache -cache:dl1 dl1:256:32:1:l -cache:dl2 dl2:131072:32:1:l -cache:il1 il1:256:32:1:l -cache:il2 dl2 algorithm_n2075784932
	sim-cache -cache:dl1 dl1:256:32:1:l -cache:dl2 dl2:65536:32:1:l -cache:il1 il1:256:32:1:l -cache:il2 dl2 algorithm_n2075784932
	sim-cache -cache:dl1 dl1:1:32:256:l -cache:dl2 dl2:1:32:131072:l -cache:il1 il1:1:32:256:l -cache:il2 dl2 algorithm_n2075784932
	sim-cache -cache:dl1 dl1:1:32:256:l -cache:dl2 dl2:1:32:65536:l -cache:il1 il1:1:32:256:l -cache:il2 dl2 algorithm_n2075784932
	sim-bpred -bpred bimod -bpred:bimod 512 algorithm_n2075784932
	sim-bpred -bpred bimod -bpred:bimod 1024 algorithm_n2075784932
	sim-bpred -bpred bimod -bpred:bimod 2048 algorithm_n2075784932
	sim-bpred -bpred 2lev -bpred:2lev 1 512 10 1 algorithm_n2075784932
	sim-bpred -bpred 2lev -bpred:2lev 1 1024 10 1 algorithm_n2075784932
	sim-bpred -bpred 2lev -bpred:2lev 1 2048 10 1 algorithm_n2075784932
	sim-bpred -bpred 2lev -bpred:2lev 1 4096 10 1 algorithm_n2075784932
	sslittle-na-sstrix-gcc -Wall -O3 -funroll-loops -finline-functions  -DRANDOM_SIZE=16384 -DOFFSET=0 -DSORT=algorithm_n algorithm_n2072027887.c simpleMain.c -o algorithm_n2075784932
	sim-cache -cache:dl1 dl1:256:32:1:l -cache:dl2 dl2:131072:32:1:l -cache:il1 il1:256:32:1:l -cache:il2 dl2 algorithm_n2075784932
	sim-cache -cache:dl1 dl1:256:32:1:l -cache:dl2 dl2:65536:32:1:l -cache:il1 il1:256:32:1:l -cache:il2 dl2 algorithm_n2075784932
	sim-cache -cache:dl1 dl1:1:32:256:l -cache:dl2 dl2:1:32:131072:l -cache:il1 il1:1:32:256:l -cache:il2 dl2 algorithm_n2075784932
	sim-cache -cache:dl1 dl1:1:32:256:l -cache:dl2 dl2:1:32:65536:l -cache:il1 il1:1:32:256:l -cache:il2 dl2 algorithm_n2075784932
	sim-bpred -bpred bimod -bpred:bimod 512 algorithm_n2075784932
	sim-bpred -bpred bimod -bpred:bimod 1024 algorithm_n2075784932
	sim-bpred -bpred bimod -bpred:bimod 2048 algorithm_n2075784932
	sim-bpred -bpred 2lev -bpred:2lev 1 512 10 1 algorithm_n2075784932
	sim-bpred -bpred 2lev -bpred:2lev 1 1024 10 1 algorithm_n2075784932
	sim-bpred -bpred 2lev -bpred:2lev 1 2048 10 1 algorithm_n2075784932
	sim-bpred -bpred 2lev -bpred:2lev 1 4096 10 1 algorithm_n2075784932
	sslittle-na-sstrix-gcc -Wall -O3 -funroll-loops -finline-functions  -DRANDOM_SIZE=32768 -DOFFSET=0 -DSORT=algorithm_n algorithm_n2072027887.c simpleMain.c -o algorithm_n2075784932
	sim-cache -cache:dl1 dl1:256:32:1:l -cache:dl2 dl2:131072:32:1:l -cache:il1 il1:256:32:1:l -cache:il2 dl2 algorithm_n2075784932
	sim-cache -cache:dl1 dl1:256:32:1:l -cache:dl2 dl2:65536:32:1:l -cache:il1 il1:256:32:1:l -cache:il2 dl2 algorithm_n2075784932
	sim-cache -cache:dl1 dl1:1:32:256:l -cache:dl2 dl2:1:32:131072:l -cache:il1 il1:1:32:256:l -cache:il2 dl2 algorithm_n2075784932
	sim-cache -cache:dl1 dl1:1:32:256:l -cache:dl2 dl2:1:32:65536:l -cache:il1 il1:1:32:256:l -cache:il2 dl2 algorithm_n2075784932
	sim-bpred -bpred bimod -bpred:bimod 512 algorithm_n2075784932
	sim-bpred -bpred bimod -bpred:bimod 1024 algorithm_n2075784932
	sim-bpred -bpred bimod -bpred:bimod 2048 algorithm_n2075784932
	sim-bpred -bpred 2lev -bpred:2lev 1 512 10 1 algorithm_n2075784932
	sim-bpred -bpred 2lev -bpred:2lev 1 1024 10 1 algorithm_n2075784932
	sim-bpred -bpred 2lev -bpred:2lev 1 2048 10 1 algorithm_n2075784932
	sim-bpred -bpred 2lev -bpred:2lev 1 4096 10 1 algorithm_n2075784932
	sslittle-na-sstrix-gcc -Wall -O3 -funroll-loops -finline-functions  -DRANDOM_SIZE=65536 -DOFFSET=0 -DSORT=algorithm_n algorithm_n2072027887.c simpleMain.c -o algorithm_n2075784932
	sim-cache -cache:dl1 dl1:256:32:1:l -cache:dl2 dl2:131072:32:1:l -cache:il1 il1:256:32:1:l -cache:il2 dl2 algorithm_n2075784932
	sim-cache -cache:dl1 dl1:256:32:1:l -cache:dl2 dl2:65536:32:1:l -cache:il1 il1:256:32:1:l -cache:il2 dl2 algorithm_n2075784932
	sim-cache -cache:dl1 dl1:1:32:256:l -cache:dl2 dl2:1:32:131072:l -cache:il1 il1:1:32:256:l -cache:il2 dl2 algorithm_n2075784932
	sim-cache -cache:dl1 dl1:1:32:256:l -cache:dl2 dl2:1:32:65536:l -cache:il1 il1:1:32:256:l -cache:il2 dl2 algorithm_n2075784932
	sim-bpred -bpred bimod -bpred:bimod 512 algorithm_n2075784932
	sim-bpred -bpred bimod -bpred:bimod 1024 algorithm_n2075784932
	sim-bpred -bpred bimod -bpred:bimod 2048 algorithm_n2075784932
	sim-bpred -bpred 2lev -bpred:2lev 1 512 10 1 algorithm_n2075784932
	sim-bpred -bpred 2lev -bpred:2lev 1 1024 10 1 algorithm_n2075784932
	sim-bpred -bpred 2lev -bpred:2lev 1 2048 10 1 algorithm_n2075784932
	sim-bpred -bpred 2lev -bpred:2lev 1 4096 10 1 algorithm_n2075784932
	sslittle-na-sstrix-gcc -Wall -O3 -funroll-loops -finline-functions  -DRANDOM_SIZE=131072 -DOFFSET=0 -DSORT=algorithm_n algorithm_n2072027887.c simpleMain.c -o algorithm_n2075784932
	sim-cache -cache:dl1 dl1:256:32:1:l -cache:dl2 dl2:131072:32:1:l -cache:il1 il1:256:32:1:l -cache:il2 dl2 algorithm_n2075784932
	sim-cache -cache:dl1 dl1:256:32:1:l -cache:dl2 dl2:65536:32:1:l -cache:il1 il1:256:32:1:l -cache:il2 dl2 algorithm_n2075784932
	sim-cache -cache:dl1 dl1:1:32:256:l -cache:dl2 dl2:1:32:131072:l -cache:il1 il1:1:32:256:l -cache:il2 dl2 algorithm_n2075784932
	sim-cache -cache:dl1 dl1:1:32:256:l -cache:dl2 dl2:1:32:65536:l -cache:il1 il1:1:32:256:l -cache:il2 dl2 algorithm_n2075784932
	sim-bpred -bpred bimod -bpred:bimod 512 algorithm_n2075784932
	sim-bpred -bpred bimod -bpred:bimod 1024 algorithm_n2075784932
	sim-bpred -bpred bimod -bpred:bimod 2048 algorithm_n2075784932
	sim-bpred -bpred 2lev -bpred:2lev 1 512 10 1 algorithm_n2075784932
	sim-bpred -bpred 2lev -bpred:2lev 1 1024 10 1 algorithm_n2075784932
	sim-bpred -bpred 2lev -bpred:2lev 1 2048 10 1 algorithm_n2075784932
	sim-bpred -bpred 2lev -bpred:2lev 1 4096 10 1 algorithm_n2075784932
	sslittle-na-sstrix-gcc -Wall -O3 -funroll-loops -finline-functions  -DRANDOM_SIZE=262144 -DOFFSET=0 -DSORT=algorithm_n algorithm_n2072027887.c simpleMain.c -o algorithm_n2075784932
	sim-cache -cache:dl1 dl1:256:32:1:l -cache:dl2 dl2:131072:32:1:l -cache:il1 il1:256:32:1:l -cache:il2 dl2 algorithm_n2075784932
	sim-cache -cache:dl1 dl1:256:32:1:l -cache:dl2 dl2:65536:32:1:l -cache:il1 il1:256:32:1:l -cache:il2 dl2 algorithm_n2075784932
	sim-cache -cache:dl1 dl1:1:32:256:l -cache:dl2 dl2:1:32:131072:l -cache:il1 il1:1:32:256:l -cache:il2 dl2 algorithm_n2075784932
	sim-cache -cache:dl1 dl1:1:32:256:l -cache:dl2 dl2:1:32:65536:l -cache:il1 il1:1:32:256:l -cache:il2 dl2 algorithm_n2075784932
	sim-bpred -bpred bimod -bpred:bimod 512 algorithm_n2075784932
	sim-bpred -bpred bimod -bpred:bimod 1024 algorithm_n2075784932
	sim-bpred -bpred bimod -bpred:bimod 2048 algorithm_n2075784932
	sim-bpred -bpred 2lev -bpred:2lev 1 512 10 1 algorithm_n2075784932
	sim-bpred -bpred 2lev -bpred:2lev 1 1024 10 1 algorithm_n2075784932
	sim-bpred -bpred 2lev -bpred:2lev 1 2048 10 1 algorithm_n2075784932
	sim-bpred -bpred 2lev -bpred:2lev 1 4096 10 1 algorithm_n2075784932
	sslittle-na-sstrix-gcc -Wall -O3 -funroll-loops -finline-functions  -DRANDOM_SIZE=524288 -DOFFSET=0 -DSORT=algorithm_n algorithm_n2072027887.c simpleMain.c -o algorithm_n2075784932
	sim-cache -cache:dl1 dl1:256:32:1:l -cache:dl2 dl2:131072:32:1:l -cache:il1 il1:256:32:1:l -cache:il2 dl2 algorithm_n2075784932
	sim-cache -cache:dl1 dl1:256:32:1:l -cache:dl2 dl2:65536:32:1:l -cache:il1 il1:256:32:1:l -cache:il2 dl2 algorithm_n2075784932
	sim-cache -cache:dl1 dl1:1:32:256:l -cache:dl2 dl2:1:32:131072:l -cache:il1 il1:1:32:256:l -cache:il2 dl2 algorithm_n2075784932
	sim-cache -cache:dl1 dl1:1:32:256:l -cache:dl2 dl2:1:32:65536:l -cache:il1 il1:1:32:256:l -cache:il2 dl2 algorithm_n2075784932
	sim-bpred -bpred bimod -bpred:bimod 512 algorithm_n2075784932
	sim-bpred -bpred bimod -bpred:bimod 1024 algorithm_n2075784932
	sim-bpred -bpred bimod -bpred:bimod 2048 algorithm_n2075784932
	sim-bpred -bpred 2lev -bpred:2lev 1 512 10 1 algorithm_n2075784932
	sim-bpred -bpred 2lev -bpred:2lev 1 1024 10 1 algorithm_n2075784932
	sim-bpred -bpred 2lev -bpred:2lev 1 2048 10 1 algorithm_n2075784932
	sim-bpred -bpred 2lev -bpred:2lev 1 4096 10 1 algorithm_n2075784932
	sslittle-na-sstrix-gcc -Wall -O3 -funroll-loops -finline-functions  -DRANDOM_SIZE=1048576 -DOFFSET=0 -DSORT=algorithm_n algorithm_n2072027887.c simpleMain.c -o algorithm_n2075784932
	sim-cache -cache:dl1 dl1:256:32:1:l -cache:dl2 dl2:131072:32:1:l -cache:il1 il1:256:32:1:l -cache:il2 dl2 algorithm_n2075784932
	sim-cache -cache:dl1 dl1:256:32:1:l -cache:dl2 dl2:65536:32:1:l -cache:il1 il1:256:32:1:l -cache:il2 dl2 algorithm_n2075784932
	sim-cache -cache:dl1 dl1:1:32:256:l -cache:dl2 dl2:1:32:131072:l -cache:il1 il1:1:32:256:l -cache:il2 dl2 algorithm_n2075784932
	sim-cache -cache:dl1 dl1:1:32:256:l -cache:dl2 dl2:1:32:65536:l -cache:il1 il1:1:32:256:l -cache:il2 dl2 algorithm_n2075784932
	sim-bpred -bpred bimod -bpred:bimod 512 algorithm_n2075784932
	sim-bpred -bpred bimod -bpred:bimod 1024 algorithm_n2075784932
	sim-bpred -bpred bimod -bpred:bimod 2048 algorithm_n2075784932
	sim-bpred -bpred 2lev -bpred:2lev 1 512 10 1 algorithm_n2075784932
	sim-bpred -bpred 2lev -bpred:2lev 1 1024 10 1 algorithm_n2075784932
	sim-bpred -bpred 2lev -bpred:2lev 1 2048 10 1 algorithm_n2075784932
	sim-bpred -bpred 2lev -bpred:2lev 1 4096 10 1 algorithm_n2075784932
	sslittle-na-sstrix-gcc -Wall -O3 -funroll-loops -finline-functions  -DRANDOM_SIZE=2097152 -DOFFSET=0 -DSORT=algorithm_n algorithm_n2072027887.c simpleMain.c -o algorithm_n2075784932
	sim-cache -cache:dl1 dl1:256:32:1:l -cache:dl2 dl2:131072:32:1:l -cache:il1 il1:256:32:1:l -cache:il2 dl2 algorithm_n2075784932
	sim-cache -cache:dl1 dl1:256:32:1:l -cache:dl2 dl2:65536:32:1:l -cache:il1 il1:256:32:1:l -cache:il2 dl2 algorithm_n2075784932
	sim-cache -cache:dl1 dl1:1:32:256:l -cache:dl2 dl2:1:32:131072:l -cache:il1 il1:1:32:256:l -cache:il2 dl2 algorithm_n2075784932
	sim-cache -cache:dl1 dl1:1:32:256:l -cache:dl2 dl2:1:32:65536:l -cache:il1 il1:1:32:256:l -cache:il2 dl2 algorithm_n2075784932
	sim-bpred -bpred bimod -bpred:bimod 512 algorithm_n2075784932
	sim-bpred -bpred bimod -bpred:bimod 1024 algorithm_n2075784932
	sim-bpred -bpred bimod -bpred:bimod 2048 algorithm_n2075784932
	sim-bpred -bpred 2lev -bpred:2lev 1 512 10 1 algorithm_n2075784932
	sim-bpred -bpred 2lev -bpred:2lev 1 1024 10 1 algorithm_n2075784932
	sim-bpred -bpred 2lev -bpred:2lev 1 2048 10 1 algorithm_n2075784932
	sim-bpred -bpred 2lev -bpred:2lev 1 4096 10 1 algorithm_n2075784932
	sslittle-na-sstrix-gcc -Wall -O3 -funroll-loops -finline-functions  -DRANDOM_SIZE=4194304 -DOFFSET=0 -DSORT=algorithm_n algorithm_n2072027887.c simpleMain.c -o algorithm_n2075784932
	sim-cache -cache:dl1 dl1:256:32:1:l -cache:dl2 dl2:131072:32:1:l -cache:il1 il1:256:32:1:l -cache:il2 dl2 algorithm_n2075784932
	sim-cache -cache:dl1 dl1:256:32:1:l -cache:dl2 dl2:65536:32:1:l -cache:il1 il1:256:32:1:l -cache:il2 dl2 algorithm_n2075784932
	sim-cache -cache:dl1 dl1:1:32:256:l -cache:dl2 dl2:1:32:131072:l -cache:il1 il1:1:32:256:l -cache:il2 dl2 algorithm_n2075784932
	sim-cache -cache:dl1 dl1:1:32:256:l -cache:dl2 dl2:1:32:65536:l -cache:il1 il1:1:32:256:l -cache:il2 dl2 algorithm_n2075784932
	sim-bpred -bpred bimod -bpred:bimod 512 algorithm_n2075784932
	sim-bpred -bpred bimod -bpred:bimod 1024 algorithm_n2075784932
	sim-bpred -bpred bimod -bpred:bimod 2048 algorithm_n2075784932
	sim-bpred -bpred 2lev -bpred:2lev 1 512 10 1 algorithm_n2075784932
	sim-bpred -bpred 2lev -bpred:2lev 1 1024 10 1 algorithm_n2075784932
	sim-bpred -bpred 2lev -bpred:2lev 1 2048 10 1 algorithm_n2075784932
	sim-bpred -bpred 2lev -bpred:2lev 1 4096 10 1 algorithm_n2075784932
