Wed Jul  6 18:41:10 2005
Run as: "./do_simple -c random.org4 -o 4 aligned_memory_tuned_radixsort"
-------------------------------------------------------------------------------------------------
sim-cache                                     4096 |         4096 |         4096 |         4096 |         8192 |         8192 |         8192 |         8192 |        16384 |        16384 |        16384 |        16384 |        32768 |        32768 |        32768 |        32768 |        65536 |        65536 |        65536 |        65536 |       131072 |       131072 |       131072 |       131072 |       262144 |       262144 |       262144 |       262144 |       524288 |       524288 |       524288 |       524288 |      1048576 |      1048576 |      1048576 |      1048576 |      2097152 |      2097152 |      2097152 |      2097152 |      4194304 |      4194304 |      4194304 |      4194304 |
-cache:dl1 dl1:256:32:1:l -cache:dl2 dl2:131072:32:1:l -cache:il1 il1:256:32:1:l -cache:il2 dl2
-cache:dl1 dl1:256:32:1:l -cache:dl2 dl2:65536:32:1:l -cache:il1 il1:256:32:1:l -cache:il2 dl2
-cache:dl1 dl1:1:32:256:l -cache:dl2 dl2:1:32:131072:l -cache:il1 il1:1:32:256:l -cache:il2 dl2
-cache:dl1 dl1:1:32:256:l -cache:dl2 dl2:1:32:65536:l -cache:il1 il1:1:32:256:l -cache:il2 dl2
-------------------------------------------------------------------------------------------------
sim_num_insn                                378847 |       378847 |       378847 |       378847 |       744419 |       744419 |       744419 |       744419 |      1475557 |      1475557 |      1475557 |      1475557 |      2937830 |      2937830 |      2937830 |      2937830 |      5862374 |      5862374 |      5862374 |      5862374 |     11711463 |     11711463 |     11711463 |     11711463 |     23409639 |     23409639 |     23409639 |     23409639 |     46818467 |     46818467 |     46818467 |     46818467 |     93611171 |     93611171 |     93611171 |     93611171 |    187205803 |    187205803 |    187205803 |    187205803 |    374395059 |    374395059 |    374395059 |    374395059 |
sim_num_refs                                138963 |       138963 |       138963 |       138963 |       270035 |       270035 |       270035 |       270035 |       532179 |       532179 |       532179 |       532179 |      1056467 |      1056467 |      1056467 |      1056467 |      2105043 |      2105043 |      2105043 |      2105043 |      4202195 |      4202195 |      4202195 |      4202195 |      8396499 |      8396499 |      8396499 |      8396499 |     16794369 |     16794369 |     16794369 |     16794369 |     33571585 |     33571585 |     33571585 |     33571585 |     67132161 |     67132161 |     67132161 |     67132161 |    134253313 |    134253313 |    134253313 |    134253313 |
sim_elapsed_time                                 1 |            1 |           10 |            5 |            1 |            1 |           15 |            8 |            1 |            1 |           26 |           13 |            1 |            1 |           47 |           23 |            2 |            2 |           86 |           42 |            4 |            3 |          157 |           70 |            8 |            7 |          267 |           94 |           15 |           15 |          352 |          100 |           30 |           29 |          370 |          118 |           60 |           59 |          402 |          150 |          151 |          125 |          509 |          248 |
sim_inst_rate                          378847.0000 |  378847.0000 |   37884.7000 |   75769.4000 |  744419.0000 |  744419.0000 |   49627.9333 |   93052.3750 | 1475557.0000 | 1475557.0000 |   56752.1923 |  113504.3846 | 2937830.0000 | 2937830.0000 |   62507.0213 |  127731.7391 | 2931187.0000 | 2931187.0000 |   68167.1395 |  139580.3333 | 2927865.7500 | 3903821.0000 |   74595.3057 |  167306.6143 | 2926204.8750 | 3344234.1429 |   87676.5506 |  249038.7128 | 3121231.1333 | 3121231.1333 |  133007.0085 |  468184.6700 | 3120372.3667 | 3227971.4138 |  253003.1649 |  793315.0085 | 3120096.7167 | 3172979.7119 |  465686.0771 | 1248038.6867 | 2479437.4768 | 2995160.4720 |  735550.2141 | 1509657.4960 |
il1.accesses                                378847 |       378847 |       378847 |       378847 |       744419 |       744419 |       744419 |       744419 |      1475557 |      1475557 |      1475557 |      1475557 |      2937830 |      2937830 |      2937830 |      2937830 |      5862374 |      5862374 |      5862374 |      5862374 |     11711463 |     11711463 |     11711463 |     11711463 |     23409639 |     23409639 |     23409639 |     23409639 |     46818467 |     46818467 |     46818467 |     46818467 |     93611171 |     93611171 |     93611171 |     93611171 |    187205803 |    187205803 |    187205803 |    187205803 |    374395059 |    374395059 |    374395059 |    374395059 |
il1.hits                                    378317 |       378317 |       378414 |       378414 |       743888 |       743888 |       743986 |       743986 |      1475017 |      1475017 |      1475123 |      1475123 |      2937295 |      2937295 |      2937394 |      2937394 |      5861839 |      5861839 |      5861938 |      5861938 |     11710928 |     11710928 |     11711027 |     11711027 |     23409104 |     23409104 |     23409203 |     23409203 |     46817889 |     46817889 |     46817996 |     46817996 |     93610593 |     93610593 |     93610700 |     93610700 |    187205225 |    187205225 |    187205332 |    187205332 |    374394481 |    374394481 |    374394588 |    374394588 |
il1.misses                                     530 |          530 |          433 |          433 |          531 |          531 |          433 |          433 |          540 |          540 |          434 |          434 |          535 |          535 |          436 |          436 |          535 |          535 |          436 |          436 |          535 |          535 |          436 |          436 |          535 |          535 |          436 |          436 |          578 |          578 |          471 |          471 |          578 |          578 |          471 |          471 |          578 |          578 |          471 |          471 |          578 |          578 |          471 |          471 |
il1.replacements                               311 |          311 |          177 |          177 |          313 |          313 |          177 |          177 |          318 |          318 |          178 |          178 |          318 |          318 |          180 |          180 |          318 |          318 |          180 |          180 |          318 |          318 |          180 |          180 |          318 |          318 |          180 |          180 |          350 |          350 |          215 |          215 |          350 |          350 |          215 |          215 |          350 |          350 |          215 |          215 |          350 |          350 |          215 |          215 |
il1.writebacks                                   0 |            0 |            0 |            0 |            0 |            0 |            0 |            0 |            0 |            0 |            0 |            0 |            0 |            0 |            0 |            0 |            0 |            0 |            0 |            0 |            0 |            0 |            0 |            0 |            0 |            0 |            0 |            0 |            0 |            0 |            0 |            0 |            0 |            0 |            0 |            0 |            0 |            0 |            0 |            0 |            0 |            0 |            0 |            0 |
il1.invalidations                                0 |            0 |            0 |            0 |            0 |            0 |            0 |            0 |            0 |            0 |            0 |            0 |            0 |            0 |            0 |            0 |            0 |            0 |            0 |            0 |            0 |            0 |            0 |            0 |            0 |            0 |            0 |            0 |            0 |            0 |            0 |            0 |            0 |            0 |            0 |            0 |            0 |            0 |            0 |            0 |            0 |            0 |            0 |            0 |
il1.miss_rate                               0.0014 |       0.0014 |       0.0011 |       0.0011 |       0.0007 |       0.0007 |       0.0006 |       0.0006 |       0.0004 |       0.0004 |       0.0003 |       0.0003 |       0.0002 |       0.0002 |       0.0001 |       0.0001 |       0.0001 |       0.0001 |       0.0001 |       0.0001 |       0.0000 |       0.0000 |       0.0000 |       0.0000 |       0.0000 |       0.0000 |       0.0000 |       0.0000 |       0.0000 |       0.0000 |       0.0000 |       0.0000 |       0.0000 |       0.0000 |       0.0000 |       0.0000 |       0.0000 |       0.0000 |       0.0000 |       0.0000 |       0.0000 |       0.0000 |       0.0000 |       0.0000 |
il1.repl_rate                               0.0008 |       0.0008 |       0.0005 |       0.0005 |       0.0004 |       0.0004 |       0.0002 |       0.0002 |       0.0002 |       0.0002 |       0.0001 |       0.0001 |       0.0001 |       0.0001 |       0.0001 |       0.0001 |       0.0001 |       0.0001 |       0.0000 |       0.0000 |       0.0000 |       0.0000 |       0.0000 |       0.0000 |       0.0000 |       0.0000 |       0.0000 |       0.0000 |       0.0000 |       0.0000 |       0.0000 |       0.0000 |       0.0000 |       0.0000 |       0.0000 |       0.0000 |       0.0000 |       0.0000 |       0.0000 |       0.0000 |       0.0000 |       0.0000 |       0.0000 |       0.0000 |
il1.wb_rate                                 0.0000 |       0.0000 |       0.0000 |       0.0000 |       0.0000 |       0.0000 |       0.0000 |       0.0000 |       0.0000 |       0.0000 |       0.0000 |       0.0000 |       0.0000 |       0.0000 |       0.0000 |       0.0000 |       0.0000 |       0.0000 |       0.0000 |       0.0000 |       0.0000 |       0.0000 |       0.0000 |       0.0000 |       0.0000 |       0.0000 |       0.0000 |       0.0000 |       0.0000 |       0.0000 |       0.0000 |       0.0000 |       0.0000 |       0.0000 |       0.0000 |       0.0000 |       0.0000 |       0.0000 |       0.0000 |       0.0000 |       0.0000 |       0.0000 |       0.0000 |       0.0000 |
il1.inv_rate                                0.0000 |       0.0000 |       0.0000 |       0.0000 |       0.0000 |       0.0000 |       0.0000 |       0.0000 |       0.0000 |       0.0000 |       0.0000 |       0.0000 |       0.0000 |       0.0000 |       0.0000 |       0.0000 |       0.0000 |       0.0000 |       0.0000 |       0.0000 |       0.0000 |       0.0000 |       0.0000 |       0.0000 |       0.0000 |       0.0000 |       0.0000 |       0.0000 |       0.0000 |       0.0000 |       0.0000 |       0.0000 |       0.0000 |       0.0000 |       0.0000 |       0.0000 |       0.0000 |       0.0000 |       0.0000 |       0.0000 |       0.0000 |       0.0000 |       0.0000 |       0.0000 |
dl1.accesses                                155429 |       155429 |       155429 |       155429 |       302885 |       302885 |       302885 |       302885 |       597797 |       597797 |       597797 |       597797 |      1187621 |      1187621 |      1187621 |      1187621 |      2367269 |      2367269 |      2367269 |      2367269 |      4726565 |      4726565 |      4726565 |      4726565 |      9445157 |      9445157 |      9445157 |      9445157 |     18891603 |     18891603 |     18891603 |     18891603 |     37765971 |     37765971 |     37765971 |     37765971 |     75520851 |     75520851 |     75520851 |     75520851 |    151030611 |    151030611 |    151030611 |    151030611 |
dl1.hits                                    139088 |       139088 |       144071 |       144071 |       269393 |       269393 |       280860 |       280860 |       531678 |       531678 |       554258 |       554258 |      1054240 |      1054240 |      1101197 |      1101197 |      2099888 |      2099888 |      2195363 |      2195363 |      4162287 |      4162287 |      4383511 |      4383511 |      8254467 |      8254467 |      8759706 |      8759706 |     16459476 |     16459476 |     17520087 |     17520087 |     33079900 |     33079900 |     35025058 |     35025058 |     66537516 |     66537516 |     70040257 |     70040257 |    133493138 |    133493138 |    140068330 |    140068330 |
dl1.misses                                   16341 |        16341 |        11358 |        11358 |        33492 |        33492 |        22025 |        22025 |        66119 |        66119 |        43539 |        43539 |       133381 |       133381 |        86424 |        86424 |       267381 |       267381 |       171906 |       171906 |       564278 |       564278 |       343054 |       343054 |      1190690 |      1190690 |       685451 |       685451 |      2432127 |      2432127 |      1371516 |      1371516 |      4686071 |      4686071 |      2740913 |      2740913 |      8983335 |      8983335 |      5480594 |      5480594 |     17537473 |     17537473 |     10962281 |     10962281 |
dl1.replacements                             16085 |        16085 |        11102 |        11102 |        33236 |        33236 |        21769 |        21769 |        65863 |        65863 |        43283 |        43283 |       133125 |       133125 |        86168 |        86168 |       267125 |       267125 |       171650 |       171650 |       564022 |       564022 |       342798 |       342798 |      1190434 |      1190434 |       685195 |       685195 |      2431871 |      2431871 |      1371260 |      1371260 |      4685815 |      4685815 |      2740657 |      2740657 |      8983079 |      8983079 |      5480338 |      5480338 |     17537217 |     17537217 |     10962025 |     10962025 |
dl1.writebacks                               13465 |        13465 |         8586 |         8586 |        27832 |        27832 |        16674 |        16674 |        55016 |        55016 |        33058 |        33058 |       111221 |       111221 |        65701 |        65701 |       223377 |       223377 |       130703 |       130703 |       476355 |       476355 |       260895 |       260895 |      1015249 |      1015249 |       521371 |       521371 |      2080938 |      2080938 |      1043206 |      1043206 |      3983730 |      3983730 |      2084923 |      2084923 |      7579344 |      7579344 |      4169244 |      4169244 |     14728858 |     14728858 |      8340212 |      8340212 |
dl1.invalidations                                0 |            0 |            0 |            0 |            0 |            0 |            0 |            0 |            0 |            0 |            0 |            0 |            0 |            0 |            0 |            0 |            0 |            0 |            0 |            0 |            0 |            0 |            0 |            0 |            0 |            0 |            0 |            0 |            0 |            0 |            0 |            0 |            0 |            0 |            0 |            0 |            0 |            0 |            0 |            0 |            0 |            0 |            0 |            0 |
dl1.miss_rate                               0.1051 |       0.1051 |       0.0731 |       0.0731 |       0.1106 |       0.1106 |       0.0727 |       0.0727 |       0.1106 |       0.1106 |       0.0728 |       0.0728 |       0.1123 |       0.1123 |       0.0728 |       0.0728 |       0.1129 |       0.1129 |       0.0726 |       0.0726 |       0.1194 |       0.1194 |       0.0726 |       0.0726 |       0.1261 |       0.1261 |       0.0726 |       0.0726 |       0.1287 |       0.1287 |       0.0726 |       0.0726 |       0.1241 |       0.1241 |       0.0726 |       0.0726 |       0.1190 |       0.1190 |       0.0726 |       0.0726 |       0.1161 |       0.1161 |       0.0726 |       0.0726 |
dl1.repl_rate                               0.1035 |       0.1035 |       0.0714 |       0.0714 |       0.1097 |       0.1097 |       0.0719 |       0.0719 |       0.1102 |       0.1102 |       0.0724 |       0.0724 |       0.1121 |       0.1121 |       0.0726 |       0.0726 |       0.1128 |       0.1128 |       0.0725 |       0.0725 |       0.1193 |       0.1193 |       0.0725 |       0.0725 |       0.1260 |       0.1260 |       0.0725 |       0.0725 |       0.1287 |       0.1287 |       0.0726 |       0.0726 |       0.1241 |       0.1241 |       0.0726 |       0.0726 |       0.1189 |       0.1189 |       0.0726 |       0.0726 |       0.1161 |       0.1161 |       0.0726 |       0.0726 |
dl1.wb_rate                                 0.0866 |       0.0866 |       0.0552 |       0.0552 |       0.0919 |       0.0919 |       0.0551 |       0.0551 |       0.0920 |       0.0920 |       0.0553 |       0.0553 |       0.0937 |       0.0937 |       0.0553 |       0.0553 |       0.0944 |       0.0944 |       0.0552 |       0.0552 |       0.1008 |       0.1008 |       0.0552 |       0.0552 |       0.1075 |       0.1075 |       0.0552 |       0.0552 |       0.1102 |       0.1102 |       0.0552 |       0.0552 |       0.1055 |       0.1055 |       0.0552 |       0.0552 |       0.1004 |       0.1004 |       0.0552 |       0.0552 |       0.0975 |       0.0975 |       0.0552 |       0.0552 |
dl1.inv_rate                                0.0000 |       0.0000 |       0.0000 |       0.0000 |       0.0000 |       0.0000 |       0.0000 |       0.0000 |       0.0000 |       0.0000 |       0.0000 |       0.0000 |       0.0000 |       0.0000 |       0.0000 |       0.0000 |       0.0000 |       0.0000 |       0.0000 |       0.0000 |       0.0000 |       0.0000 |       0.0000 |       0.0000 |       0.0000 |       0.0000 |       0.0000 |       0.0000 |       0.0000 |       0.0000 |       0.0000 |       0.0000 |       0.0000 |       0.0000 |       0.0000 |       0.0000 |       0.0000 |       0.0000 |       0.0000 |       0.0000 |       0.0000 |       0.0000 |       0.0000 |       0.0000 |
dl2.accesses                                 30336 |        30336 |        20377 |        20377 |        61855 |        61855 |        39132 |        39132 |       121675 |       121675 |        77031 |        77031 |       245137 |       245137 |       152561 |       152561 |       491293 |       491293 |       303045 |       303045 |      1041168 |      1041168 |       604385 |       604385 |      2206474 |      2206474 |      1207258 |      1207258 |      4513643 |      4513643 |      2415193 |      2415193 |      8670379 |      8670379 |      4826307 |      4826307 |     16563257 |     16563257 |      9650309 |      9650309 |     32266909 |     32266909 |     19302964 |     19302964 |
dl2.hits                                     28419 |        28419 |        18477 |        18477 |        58913 |        58913 |        36208 |        36208 |       116684 |       116684 |        72057 |        72057 |       236045 |       236045 |       143491 |       143491 |       474009 |       474009 |       285783 |       285783 |      1007500 |      1007500 |       570739 |       570739 |      2140038 |      2139054 |      1140844 |      1138442 |      4213434 |      4032238 |      2279518 |      1816957 |      7773202 |      7378347 |      3632603 |      3539428 |     13978250 |     13878211 |      7078421 |      7037726 |     26957419 |     26769137 |     14079994 |     14060828 |
dl2.misses                                    1917 |         1917 |         1900 |         1900 |         2942 |         2942 |         2924 |         2924 |         4991 |         4991 |         4974 |         4974 |         9092 |         9092 |         9070 |         9070 |        17284 |        17284 |        17262 |        17262 |        33668 |        33668 |        33646 |        33646 |        66436 |        67420 |        66414 |        68816 |       300209 |       481405 |       135675 |       598236 |       897177 |      1292032 |      1193704 |      1286879 |      2585007 |      2685046 |      2571888 |      2612583 |      5309490 |      5497772 |      5222970 |      5242136 |
dl2.replacements                               130 |          130 |            0 |            0 |          129 |          129 |            0 |            0 |          128 |          128 |            0 |            0 |          133 |          133 |            0 |            0 |          133 |          133 |            0 |            0 |          133 |          133 |            0 |            0 |          133 |         1941 |            0 |         3280 |       200396 |       415869 |         4603 |       532700 |       766105 |      1226496 |      1062632 |      1221343 |      2453935 |      2619510 |      2440816 |      2547047 |      5178418 |      5432236 |      5091898 |      5176600 |
dl2.writebacks                                  66 |           66 |            0 |            0 |           64 |           64 |            0 |            0 |           64 |           64 |            0 |            0 |           64 |           64 |            0 |            0 |           64 |           64 |            0 |            0 |           64 |           64 |            0 |            0 |           64 |         1172 |            0 |         3040 |       158129 |       301228 |         4293 |       297012 |       596111 |       651255 |       591903 |       624719 |      1299372 |      1373369 |      1248069 |      1280930 |      2704393 |      2869937 |      2560343 |      2593268 |
dl2.invalidations                                0 |            0 |            0 |            0 |            0 |            0 |            0 |            0 |            0 |            0 |            0 |            0 |            0 |            0 |            0 |            0 |            0 |            0 |            0 |            0 |            0 |            0 |            0 |            0 |            0 |            0 |            0 |            0 |            0 |            0 |            0 |            0 |            0 |            0 |            0 |            0 |            0 |            0 |            0 |            0 |            0 |            0 |            0 |            0 |
dl2.miss_rate                               0.0632 |       0.0632 |       0.0932 |       0.0932 |       0.0476 |       0.0476 |       0.0747 |       0.0747 |       0.0410 |       0.0410 |       0.0646 |       0.0646 |       0.0371 |       0.0371 |       0.0595 |       0.0595 |       0.0352 |       0.0352 |       0.0570 |       0.0570 |       0.0323 |       0.0323 |       0.0557 |       0.0557 |       0.0301 |       0.0306 |       0.0550 |       0.0570 |       0.0665 |       0.1067 |       0.0562 |       0.2477 |       0.1035 |       0.1490 |       0.2473 |       0.2666 |       0.1561 |       0.1621 |       0.2665 |       0.2707 |       0.1645 |       0.1704 |       0.2706 |       0.2716 |
dl2.repl_rate                               0.0043 |       0.0043 |       0.0000 |       0.0000 |       0.0021 |       0.0021 |       0.0000 |       0.0000 |       0.0011 |       0.0011 |       0.0000 |       0.0000 |       0.0005 |       0.0005 |       0.0000 |       0.0000 |       0.0003 |       0.0003 |       0.0000 |       0.0000 |       0.0001 |       0.0001 |       0.0000 |       0.0000 |       0.0001 |       0.0009 |       0.0000 |       0.0027 |       0.0444 |       0.0921 |       0.0019 |       0.2206 |       0.0884 |       0.1415 |       0.2202 |       0.2531 |       0.1482 |       0.1582 |       0.2529 |       0.2639 |       0.1605 |       0.1684 |       0.2638 |       0.2682 |
dl2.wb_rate                                 0.0022 |       0.0022 |       0.0000 |       0.0000 |       0.0010 |       0.0010 |       0.0000 |       0.0000 |       0.0005 |       0.0005 |       0.0000 |       0.0000 |       0.0003 |       0.0003 |       0.0000 |       0.0000 |       0.0001 |       0.0001 |       0.0000 |       0.0000 |       0.0001 |       0.0001 |       0.0000 |       0.0000 |       0.0000 |       0.0005 |       0.0000 |       0.0025 |       0.0350 |       0.0667 |       0.0018 |       0.1230 |       0.0688 |       0.0751 |       0.1226 |       0.1294 |       0.0784 |       0.0829 |       0.1293 |       0.1327 |       0.0838 |       0.0889 |       0.1326 |       0.1343 |
dl2.inv_rate                                0.0000 |       0.0000 |       0.0000 |       0.0000 |       0.0000 |       0.0000 |       0.0000 |       0.0000 |       0.0000 |       0.0000 |       0.0000 |       0.0000 |       0.0000 |       0.0000 |       0.0000 |       0.0000 |       0.0000 |       0.0000 |       0.0000 |       0.0000 |       0.0000 |       0.0000 |       0.0000 |       0.0000 |       0.0000 |       0.0000 |       0.0000 |       0.0000 |       0.0000 |       0.0000 |       0.0000 |       0.0000 |       0.0000 |       0.0000 |       0.0000 |       0.0000 |       0.0000 |       0.0000 |       0.0000 |       0.0000 |       0.0000 |       0.0000 |       0.0000 |       0.0000 |
itlb.accesses                               378847 |       378847 |       378847 |       378847 |       744419 |       744419 |       744419 |       744419 |      1475557 |      1475557 |      1475557 |      1475557 |      2937830 |      2937830 |      2937830 |      2937830 |      5862374 |      5862374 |      5862374 |      5862374 |     11711463 |     11711463 |     11711463 |     11711463 |     23409639 |     23409639 |     23409639 |     23409639 |     46818467 |     46818467 |     46818467 |     46818467 |     93611171 |     93611171 |     93611171 |     93611171 |    187205803 |    187205803 |    187205803 |    187205803 |    374395059 |    374395059 |    374395059 |    374395059 |
itlb.hits                                   378838 |       378838 |       378838 |       378838 |       744410 |       744410 |       744410 |       744410 |      1475548 |      1475548 |      1475548 |      1475548 |      2937821 |      2937821 |      2937821 |      2937821 |      5862365 |      5862365 |      5862365 |      5862365 |     11711454 |     11711454 |     11711454 |     11711454 |     23409630 |     23409630 |     23409630 |     23409630 |     46818458 |     46818458 |     46818458 |     46818458 |     93611162 |     93611162 |     93611162 |     93611162 |    187205794 |    187205794 |    187205794 |    187205794 |    374395050 |    374395050 |    374395050 |    374395050 |
itlb.misses                                      9 |            9 |            9 |            9 |            9 |            9 |            9 |            9 |            9 |            9 |            9 |            9 |            9 |            9 |            9 |            9 |            9 |            9 |            9 |            9 |            9 |            9 |            9 |            9 |            9 |            9 |            9 |            9 |            9 |            9 |            9 |            9 |            9 |            9 |            9 |            9 |            9 |            9 |            9 |            9 |            9 |            9 |            9 |            9 |
itlb.replacements                                0 |            0 |            0 |            0 |            0 |            0 |            0 |            0 |            0 |            0 |            0 |            0 |            0 |            0 |            0 |            0 |            0 |            0 |            0 |            0 |            0 |            0 |            0 |            0 |            0 |            0 |            0 |            0 |            0 |            0 |            0 |            0 |            0 |            0 |            0 |            0 |            0 |            0 |            0 |            0 |            0 |            0 |            0 |            0 |
itlb.writebacks                                  0 |            0 |            0 |            0 |            0 |            0 |            0 |            0 |            0 |            0 |            0 |            0 |            0 |            0 |            0 |            0 |            0 |            0 |            0 |            0 |            0 |            0 |            0 |            0 |            0 |            0 |            0 |            0 |            0 |            0 |            0 |            0 |            0 |            0 |            0 |            0 |            0 |            0 |            0 |            0 |            0 |            0 |            0 |            0 |
itlb.invalidations                               0 |            0 |            0 |            0 |            0 |            0 |            0 |            0 |            0 |            0 |            0 |            0 |            0 |            0 |            0 |            0 |            0 |            0 |            0 |            0 |            0 |            0 |            0 |            0 |            0 |            0 |            0 |            0 |            0 |            0 |            0 |            0 |            0 |            0 |            0 |            0 |            0 |            0 |            0 |            0 |            0 |            0 |            0 |            0 |
itlb.miss_rate                              0.0000 |       0.0000 |       0.0000 |       0.0000 |       0.0000 |       0.0000 |       0.0000 |       0.0000 |       0.0000 |       0.0000 |       0.0000 |       0.0000 |       0.0000 |       0.0000 |       0.0000 |       0.0000 |       0.0000 |       0.0000 |       0.0000 |       0.0000 |       0.0000 |       0.0000 |       0.0000 |       0.0000 |       0.0000 |       0.0000 |       0.0000 |       0.0000 |       0.0000 |       0.0000 |       0.0000 |       0.0000 |       0.0000 |       0.0000 |       0.0000 |       0.0000 |       0.0000 |       0.0000 |       0.0000 |       0.0000 |       0.0000 |       0.0000 |       0.0000 |       0.0000 |
itlb.repl_rate                              0.0000 |       0.0000 |       0.0000 |       0.0000 |       0.0000 |       0.0000 |       0.0000 |       0.0000 |       0.0000 |       0.0000 |       0.0000 |       0.0000 |       0.0000 |       0.0000 |       0.0000 |       0.0000 |       0.0000 |       0.0000 |       0.0000 |       0.0000 |       0.0000 |       0.0000 |       0.0000 |       0.0000 |       0.0000 |       0.0000 |       0.0000 |       0.0000 |       0.0000 |       0.0000 |       0.0000 |       0.0000 |       0.0000 |       0.0000 |       0.0000 |       0.0000 |       0.0000 |       0.0000 |       0.0000 |       0.0000 |       0.0000 |       0.0000 |       0.0000 |       0.0000 |
itlb.wb_rate                                0.0000 |       0.0000 |       0.0000 |       0.0000 |       0.0000 |       0.0000 |       0.0000 |       0.0000 |       0.0000 |       0.0000 |       0.0000 |       0.0000 |       0.0000 |       0.0000 |       0.0000 |       0.0000 |       0.0000 |       0.0000 |       0.0000 |       0.0000 |       0.0000 |       0.0000 |       0.0000 |       0.0000 |       0.0000 |       0.0000 |       0.0000 |       0.0000 |       0.0000 |       0.0000 |       0.0000 |       0.0000 |       0.0000 |       0.0000 |       0.0000 |       0.0000 |       0.0000 |       0.0000 |       0.0000 |       0.0000 |       0.0000 |       0.0000 |       0.0000 |       0.0000 |
itlb.inv_rate                               0.0000 |       0.0000 |       0.0000 |       0.0000 |       0.0000 |       0.0000 |       0.0000 |       0.0000 |       0.0000 |       0.0000 |       0.0000 |       0.0000 |       0.0000 |       0.0000 |       0.0000 |       0.0000 |       0.0000 |       0.0000 |       0.0000 |       0.0000 |       0.0000 |       0.0000 |       0.0000 |       0.0000 |       0.0000 |       0.0000 |       0.0000 |       0.0000 |       0.0000 |       0.0000 |       0.0000 |       0.0000 |       0.0000 |       0.0000 |       0.0000 |       0.0000 |       0.0000 |       0.0000 |       0.0000 |       0.0000 |       0.0000 |       0.0000 |       0.0000 |       0.0000 |
dtlb.accesses                               155429 |       155429 |       155429 |       155429 |       302885 |       302885 |       302885 |       302885 |       597797 |       597797 |       597797 |       597797 |      1187621 |      1187621 |      1187621 |      1187621 |      2367269 |      2367269 |      2367269 |      2367269 |      4726565 |      4726565 |      4726565 |      4726565 |      9445157 |      9445157 |      9445157 |      9445157 |     18891603 |     18891603 |     18891603 |     18891603 |     37765971 |     37765971 |     37765971 |     37765971 |     75520851 |     75520851 |     75520851 |     75520851 |    151030611 |    151030611 |    151030611 |    151030611 |
dtlb.hits                                   155413 |       155413 |       155413 |       155413 |       302861 |       302861 |       302861 |       302861 |       597757 |       597757 |       597757 |       597757 |      1187549 |      1187549 |      1187549 |      1187549 |      2367110 |      2367110 |      2367110 |      2367110 |      4716131 |      4716131 |      4716131 |      4716131 |      8920220 |      8920220 |      8920220 |      8920220 |     17568006 |     17568006 |     17568006 |     17568006 |     34520809 |     34520809 |     34520809 |     34520809 |     68347244 |     68347244 |     68347244 |     68347244 |    135891979 |    135891979 |    135891979 |    135891979 |
dtlb.misses                                     16 |           16 |           16 |           16 |           24 |           24 |           24 |           24 |           40 |           40 |           40 |           40 |           72 |           72 |           72 |           72 |          159 |          159 |          159 |          159 |        10434 |        10434 |        10434 |        10434 |       524937 |       524937 |       524937 |       524937 |      1323597 |      1323597 |      1323597 |      1323597 |      3245162 |      3245162 |      3245162 |      3245162 |      7173607 |      7173607 |      7173607 |      7173607 |     15138632 |     15138632 |     15138632 |     15138632 |
dtlb.replacements                                0 |            0 |            0 |            0 |            0 |            0 |            0 |            0 |            0 |            0 |            0 |            0 |            0 |            0 |            0 |            0 |           31 |           31 |           31 |           31 |        10306 |        10306 |        10306 |        10306 |       524809 |       524809 |       524809 |       524809 |      1323469 |      1323469 |      1323469 |      1323469 |      3245034 |      3245034 |      3245034 |      3245034 |      7173479 |      7173479 |      7173479 |      7173479 |     15138504 |     15138504 |     15138504 |     15138504 |
dtlb.writebacks                                  0 |            0 |            0 |            0 |            0 |            0 |            0 |            0 |            0 |            0 |            0 |            0 |            0 |            0 |            0 |            0 |           24 |           24 |           24 |           24 |         9774 |         9774 |         9774 |         9774 |       523527 |       523527 |       523527 |       523527 |      1320910 |      1320910 |      1320910 |      1320910 |      3239989 |      3239989 |      3239989 |      3239989 |      7163331 |      7163331 |      7163331 |      7163331 |     15118123 |     15118123 |     15118123 |     15118123 |
dtlb.invalidations                               0 |            0 |            0 |            0 |            0 |            0 |            0 |            0 |            0 |            0 |            0 |            0 |            0 |            0 |            0 |            0 |            0 |            0 |            0 |            0 |            0 |            0 |            0 |            0 |            0 |            0 |            0 |            0 |            0 |            0 |            0 |            0 |            0 |            0 |            0 |            0 |            0 |            0 |            0 |            0 |            0 |            0 |            0 |            0 |
dtlb.miss_rate                              0.0001 |       0.0001 |       0.0001 |       0.0001 |       0.0001 |       0.0001 |       0.0001 |       0.0001 |       0.0001 |       0.0001 |       0.0001 |       0.0001 |       0.0001 |       0.0001 |       0.0001 |       0.0001 |       0.0001 |       0.0001 |       0.0001 |       0.0001 |       0.0022 |       0.0022 |       0.0022 |       0.0022 |       0.0556 |       0.0556 |       0.0556 |       0.0556 |       0.0701 |       0.0701 |       0.0701 |       0.0701 |       0.0859 |       0.0859 |       0.0859 |       0.0859 |       0.0950 |       0.0950 |       0.0950 |       0.0950 |       0.1002 |       0.1002 |       0.1002 |       0.1002 |
dtlb.repl_rate                              0.0000 |       0.0000 |       0.0000 |       0.0000 |       0.0000 |       0.0000 |       0.0000 |       0.0000 |       0.0000 |       0.0000 |       0.0000 |       0.0000 |       0.0000 |       0.0000 |       0.0000 |       0.0000 |       0.0000 |       0.0000 |       0.0000 |       0.0000 |       0.0022 |       0.0022 |       0.0022 |       0.0022 |       0.0556 |       0.0556 |       0.0556 |       0.0556 |       0.0701 |       0.0701 |       0.0701 |       0.0701 |       0.0859 |       0.0859 |       0.0859 |       0.0859 |       0.0950 |       0.0950 |       0.0950 |       0.0950 |       0.1002 |       0.1002 |       0.1002 |       0.1002 |
dtlb.wb_rate                                0.0000 |       0.0000 |       0.0000 |       0.0000 |       0.0000 |       0.0000 |       0.0000 |       0.0000 |       0.0000 |       0.0000 |       0.0000 |       0.0000 |       0.0000 |       0.0000 |       0.0000 |       0.0000 |       0.0000 |       0.0000 |       0.0000 |       0.0000 |       0.0021 |       0.0021 |       0.0021 |       0.0021 |       0.0554 |       0.0554 |       0.0554 |       0.0554 |       0.0699 |       0.0699 |       0.0699 |       0.0699 |       0.0858 |       0.0858 |       0.0858 |       0.0858 |       0.0949 |       0.0949 |       0.0949 |       0.0949 |       0.1001 |       0.1001 |       0.1001 |       0.1001 |
dtlb.inv_rate                               0.0000 |       0.0000 |       0.0000 |       0.0000 |       0.0000 |       0.0000 |       0.0000 |       0.0000 |       0.0000 |       0.0000 |       0.0000 |       0.0000 |       0.0000 |       0.0000 |       0.0000 |       0.0000 |       0.0000 |       0.0000 |       0.0000 |       0.0000 |       0.0000 |       0.0000 |       0.0000 |       0.0000 |       0.0000 |       0.0000 |       0.0000 |       0.0000 |       0.0000 |       0.0000 |       0.0000 |       0.0000 |       0.0000 |       0.0000 |       0.0000 |       0.0000 |       0.0000 |       0.0000 |       0.0000 |       0.0000 |       0.0000 |       0.0000 |       0.0000 |       0.0000 |
ld_text_base                            0x00400000 |   0x00400000 |   0x00400000 |   0x00400000 |   0x00400000 |   0x00400000 |   0x00400000 |   0x00400000 |   0x00400000 |   0x00400000 |   0x00400000 |   0x00400000 |   0x00400000 |   0x00400000 |   0x00400000 |   0x00400000 |   0x00400000 |   0x00400000 |   0x00400000 |   0x00400000 |   0x00400000 |   0x00400000 |   0x00400000 |   0x00400000 |   0x00400000 |   0x00400000 |   0x00400000 |   0x00400000 |   0x00400000 |   0x00400000 |   0x00400000 |   0x00400000 |   0x00400000 |   0x00400000 |   0x00400000 |   0x00400000 |   0x00400000 |   0x00400000 |   0x00400000 |   0x00400000 |   0x00400000 |   0x00400000 |   0x00400000 |   0x00400000 |
ld_text_size                                 74416 |        74416 |        74416 |        74416 |        74448 |        74448 |        74448 |        74448 |        74464 |        74464 |        74464 |        74464 |        74480 |        74480 |        74480 |        74480 |        74480 |        74480 |        74480 |        74480 |        74480 |        74480 |        74480 |        74480 |        74480 |        74480 |        74480 |        74480 |        74480 |        74480 |        74480 |        74480 |        74480 |        74480 |        74480 |        74480 |        74480 |        74480 |        74480 |        74480 |        74480 |        74480 |        74480 |        74480 |
ld_data_base                            0x10000000 |   0x10000000 |   0x10000000 |   0x10000000 |   0x10000000 |   0x10000000 |   0x10000000 |   0x10000000 |   0x10000000 |   0x10000000 |   0x10000000 |   0x10000000 |   0x10000000 |   0x10000000 |   0x10000000 |   0x10000000 |   0x10000000 |   0x10000000 |   0x10000000 |   0x10000000 |   0x10000000 |   0x10000000 |   0x10000000 |   0x10000000 |   0x10000000 |   0x10000000 |   0x10000000 |   0x10000000 |   0x10000000 |   0x10000000 |   0x10000000 |   0x10000000 |   0x10000000 |   0x10000000 |   0x10000000 |   0x10000000 |   0x10000000 |   0x10000000 |   0x10000000 |   0x10000000 |   0x10000000 |   0x10000000 |   0x10000000 |   0x10000000 |
ld_data_size                                  8192 |         8192 |         8192 |         8192 |         8192 |         8192 |         8192 |         8192 |         8192 |         8192 |         8192 |         8192 |         8192 |         8192 |         8192 |         8192 |         8192 |         8192 |         8192 |         8192 |         8192 |         8192 |         8192 |         8192 |         8192 |         8192 |         8192 |         8192 |         8192 |         8192 |         8192 |         8192 |         8192 |         8192 |         8192 |         8192 |         8192 |         8192 |         8192 |         8192 |         8192 |         8192 |         8192 |         8192 |
ld_stack_base                           0x7fffc000 |   0x7fffc000 |   0x7fffc000 |   0x7fffc000 |   0x7fffc000 |   0x7fffc000 |   0x7fffc000 |   0x7fffc000 |   0x7fffc000 |   0x7fffc000 |   0x7fffc000 |   0x7fffc000 |   0x7fffc000 |   0x7fffc000 |   0x7fffc000 |   0x7fffc000 |   0x7fffc000 |   0x7fffc000 |   0x7fffc000 |   0x7fffc000 |   0x7fffc000 |   0x7fffc000 |   0x7fffc000 |   0x7fffc000 |   0x7fffc000 |   0x7fffc000 |   0x7fffc000 |   0x7fffc000 |   0x7fffc000 |   0x7fffc000 |   0x7fffc000 |   0x7fffc000 |   0x7fffc000 |   0x7fffc000 |   0x7fffc000 |   0x7fffc000 |   0x7fffc000 |   0x7fffc000 |   0x7fffc000 |   0x7fffc000 |   0x7fffc000 |   0x7fffc000 |   0x7fffc000 |   0x7fffc000 |
ld_stack_size                                16384 |        16384 |        16384 |        16384 |        16384 |        16384 |        16384 |        16384 |        16384 |        16384 |        16384 |        16384 |        16384 |        16384 |        16384 |        16384 |        16384 |        16384 |        16384 |        16384 |        16384 |        16384 |        16384 |        16384 |        16384 |        16384 |        16384 |        16384 |        16384 |        16384 |        16384 |        16384 |        16384 |        16384 |        16384 |        16384 |        16384 |        16384 |        16384 |        16384 |        16384 |        16384 |        16384 |        16384 |
ld_prog_entry                           0x00400140 |   0x00400140 |   0x00400140 |   0x00400140 |   0x00400140 |   0x00400140 |   0x00400140 |   0x00400140 |   0x00400140 |   0x00400140 |   0x00400140 |   0x00400140 |   0x00400140 |   0x00400140 |   0x00400140 |   0x00400140 |   0x00400140 |   0x00400140 |   0x00400140 |   0x00400140 |   0x00400140 |   0x00400140 |   0x00400140 |   0x00400140 |   0x00400140 |   0x00400140 |   0x00400140 |   0x00400140 |   0x00400140 |   0x00400140 |   0x00400140 |   0x00400140 |   0x00400140 |   0x00400140 |   0x00400140 |   0x00400140 |   0x00400140 |   0x00400140 |   0x00400140 |   0x00400140 |   0x00400140 |   0x00400140 |   0x00400140 |   0x00400140 |
ld_environ_base                         0x7fff8000 |   0x7fff8000 |   0x7fff8000 |   0x7fff8000 |   0x7fff8000 |   0x7fff8000 |   0x7fff8000 |   0x7fff8000 |   0x7fff8000 |   0x7fff8000 |   0x7fff8000 |   0x7fff8000 |   0x7fff8000 |   0x7fff8000 |   0x7fff8000 |   0x7fff8000 |   0x7fff8000 |   0x7fff8000 |   0x7fff8000 |   0x7fff8000 |   0x7fff8000 |   0x7fff8000 |   0x7fff8000 |   0x7fff8000 |   0x7fff8000 |   0x7fff8000 |   0x7fff8000 |   0x7fff8000 |   0x7fff8000 |   0x7fff8000 |   0x7fff8000 |   0x7fff8000 |   0x7fff8000 |   0x7fff8000 |   0x7fff8000 |   0x7fff8000 |   0x7fff8000 |   0x7fff8000 |   0x7fff8000 |   0x7fff8000 |   0x7fff8000 |   0x7fff8000 |   0x7fff8000 |   0x7fff8000 |
ld_target_big_endian                             0 |            0 |            0 |            0 |            0 |            0 |            0 |            0 |            0 |            0 |            0 |            0 |            0 |            0 |            0 |            0 |            0 |            0 |            0 |            0 |            0 |            0 |            0 |            0 |            0 |            0 |            0 |            0 |            0 |            0 |            0 |            0 |            0 |            0 |            0 |            0 |            0 |            0 |            0 |            0 |            0 |            0 |            0 |            0 |
mem.page_count                                  35 |           35 |           35 |           35 |           43 |           43 |           43 |           43 |           59 |           59 |           59 |           59 |           91 |           91 |           91 |           91 |          155 |          155 |          155 |          155 |          283 |          283 |          283 |          283 |          539 |          539 |          539 |          539 |         1057 |         1057 |         1057 |         1057 |         2081 |         2081 |         2081 |         2081 |         4135 |         4135 |         4135 |         4135 |         8243 |         8243 |         8243 |         8243 |
mem.page_mem                                  140k |         140k |         140k |         140k |         172k |         172k |         172k |         172k |         236k |         236k |         236k |         236k |         364k |         364k |         364k |         364k |         620k |         620k |         620k |         620k |        1132k |        1132k |        1132k |        1132k |        2156k |        2156k |        2156k |        2156k |        4228k |        4228k |        4228k |        4228k |        8324k |        8324k |        8324k |        8324k |       16540k |       16540k |       16540k |       16540k |       32972k |       32972k |       32972k |       32972k |
mem.ptab_misses                                 35 |           35 |           35 |           35 |           43 |           43 |           43 |           43 |           59 |           59 |           59 |           59 |           91 |           91 |           91 |           91 |          155 |          155 |          155 |          155 |          283 |          283 |          283 |          283 |          539 |          539 |          539 |          539 |         1060 |         1060 |         1060 |         1060 |        16424 |        16424 |        16424 |        16424 |        18478 |        18478 |        18478 |        18478 |        22586 |        22586 |        22586 |        22586 |
mem.ptab_accesses                          2287348 |      2287348 |      2287348 |      2287348 |      4044740 |      4044740 |      4044740 |      4044740 |      7559212 |      7559212 |      7559212 |      7559212 |     14588048 |     14588048 |     14588048 |     14588048 |     28645520 |     28645520 |     28645520 |     28645520 |     56760468 |     56760468 |     56760468 |     56760468 |    112990356 |    112990356 |    112990356 |    112990356 |    225518560 |    225518560 |    225518560 |    225518560 |    450438112 |    450438112 |    450438112 |    450438112 |    900326400 |    900326400 |    900326400 |    900326400 |   1800102944 |   1800102944 |   1800102944 |   1800102944 |
mem.ptab_miss_rate                          0.0000 |       0.0000 |       0.0000 |       0.0000 |       0.0000 |       0.0000 |       0.0000 |       0.0000 |       0.0000 |       0.0000 |       0.0000 |       0.0000 |       0.0000 |       0.0000 |       0.0000 |       0.0000 |       0.0000 |       0.0000 |       0.0000 |       0.0000 |       0.0000 |       0.0000 |       0.0000 |       0.0000 |       0.0000 |       0.0000 |       0.0000 |       0.0000 |       0.0000 |       0.0000 |       0.0000 |       0.0000 |       0.0000 |       0.0000 |       0.0000 |       0.0000 |       0.0000 |       0.0000 |       0.0000 |       0.0000 |       0.0000 |       0.0000 |       0.0000 |       0.0000 |
-------------------------------------------------------------------------------------------------
sim-bpred                                     4096 |         4096 |         4096 |         4096 |         4096 |         4096 |         4096 |         8192 |         8192 |         8192 |         8192 |         8192 |         8192 |         8192 |        16384 |        16384 |        16384 |        16384 |        16384 |        16384 |        16384 |        32768 |        32768 |        32768 |        32768 |        32768 |        32768 |        32768 |        65536 |        65536 |        65536 |        65536 |        65536 |        65536 |        65536 |       131072 |       131072 |       131072 |       131072 |       131072 |       131072 |       131072 |       262144 |       262144 |       262144 |       262144 |       262144 |       262144 |       262144 |       524288 |       524288 |       524288 |       524288 |       524288 |       524288 |       524288 |      1048576 |      1048576 |      1048576 |      1048576 |      1048576 |      1048576 |      1048576 |      2097152 |      2097152 |      2097152 |      2097152 |      2097152 |      2097152 |      2097152 |      4194304 |      4194304 |      4194304 |      4194304 |      4194304 |      4194304 |      4194304 |
-bpred bimod -bpred:bimod 512
-bpred bimod -bpred:bimod 1024
-bpred bimod -bpred:bimod 2048
-bpred 2lev -bpred:2lev 1 512 10 1
-bpred 2lev -bpred:2lev 1 1024 10 1
-bpred 2lev -bpred:2lev 1 2048 10 1
-bpred 2lev -bpred:2lev 1 4096 10 1
-------------------------------------------------------------------------------------------------
sim_num_insn                                378847 |       378847 |       378847 |       378847 |       378847 |       378847 |       378847 |       744419 |       744419 |       744419 |       744419 |       744419 |       744419 |       744419 |      1475557 |      1475557 |      1475557 |      1475557 |      1475557 |      1475557 |      1475557 |      2937830 |      2937830 |      2937830 |      2937830 |      2937830 |      2937830 |      2937830 |      5862374 |      5862374 |      5862374 |      5862374 |      5862374 |      5862374 |      5862374 |     11711463 |     11711463 |     11711463 |     11711463 |     11711463 |     11711463 |     11711463 |     23409639 |     23409639 |     23409639 |     23409639 |     23409639 |     23409639 |     23409639 |     46818467 |     46818467 |     46818467 |     46818467 |     46818467 |     46818467 |     46818467 |     93611171 |     93611171 |     93611171 |     93611171 |     93611171 |     93611171 |     93611171 |    187205803 |    187205803 |    187205803 |    187205803 |    187205803 |    187205803 |    187205803 |    374395059 |    374395059 |    374395059 |    374395059 |    374395059 |    374395059 |    374395059 |
sim_num_refs                                138963 |       138963 |       138963 |       138963 |       138963 |       138963 |       138963 |       270035 |       270035 |       270035 |       270035 |       270035 |       270035 |       270035 |       532179 |       532179 |       532179 |       532179 |       532179 |       532179 |       532179 |      1056467 |      1056467 |      1056467 |      1056467 |      1056467 |      1056467 |      1056467 |      2105043 |      2105043 |      2105043 |      2105043 |      2105043 |      2105043 |      2105043 |      4202195 |      4202195 |      4202195 |      4202195 |      4202195 |      4202195 |      4202195 |      8396499 |      8396499 |      8396499 |      8396499 |      8396499 |      8396499 |      8396499 |     16794369 |     16794369 |     16794369 |     16794369 |     16794369 |     16794369 |     16794369 |     33571585 |     33571585 |     33571585 |     33571585 |     33571585 |     33571585 |     33571585 |     67132161 |     67132161 |     67132161 |     67132161 |     67132161 |     67132161 |     67132161 |    134253313 |    134253313 |    134253313 |    134253313 |    134253313 |    134253313 |    134253313 |
sim_elapsed_time                                 1 |            1 |            1 |            1 |            1 |            1 |            1 |            1 |            1 |            1 |            1 |            1 |            1 |            1 |            1 |            1 |            1 |            1 |            1 |            1 |            1 |            1 |            1 |            1 |            1 |            1 |            1 |            1 |            1 |            1 |            1 |            1 |            1 |            1 |            1 |            1 |            1 |            1 |            2 |            1 |            1 |            1 |            3 |            2 |            2 |            2 |            3 |            2 |            2 |            5 |            4 |            5 |            4 |            5 |            4 |            5 |            9 |            9 |            9 |            9 |            9 |           10 |            9 |           18 |           18 |           19 |           21 |           19 |           19 |           18 |           40 |           41 |           41 |           41 |           41 |           41 |           41 |
sim_inst_rate                          378847.0000 |  378847.0000 |  378847.0000 |  378847.0000 |  378847.0000 |  378847.0000 |  378847.0000 |  744419.0000 |  744419.0000 |  744419.0000 |  744419.0000 |  744419.0000 |  744419.0000 |  744419.0000 | 1475557.0000 | 1475557.0000 | 1475557.0000 | 1475557.0000 | 1475557.0000 | 1475557.0000 | 1475557.0000 | 2937830.0000 | 2937830.0000 | 2937830.0000 | 2937830.0000 | 2937830.0000 | 2937830.0000 | 2937830.0000 | 5862374.0000 | 5862374.0000 | 5862374.0000 | 5862374.0000 | 5862374.0000 | 5862374.0000 | 5862374.0000 |11711463.0000 |11711463.0000 |11711463.0000 | 5855731.5000 |11711463.0000 |11711463.0000 |11711463.0000 | 7803213.0000 |11704819.5000 |11704819.5000 |11704819.5000 | 7803213.0000 |11704819.5000 |11704819.5000 | 9363693.4000 |11704616.7500 | 9363693.4000 |11704616.7500 | 9363693.4000 |11704616.7500 | 9363693.4000 |10401241.2222 |10401241.2222 |10401241.2222 |10401241.2222 |10401241.2222 | 9361117.1000 |10401241.2222 |10400322.3889 |10400322.3889 | 9852937.0000 | 8914562.0476 | 9852937.0000 | 9852937.0000 |10400322.3889 | 9359876.4750 | 9131586.8049 | 9131586.8049 | 9131586.8049 | 9131586.8049 | 9131586.8049 | 9131586.8049 |
sim_num_branches                              9290 |         9290 |         9290 |         9290 |         9290 |         9290 |         9290 |        17482 |        17482 |        17482 |        17482 |        17482 |        17482 |        17482 |        33866 |        33866 |        33866 |        33866 |        33866 |        33866 |        33866 |        66634 |        66634 |        66634 |        66634 |        66634 |        66634 |        66634 |       132170 |       132170 |       132170 |       132170 |       132170 |       132170 |       132170 |       263242 |       263242 |       263242 |       263242 |       263242 |       263242 |       263242 |       525386 |       525386 |       525386 |       525386 |       525386 |       525386 |       525386 |      1050467 |      1050467 |      1050467 |      1050467 |      1050467 |      1050467 |      1050467 |      2099043 |      2099043 |      2099043 |      2099043 |      2099043 |      2099043 |      2099043 |      4196966 |      4196966 |      4196966 |      4196966 |      4196966 |      4196966 |      4196966 |      8392809 |      8392809 |      8392809 |      8392809 |      8392809 |      8392809 |      8392809 |
sim_IPB                                    40.7801 |      40.7801 |      40.7801 |      40.7801 |      40.7801 |      40.7801 |      40.7801 |      42.5820 |      42.5820 |      42.5820 |      42.5820 |      42.5820 |      42.5820 |      42.5820 |      43.5705 |      43.5705 |      43.5705 |      43.5705 |      43.5705 |      43.5705 |      43.5705 |      44.0891 |      44.0891 |      44.0891 |      44.0891 |      44.0891 |      44.0891 |      44.0891 |      44.3548 |      44.3548 |      44.3548 |      44.3548 |      44.3548 |      44.3548 |      44.3548 |      44.4893 |      44.4893 |      44.4893 |      44.4893 |      44.4893 |      44.4893 |      44.4893 |      44.5570 |      44.5570 |      44.5570 |      44.5570 |      44.5570 |      44.5570 |      44.5570 |      44.5692 |      44.5692 |      44.5692 |      44.5692 |      44.5692 |      44.5692 |      44.5692 |      44.5971 |      44.5971 |      44.5971 |      44.5971 |      44.5971 |      44.5971 |      44.5971 |      44.6050 |      44.6050 |      44.6050 |      44.6050 |      44.6050 |      44.6050 |      44.6050 |      44.6090 |      44.6090 |      44.6090 |      44.6090 |      44.6090 |      44.6090 |      44.6090 |
bpred_bimod.lookups                           9290 |         9290 |         9290 |xxxxxxxxxxxxx |xxxxxxxxxxxxx |xxxxxxxxxxxxx |xxxxxxxxxxxxx |        17482 |        17482 |        17482 |xxxxxxxxxxxxx |xxxxxxxxxxxxx |xxxxxxxxxxxxx |xxxxxxxxxxxxx |        33866 |        33866 |        33866 |xxxxxxxxxxxxx |xxxxxxxxxxxxx |xxxxxxxxxxxxx |xxxxxxxxxxxxx |        66634 |        66634 |        66634 |xxxxxxxxxxxxx |xxxxxxxxxxxxx |xxxxxxxxxxxxx |xxxxxxxxxxxxx |       132170 |       132170 |       132170 |xxxxxxxxxxxxx |xxxxxxxxxxxxx |xxxxxxxxxxxxx |xxxxxxxxxxxxx |       263242 |       263242 |       263242 |xxxxxxxxxxxxx |xxxxxxxxxxxxx |xxxxxxxxxxxxx |xxxxxxxxxxxxx |       525386 |       525386 |       525386 |xxxxxxxxxxxxx |xxxxxxxxxxxxx |xxxxxxxxxxxxx |xxxxxxxxxxxxx |      1050467 |      1050467 |      1050467 |xxxxxxxxxxxxx |xxxxxxxxxxxxx |xxxxxxxxxxxxx |xxxxxxxxxxxxx |      2099043 |      2099043 |      2099043 |xxxxxxxxxxxxx |xxxxxxxxxxxxx |xxxxxxxxxxxxx |xxxxxxxxxxxxx |      4196966 |      4196966 |      4196966 |xxxxxxxxxxxxx |xxxxxxxxxxxxx |xxxxxxxxxxxxx |xxxxxxxxxxxxx |      8392809 |      8392809 |      8392809 |
bpred_bimod.updates                           9290 |         9290 |         9290 |xxxxxxxxxxxxx |xxxxxxxxxxxxx |xxxxxxxxxxxxx |xxxxxxxxxxxxx |        17482 |        17482 |        17482 |xxxxxxxxxxxxx |xxxxxxxxxxxxx |xxxxxxxxxxxxx |xxxxxxxxxxxxx |        33866 |        33866 |        33866 |xxxxxxxxxxxxx |xxxxxxxxxxxxx |xxxxxxxxxxxxx |xxxxxxxxxxxxx |        66634 |        66634 |        66634 |xxxxxxxxxxxxx |xxxxxxxxxxxxx |xxxxxxxxxxxxx |xxxxxxxxxxxxx |       132170 |       132170 |       132170 |xxxxxxxxxxxxx |xxxxxxxxxxxxx |xxxxxxxxxxxxx |xxxxxxxxxxxxx |       263242 |       263242 |       263242 |xxxxxxxxxxxxx |xxxxxxxxxxxxx |xxxxxxxxxxxxx |xxxxxxxxxxxxx |       525386 |       525386 |       525386 |xxxxxxxxxxxxx |xxxxxxxxxxxxx |xxxxxxxxxxxxx |xxxxxxxxxxxxx |      1050467 |      1050467 |      1050467 |xxxxxxxxxxxxx |xxxxxxxxxxxxx |xxxxxxxxxxxxx |xxxxxxxxxxxxx |      2099043 |      2099043 |      2099043 |xxxxxxxxxxxxx |xxxxxxxxxxxxx |xxxxxxxxxxxxx |xxxxxxxxxxxxx |      4196966 |      4196966 |      4196966 |xxxxxxxxxxxxx |xxxxxxxxxxxxx |xxxxxxxxxxxxx |xxxxxxxxxxxxx |      8392809 |      8392809 |      8392809 |
bpred_bimod.addr_hits                         9075 |         9078 |         9079 |xxxxxxxxxxxxx |xxxxxxxxxxxxx |xxxxxxxxxxxxx |xxxxxxxxxxxxx |        17266 |        17270 |        17271 |xxxxxxxxxxxxx |xxxxxxxxxxxxx |xxxxxxxxxxxxx |xxxxxxxxxxxxx |        33653 |        33655 |        33656 |xxxxxxxxxxxxx |xxxxxxxxxxxxx |xxxxxxxxxxxxx |xxxxxxxxxxxxx |        66420 |        66423 |        66424 |xxxxxxxxxxxxx |xxxxxxxxxxxxx |xxxxxxxxxxxxx |xxxxxxxxxxxxx |       131956 |       131959 |       131960 |xxxxxxxxxxxxx |xxxxxxxxxxxxx |xxxxxxxxxxxxx |xxxxxxxxxxxxx |       263028 |       263031 |       263032 |xxxxxxxxxxxxx |xxxxxxxxxxxxx |xxxxxxxxxxxxx |xxxxxxxxxxxxx |       525172 |       525175 |       525176 |xxxxxxxxxxxxx |xxxxxxxxxxxxx |xxxxxxxxxxxxx |xxxxxxxxxxxxx |      1050227 |      1050230 |      1050230 |xxxxxxxxxxxxx |xxxxxxxxxxxxx |xxxxxxxxxxxxx |xxxxxxxxxxxxx |      2098803 |      2098806 |      2098806 |xxxxxxxxxxxxx |xxxxxxxxxxxxx |xxxxxxxxxxxxx |xxxxxxxxxxxxx |      4196726 |      4196729 |      4196729 |xxxxxxxxxxxxx |xxxxxxxxxxxxx |xxxxxxxxxxxxx |xxxxxxxxxxxxx |      8392569 |      8392572 |      8392572 |
bpred_bimod.dir_hits                          9184 |         9183 |         9184 |xxxxxxxxxxxxx |xxxxxxxxxxxxx |xxxxxxxxxxxxx |xxxxxxxxxxxxx |        17371 |        17376 |        17376 |xxxxxxxxxxxxx |xxxxxxxxxxxxx |xxxxxxxxxxxxx |xxxxxxxxxxxxx |        33760 |        33760 |        33761 |xxxxxxxxxxxxx |xxxxxxxxxxxxx |xxxxxxxxxxxxx |xxxxxxxxxxxxx |        66525 |        66526 |        66528 |xxxxxxxxxxxxx |xxxxxxxxxxxxx |xxxxxxxxxxxxx |xxxxxxxxxxxxx |       132061 |       132062 |       132064 |xxxxxxxxxxxxx |xxxxxxxxxxxxx |xxxxxxxxxxxxx |xxxxxxxxxxxxx |       263134 |       263135 |       263137 |xxxxxxxxxxxxx |xxxxxxxxxxxxx |xxxxxxxxxxxxx |xxxxxxxxxxxxx |       525278 |       525279 |       525281 |xxxxxxxxxxxxx |xxxxxxxxxxxxx |xxxxxxxxxxxxx |xxxxxxxxxxxxx |      1050344 |      1050345 |      1050346 |xxxxxxxxxxxxx |xxxxxxxxxxxxx |xxxxxxxxxxxxx |xxxxxxxxxxxxx |      2098920 |      2098921 |      2098922 |xxxxxxxxxxxxx |xxxxxxxxxxxxx |xxxxxxxxxxxxx |xxxxxxxxxxxxx |      4196843 |      4196844 |      4196845 |xxxxxxxxxxxxx |xxxxxxxxxxxxx |xxxxxxxxxxxxx |xxxxxxxxxxxxx |      8392686 |      8392687 |      8392688 |
bpred_bimod.misses                             106 |          107 |          106 |xxxxxxxxxxxxx |xxxxxxxxxxxxx |xxxxxxxxxxxxx |xxxxxxxxxxxxx |          111 |          106 |          106 |xxxxxxxxxxxxx |xxxxxxxxxxxxx |xxxxxxxxxxxxx |xxxxxxxxxxxxx |          106 |          106 |          105 |xxxxxxxxxxxxx |xxxxxxxxxxxxx |xxxxxxxxxxxxx |xxxxxxxxxxxxx |          109 |          108 |          106 |xxxxxxxxxxxxx |xxxxxxxxxxxxx |xxxxxxxxxxxxx |xxxxxxxxxxxxx |          109 |          108 |          106 |xxxxxxxxxxxxx |xxxxxxxxxxxxx |xxxxxxxxxxxxx |xxxxxxxxxxxxx |          108 |          107 |          105 |xxxxxxxxxxxxx |xxxxxxxxxxxxx |xxxxxxxxxxxxx |xxxxxxxxxxxxx |          108 |          107 |          105 |xxxxxxxxxxxxx |xxxxxxxxxxxxx |xxxxxxxxxxxxx |xxxxxxxxxxxxx |          123 |          122 |          121 |xxxxxxxxxxxxx |xxxxxxxxxxxxx |xxxxxxxxxxxxx |xxxxxxxxxxxxx |          123 |          122 |          121 |xxxxxxxxxxxxx |xxxxxxxxxxxxx |xxxxxxxxxxxxx |xxxxxxxxxxxxx |          123 |          122 |          121 |xxxxxxxxxxxxx |xxxxxxxxxxxxx |xxxxxxxxxxxxx |xxxxxxxxxxxxx |          123 |          122 |          121 |
bpred_bimod.jr_hits                             70 |           70 |           70 |xxxxxxxxxxxxx |xxxxxxxxxxxxx |xxxxxxxxxxxxx |xxxxxxxxxxxxx |           70 |           70 |           70 |xxxxxxxxxxxxx |xxxxxxxxxxxxx |xxxxxxxxxxxxx |xxxxxxxxxxxxx |           70 |           70 |           70 |xxxxxxxxxxxxx |xxxxxxxxxxxxx |xxxxxxxxxxxxx |xxxxxxxxxxxxx |           70 |           70 |           70 |xxxxxxxxxxxxx |xxxxxxxxxxxxx |xxxxxxxxxxxxx |xxxxxxxxxxxxx |           70 |           70 |           70 |xxxxxxxxxxxxx |xxxxxxxxxxxxx |xxxxxxxxxxxxx |xxxxxxxxxxxxx |           70 |           70 |           70 |xxxxxxxxxxxxx |xxxxxxxxxxxxx |xxxxxxxxxxxxx |xxxxxxxxxxxxx |           70 |           70 |           70 |xxxxxxxxxxxxx |xxxxxxxxxxxxx |xxxxxxxxxxxxx |xxxxxxxxxxxxx |           73 |           73 |           73 |xxxxxxxxxxxxx |xxxxxxxxxxxxx |xxxxxxxxxxxxx |xxxxxxxxxxxxx |           73 |           73 |           73 |xxxxxxxxxxxxx |xxxxxxxxxxxxx |xxxxxxxxxxxxx |xxxxxxxxxxxxx |           73 |           73 |           73 |xxxxxxxxxxxxx |xxxxxxxxxxxxx |xxxxxxxxxxxxx |xxxxxxxxxxxxx |           73 |           73 |           73 |
bpred_bimod.jr_seen                             71 |           71 |           71 |xxxxxxxxxxxxx |xxxxxxxxxxxxx |xxxxxxxxxxxxx |xxxxxxxxxxxxx |           71 |           71 |           71 |xxxxxxxxxxxxx |xxxxxxxxxxxxx |xxxxxxxxxxxxx |xxxxxxxxxxxxx |           71 |           71 |           71 |xxxxxxxxxxxxx |xxxxxxxxxxxxx |xxxxxxxxxxxxx |xxxxxxxxxxxxx |           71 |           71 |           71 |xxxxxxxxxxxxx |xxxxxxxxxxxxx |xxxxxxxxxxxxx |xxxxxxxxxxxxx |           71 |           71 |           71 |xxxxxxxxxxxxx |xxxxxxxxxxxxx |xxxxxxxxxxxxx |xxxxxxxxxxxxx |           71 |           71 |           71 |xxxxxxxxxxxxx |xxxxxxxxxxxxx |xxxxxxxxxxxxx |xxxxxxxxxxxxx |           71 |           71 |           71 |xxxxxxxxxxxxx |xxxxxxxxxxxxx |xxxxxxxxxxxxx |xxxxxxxxxxxxx |           74 |           74 |           74 |xxxxxxxxxxxxx |xxxxxxxxxxxxx |xxxxxxxxxxxxx |xxxxxxxxxxxxx |           74 |           74 |           74 |xxxxxxxxxxxxx |xxxxxxxxxxxxx |xxxxxxxxxxxxx |xxxxxxxxxxxxx |           74 |           74 |           74 |xxxxxxxxxxxxx |xxxxxxxxxxxxx |xxxxxxxxxxxxx |xxxxxxxxxxxxx |           74 |           74 |           74 |
bpred_bimod.jr_non_ras_hits.PP                   0 |            0 |            0 |xxxxxxxxxxxxx |xxxxxxxxxxxxx |xxxxxxxxxxxxx |xxxxxxxxxxxxx |            0 |            0 |            0 |xxxxxxxxxxxxx |xxxxxxxxxxxxx |xxxxxxxxxxxxx |xxxxxxxxxxxxx |            0 |            0 |            0 |xxxxxxxxxxxxx |xxxxxxxxxxxxx |xxxxxxxxxxxxx |xxxxxxxxxxxxx |            0 |            0 |            0 |xxxxxxxxxxxxx |xxxxxxxxxxxxx |xxxxxxxxxxxxx |xxxxxxxxxxxxx |            0 |            0 |            0 |xxxxxxxxxxxxx |xxxxxxxxxxxxx |xxxxxxxxxxxxx |xxxxxxxxxxxxx |            0 |            0 |            0 |xxxxxxxxxxxxx |xxxxxxxxxxxxx |xxxxxxxxxxxxx |xxxxxxxxxxxxx |            0 |            0 |            0 |xxxxxxxxxxxxx |xxxxxxxxxxxxx |xxxxxxxxxxxxx |xxxxxxxxxxxxx |            0 |            0 |            0 |xxxxxxxxxxxxx |xxxxxxxxxxxxx |xxxxxxxxxxxxx |xxxxxxxxxxxxx |            0 |            0 |            0 |xxxxxxxxxxxxx |xxxxxxxxxxxxx |xxxxxxxxxxxxx |xxxxxxxxxxxxx |            0 |            0 |            0 |xxxxxxxxxxxxx |xxxxxxxxxxxxx |xxxxxxxxxxxxx |xxxxxxxxxxxxx |            0 |            0 |            0 |
bpred_bimod.jr_non_ras_seen.PP                   0 |            0 |            0 |xxxxxxxxxxxxx |xxxxxxxxxxxxx |xxxxxxxxxxxxx |xxxxxxxxxxxxx |            0 |            0 |            0 |xxxxxxxxxxxxx |xxxxxxxxxxxxx |xxxxxxxxxxxxx |xxxxxxxxxxxxx |            0 |            0 |            0 |xxxxxxxxxxxxx |xxxxxxxxxxxxx |xxxxxxxxxxxxx |xxxxxxxxxxxxx |            0 |            0 |            0 |xxxxxxxxxxxxx |xxxxxxxxxxxxx |xxxxxxxxxxxxx |xxxxxxxxxxxxx |            0 |            0 |            0 |xxxxxxxxxxxxx |xxxxxxxxxxxxx |xxxxxxxxxxxxx |xxxxxxxxxxxxx |            0 |            0 |            0 |xxxxxxxxxxxxx |xxxxxxxxxxxxx |xxxxxxxxxxxxx |xxxxxxxxxxxxx |            0 |            0 |            0 |xxxxxxxxxxxxx |xxxxxxxxxxxxx |xxxxxxxxxxxxx |xxxxxxxxxxxxx |            1 |            1 |            1 |xxxxxxxxxxxxx |xxxxxxxxxxxxx |xxxxxxxxxxxxx |xxxxxxxxxxxxx |            1 |            1 |            1 |xxxxxxxxxxxxx |xxxxxxxxxxxxx |xxxxxxxxxxxxx |xxxxxxxxxxxxx |            1 |            1 |            1 |xxxxxxxxxxxxx |xxxxxxxxxxxxx |xxxxxxxxxxxxx |xxxxxxxxxxxxx |            1 |            1 |            1 |
bpred_bimod.bpred_addr_rate                 0.9769 |       0.9772 |       0.9773 |xxxxxxxxxxxxx |xxxxxxxxxxxxx |xxxxxxxxxxxxx |xxxxxxxxxxxxx |       0.9876 |       0.9879 |       0.9879 |xxxxxxxxxxxxx |xxxxxxxxxxxxx |xxxxxxxxxxxxx |xxxxxxxxxxxxx |       0.9937 |       0.9938 |       0.9938 |xxxxxxxxxxxxx |xxxxxxxxxxxxx |xxxxxxxxxxxxx |xxxxxxxxxxxxx |       0.9968 |       0.9968 |       0.9968 |xxxxxxxxxxxxx |xxxxxxxxxxxxx |xxxxxxxxxxxxx |xxxxxxxxxxxxx |       0.9984 |       0.9984 |       0.9984 |xxxxxxxxxxxxx |xxxxxxxxxxxxx |xxxxxxxxxxxxx |xxxxxxxxxxxxx |       0.9992 |       0.9992 |       0.9992 |xxxxxxxxxxxxx |xxxxxxxxxxxxx |xxxxxxxxxxxxx |xxxxxxxxxxxxx |       0.9996 |       0.9996 |       0.9996 |xxxxxxxxxxxxx |xxxxxxxxxxxxx |xxxxxxxxxxxxx |xxxxxxxxxxxxx |       0.9998 |       0.9998 |       0.9998 |xxxxxxxxxxxxx |xxxxxxxxxxxxx |xxxxxxxxxxxxx |xxxxxxxxxxxxx |       0.9999 |       0.9999 |       0.9999 |xxxxxxxxxxxxx |xxxxxxxxxxxxx |xxxxxxxxxxxxx |xxxxxxxxxxxxx |       0.9999 |       0.9999 |       0.9999 |xxxxxxxxxxxxx |xxxxxxxxxxxxx |xxxxxxxxxxxxx |xxxxxxxxxxxxx |       1.0000 |       1.0000 |       1.0000 |
bpred_bimod.bpred_dir_rate                  0.9886 |       0.9885 |       0.9886 |xxxxxxxxxxxxx |xxxxxxxxxxxxx |xxxxxxxxxxxxx |xxxxxxxxxxxxx |       0.9937 |       0.9939 |       0.9939 |xxxxxxxxxxxxx |xxxxxxxxxxxxx |xxxxxxxxxxxxx |xxxxxxxxxxxxx |       0.9969 |       0.9969 |       0.9969 |xxxxxxxxxxxxx |xxxxxxxxxxxxx |xxxxxxxxxxxxx |xxxxxxxxxxxxx |       0.9984 |       0.9984 |       0.9984 |xxxxxxxxxxxxx |xxxxxxxxxxxxx |xxxxxxxxxxxxx |xxxxxxxxxxxxx |       0.9992 |       0.9992 |       0.9992 |xxxxxxxxxxxxx |xxxxxxxxxxxxx |xxxxxxxxxxxxx |xxxxxxxxxxxxx |       0.9996 |       0.9996 |       0.9996 |xxxxxxxxxxxxx |xxxxxxxxxxxxx |xxxxxxxxxxxxx |xxxxxxxxxxxxx |       0.9998 |       0.9998 |       0.9998 |xxxxxxxxxxxxx |xxxxxxxxxxxxx |xxxxxxxxxxxxx |xxxxxxxxxxxxx |       0.9999 |       0.9999 |       0.9999 |xxxxxxxxxxxxx |xxxxxxxxxxxxx |xxxxxxxxxxxxx |xxxxxxxxxxxxx |       0.9999 |       0.9999 |       0.9999 |xxxxxxxxxxxxx |xxxxxxxxxxxxx |xxxxxxxxxxxxx |xxxxxxxxxxxxx |       1.0000 |       1.0000 |       1.0000 |xxxxxxxxxxxxx |xxxxxxxxxxxxx |xxxxxxxxxxxxx |xxxxxxxxxxxxx |       1.0000 |       1.0000 |       1.0000 |
bpred_bimod.bpred_jr_rate                   0.9859 |       0.9859 |       0.9859 |xxxxxxxxxxxxx |xxxxxxxxxxxxx |xxxxxxxxxxxxx |xxxxxxxxxxxxx |       0.9859 |       0.9859 |       0.9859 |xxxxxxxxxxxxx |xxxxxxxxxxxxx |xxxxxxxxxxxxx |xxxxxxxxxxxxx |       0.9859 |       0.9859 |       0.9859 |xxxxxxxxxxxxx |xxxxxxxxxxxxx |xxxxxxxxxxxxx |xxxxxxxxxxxxx |       0.9859 |       0.9859 |       0.9859 |xxxxxxxxxxxxx |xxxxxxxxxxxxx |xxxxxxxxxxxxx |xxxxxxxxxxxxx |       0.9859 |       0.9859 |       0.9859 |xxxxxxxxxxxxx |xxxxxxxxxxxxx |xxxxxxxxxxxxx |xxxxxxxxxxxxx |       0.9859 |       0.9859 |       0.9859 |xxxxxxxxxxxxx |xxxxxxxxxxxxx |xxxxxxxxxxxxx |xxxxxxxxxxxxx |       0.9859 |       0.9859 |       0.9859 |xxxxxxxxxxxxx |xxxxxxxxxxxxx |xxxxxxxxxxxxx |xxxxxxxxxxxxx |       0.9865 |       0.9865 |       0.9865 |xxxxxxxxxxxxx |xxxxxxxxxxxxx |xxxxxxxxxxxxx |xxxxxxxxxxxxx |       0.9865 |       0.9865 |       0.9865 |xxxxxxxxxxxxx |xxxxxxxxxxxxx |xxxxxxxxxxxxx |xxxxxxxxxxxxx |       0.9865 |       0.9865 |       0.9865 |xxxxxxxxxxxxx |xxxxxxxxxxxxx |xxxxxxxxxxxxx |xxxxxxxxxxxxx |       0.9865 |       0.9865 |       0.9865 |
bpred_bimod.bpred_jr_non_ras_rate.PP       <error: |      <error: |      <error: |xxxxxxxxxxxxx |xxxxxxxxxxxxx |xxxxxxxxxxxxx |xxxxxxxxxxxxx |      <error: |      <error: |      <error: |xxxxxxxxxxxxx |xxxxxxxxxxxxx |xxxxxxxxxxxxx |xxxxxxxxxxxxx |      <error: |      <error: |      <error: |xxxxxxxxxxxxx |xxxxxxxxxxxxx |xxxxxxxxxxxxx |xxxxxxxxxxxxx |      <error: |      <error: |      <error: |xxxxxxxxxxxxx |xxxxxxxxxxxxx |xxxxxxxxxxxxx |xxxxxxxxxxxxx |      <error: |      <error: |      <error: |xxxxxxxxxxxxx |xxxxxxxxxxxxx |xxxxxxxxxxxxx |xxxxxxxxxxxxx |      <error: |      <error: |      <error: |xxxxxxxxxxxxx |xxxxxxxxxxxxx |xxxxxxxxxxxxx |xxxxxxxxxxxxx |      <error: |      <error: |      <error: |xxxxxxxxxxxxx |xxxxxxxxxxxxx |xxxxxxxxxxxxx |xxxxxxxxxxxxx |       0.0000 |       0.0000 |       0.0000 |xxxxxxxxxxxxx |xxxxxxxxxxxxx |xxxxxxxxxxxxx |xxxxxxxxxxxxx |       0.0000 |       0.0000 |       0.0000 |xxxxxxxxxxxxx |xxxxxxxxxxxxx |xxxxxxxxxxxxx |xxxxxxxxxxxxx |       0.0000 |       0.0000 |       0.0000 |xxxxxxxxxxxxx |xxxxxxxxxxxxx |xxxxxxxxxxxxx |xxxxxxxxxxxxx |       0.0000 |       0.0000 |       0.0000 |
bpred_bimod.retstack_pushes                     73 |           73 |           73 |xxxxxxxxxxxxx |xxxxxxxxxxxxx |xxxxxxxxxxxxx |xxxxxxxxxxxxx |           73 |           73 |           73 |xxxxxxxxxxxxx |xxxxxxxxxxxxx |xxxxxxxxxxxxx |xxxxxxxxxxxxx |           73 |           73 |           73 |xxxxxxxxxxxxx |xxxxxxxxxxxxx |xxxxxxxxxxxxx |xxxxxxxxxxxxx |           73 |           73 |           73 |xxxxxxxxxxxxx |xxxxxxxxxxxxx |xxxxxxxxxxxxx |xxxxxxxxxxxxx |           73 |           73 |           73 |xxxxxxxxxxxxx |xxxxxxxxxxxxx |xxxxxxxxxxxxx |xxxxxxxxxxxxx |           73 |           73 |           73 |xxxxxxxxxxxxx |xxxxxxxxxxxxx |xxxxxxxxxxxxx |xxxxxxxxxxxxx |           73 |           73 |           73 |xxxxxxxxxxxxx |xxxxxxxxxxxxx |xxxxxxxxxxxxx |xxxxxxxxxxxxx |           75 |           75 |           75 |xxxxxxxxxxxxx |xxxxxxxxxxxxx |xxxxxxxxxxxxx |xxxxxxxxxxxxx |           75 |           75 |           75 |xxxxxxxxxxxxx |xxxxxxxxxxxxx |xxxxxxxxxxxxx |xxxxxxxxxxxxx |           75 |           75 |           75 |xxxxxxxxxxxxx |xxxxxxxxxxxxx |xxxxxxxxxxxxx |xxxxxxxxxxxxx |           75 |           75 |           75 |
bpred_bimod.retstack_pops                       71 |           71 |           71 |xxxxxxxxxxxxx |xxxxxxxxxxxxx |xxxxxxxxxxxxx |xxxxxxxxxxxxx |           71 |           71 |           71 |xxxxxxxxxxxxx |xxxxxxxxxxxxx |xxxxxxxxxxxxx |xxxxxxxxxxxxx |           71 |           71 |           71 |xxxxxxxxxxxxx |xxxxxxxxxxxxx |xxxxxxxxxxxxx |xxxxxxxxxxxxx |           71 |           71 |           71 |xxxxxxxxxxxxx |xxxxxxxxxxxxx |xxxxxxxxxxxxx |xxxxxxxxxxxxx |           71 |           71 |           71 |xxxxxxxxxxxxx |xxxxxxxxxxxxx |xxxxxxxxxxxxx |xxxxxxxxxxxxx |           71 |           71 |           71 |xxxxxxxxxxxxx |xxxxxxxxxxxxx |xxxxxxxxxxxxx |xxxxxxxxxxxxx |           71 |           71 |           71 |xxxxxxxxxxxxx |xxxxxxxxxxxxx |xxxxxxxxxxxxx |xxxxxxxxxxxxx |           73 |           73 |           73 |xxxxxxxxxxxxx |xxxxxxxxxxxxx |xxxxxxxxxxxxx |xxxxxxxxxxxxx |           73 |           73 |           73 |xxxxxxxxxxxxx |xxxxxxxxxxxxx |xxxxxxxxxxxxx |xxxxxxxxxxxxx |           73 |           73 |           73 |xxxxxxxxxxxxx |xxxxxxxxxxxxx |xxxxxxxxxxxxx |xxxxxxxxxxxxx |           73 |           73 |           73 |
bpred_bimod.used_ras.PP                         71 |           71 |           71 |xxxxxxxxxxxxx |xxxxxxxxxxxxx |xxxxxxxxxxxxx |xxxxxxxxxxxxx |           71 |           71 |           71 |xxxxxxxxxxxxx |xxxxxxxxxxxxx |xxxxxxxxxxxxx |xxxxxxxxxxxxx |           71 |           71 |           71 |xxxxxxxxxxxxx |xxxxxxxxxxxxx |xxxxxxxxxxxxx |xxxxxxxxxxxxx |           71 |           71 |           71 |xxxxxxxxxxxxx |xxxxxxxxxxxxx |xxxxxxxxxxxxx |xxxxxxxxxxxxx |           71 |           71 |           71 |xxxxxxxxxxxxx |xxxxxxxxxxxxx |xxxxxxxxxxxxx |xxxxxxxxxxxxx |           71 |           71 |           71 |xxxxxxxxxxxxx |xxxxxxxxxxxxx |xxxxxxxxxxxxx |xxxxxxxxxxxxx |           71 |           71 |           71 |xxxxxxxxxxxxx |xxxxxxxxxxxxx |xxxxxxxxxxxxx |xxxxxxxxxxxxx |           73 |           73 |           73 |xxxxxxxxxxxxx |xxxxxxxxxxxxx |xxxxxxxxxxxxx |xxxxxxxxxxxxx |           73 |           73 |           73 |xxxxxxxxxxxxx |xxxxxxxxxxxxx |xxxxxxxxxxxxx |xxxxxxxxxxxxx |           73 |           73 |           73 |xxxxxxxxxxxxx |xxxxxxxxxxxxx |xxxxxxxxxxxxx |xxxxxxxxxxxxx |           73 |           73 |           73 |
bpred_bimod.ras_hits.PP                         70 |           70 |           70 |xxxxxxxxxxxxx |xxxxxxxxxxxxx |xxxxxxxxxxxxx |xxxxxxxxxxxxx |           70 |           70 |           70 |xxxxxxxxxxxxx |xxxxxxxxxxxxx |xxxxxxxxxxxxx |xxxxxxxxxxxxx |           70 |           70 |           70 |xxxxxxxxxxxxx |xxxxxxxxxxxxx |xxxxxxxxxxxxx |xxxxxxxxxxxxx |           70 |           70 |           70 |xxxxxxxxxxxxx |xxxxxxxxxxxxx |xxxxxxxxxxxxx |xxxxxxxxxxxxx |           70 |           70 |           70 |xxxxxxxxxxxxx |xxxxxxxxxxxxx |xxxxxxxxxxxxx |xxxxxxxxxxxxx |           70 |           70 |           70 |xxxxxxxxxxxxx |xxxxxxxxxxxxx |xxxxxxxxxxxxx |xxxxxxxxxxxxx |           70 |           70 |           70 |xxxxxxxxxxxxx |xxxxxxxxxxxxx |xxxxxxxxxxxxx |xxxxxxxxxxxxx |           73 |           73 |           73 |xxxxxxxxxxxxx |xxxxxxxxxxxxx |xxxxxxxxxxxxx |xxxxxxxxxxxxx |           73 |           73 |           73 |xxxxxxxxxxxxx |xxxxxxxxxxxxx |xxxxxxxxxxxxx |xxxxxxxxxxxxx |           73 |           73 |           73 |xxxxxxxxxxxxx |xxxxxxxxxxxxx |xxxxxxxxxxxxx |xxxxxxxxxxxxx |           73 |           73 |           73 |
bpred_bimod.ras_rate.PP                     0.9859 |       0.9859 |       0.9859 |xxxxxxxxxxxxx |xxxxxxxxxxxxx |xxxxxxxxxxxxx |xxxxxxxxxxxxx |       0.9859 |       0.9859 |       0.9859 |xxxxxxxxxxxxx |xxxxxxxxxxxxx |xxxxxxxxxxxxx |xxxxxxxxxxxxx |       0.9859 |       0.9859 |       0.9859 |xxxxxxxxxxxxx |xxxxxxxxxxxxx |xxxxxxxxxxxxx |xxxxxxxxxxxxx |       0.9859 |       0.9859 |       0.9859 |xxxxxxxxxxxxx |xxxxxxxxxxxxx |xxxxxxxxxxxxx |xxxxxxxxxxxxx |       0.9859 |       0.9859 |       0.9859 |xxxxxxxxxxxxx |xxxxxxxxxxxxx |xxxxxxxxxxxxx |xxxxxxxxxxxxx |       0.9859 |       0.9859 |       0.9859 |xxxxxxxxxxxxx |xxxxxxxxxxxxx |xxxxxxxxxxxxx |xxxxxxxxxxxxx |       0.9859 |       0.9859 |       0.9859 |xxxxxxxxxxxxx |xxxxxxxxxxxxx |xxxxxxxxxxxxx |xxxxxxxxxxxxx |       1.0000 |       1.0000 |       1.0000 |xxxxxxxxxxxxx |xxxxxxxxxxxxx |xxxxxxxxxxxxx |xxxxxxxxxxxxx |       1.0000 |       1.0000 |       1.0000 |xxxxxxxxxxxxx |xxxxxxxxxxxxx |xxxxxxxxxxxxx |xxxxxxxxxxxxx |       1.0000 |       1.0000 |       1.0000 |xxxxxxxxxxxxx |xxxxxxxxxxxxx |xxxxxxxxxxxxx |xxxxxxxxxxxxx |       1.0000 |       1.0000 |       1.0000 |
bpred_2lev.lookups                   xxxxxxxxxxxxx |xxxxxxxxxxxxx |xxxxxxxxxxxxx |         9290 |         9290 |         9290 |         9290 |xxxxxxxxxxxxx |xxxxxxxxxxxxx |xxxxxxxxxxxxx |        17482 |        17482 |        17482 |        17482 |xxxxxxxxxxxxx |xxxxxxxxxxxxx |xxxxxxxxxxxxx |        33866 |        33866 |        33866 |        33866 |xxxxxxxxxxxxx |xxxxxxxxxxxxx |xxxxxxxxxxxxx |        66634 |        66634 |        66634 |        66634 |xxxxxxxxxxxxx |xxxxxxxxxxxxx |xxxxxxxxxxxxx |       132170 |       132170 |       132170 |       132170 |xxxxxxxxxxxxx |xxxxxxxxxxxxx |xxxxxxxxxxxxx |       263242 |       263242 |       263242 |       263242 |xxxxxxxxxxxxx |xxxxxxxxxxxxx |xxxxxxxxxxxxx |       525386 |       525386 |       525386 |       525386 |xxxxxxxxxxxxx |xxxxxxxxxxxxx |xxxxxxxxxxxxx |      1050467 |      1050467 |      1050467 |      1050467 |xxxxxxxxxxxxx |xxxxxxxxxxxxx |xxxxxxxxxxxxx |      2099043 |      2099043 |      2099043 |      2099043 |xxxxxxxxxxxxx |xxxxxxxxxxxxx |xxxxxxxxxxxxx |      4196966 |      4196966 |      4196966 |      4196966 |xxxxxxxxxxxxx |xxxxxxxxxxxxx |xxxxxxxxxxxxx |      8392809 |      8392809 |      8392809 |      8392809 |
[...]
bpred_2lev.used_ras.PP               xxxxxxxxxxxxx |xxxxxxxxxxxxx |xxxxxxxxxxxxx |           71 |           71 |           71 |           71 |xxxxxxxxxxxxx |xxxxxxxxxxxxx |xxxxxxxxxxxxx |           71 |           71 |           71 |           71 |xxxxxxxxxxxxx |xxxxxxxxxxxxx |xxxxxxxxxxxxx |           71 |           71 |           71 |           71 |xxxxxxxxxxxxx |xxxxxxxxxxxxx |xxxxxxxxxxxxx |           71 |           71 |           71 |           71 |xxxxxxxxxxxxx |xxxxxxxxxxxxx |xxxxxxxxxxxxx |           71 |           71 |           71 |           71 |xxxxxxxxxxxxx |xxxxxxxxxxxxx |xxxxxxxxxxxxx |           71 |           71 |           71 |           71 |xxxxxxxxxxxxx |xxxxxxxxxxxxx |xxxxxxxxxxxxx |           71 |           71 |           71 |           71 |xxxxxxxxxxxxx |xxxxxxxxxxxxx |xxxxxxxxxxxxx |           73 |           73 |           73 |           73 |xxxxxxxxxxxxx |xxxxxxxxxxxxx |xxxxxxxxxxxxx |           73 |           73 |           73 |           73 |xxxxxxxxxxxxx |xxxxxxxxxxxxx |xxxxxxxxxxxxx |           73 |           73 |           73 |           73 |xxxxxxxxxxxxx |xxxxxxxxxxxxx |xxxxxxxxxxxxx |           73 |           73 |           73 |           73 |
bpred_2lev.ras_hits.PP               xxxxxxxxxxxxx |xxxxxxxxxxxxx |xxxxxxxxxxxxx |           70 |           70 |           70 |           70 |xxxxxxxxxxxxx |xxxxxxxxxxxxx |xxxxxxxxxxxxx |           70 |           70 |           70 |           70 |xxxxxxxxxxxxx |xxxxxxxxxxxxx |xxxxxxxxxxxxx |           70 |           70 |           70 |           70 |xxxxxxxxxxxxx |xxxxxxxxxxxxx |xxxxxxxxxxxxx |           70 |           70 |           70 |           70 |xxxxxxxxxxxxx |xxxxxxxxxxxxx |xxxxxxxxxxxxx |           70 |           70 |           70 |           70 |xxxxxxxxxxxxx |xxxxxxxxxxxxx |xxxxxxxxxxxxx |           70 |           70 |           70 |           70 |xxxxxxxxxxxxx |xxxxxxxxxxxxx |xxxxxxxxxxxxx |           70 |           70 |           70 |           70 |xxxxxxxxxxxxx |xxxxxxxxxxxxx |xxxxxxxxxxxxx |           73 |           73 |           73 |           73 |xxxxxxxxxxxxx |xxxxxxxxxxxxx |xxxxxxxxxxxxx |           73 |           73 |           73 |           73 |xxxxxxxxxxxxx |xxxxxxxxxxxxx |xxxxxxxxxxxxx |           73 |           73 |           73 |           73 |xxxxxxxxxxxxx |xxxxxxxxxxxxx |xxxxxxxxxxxxx |           73 |           73 |           73 |           73 |
bpred_2lev.ras_rate.PP               xxxxxxxxxxxxx |xxxxxxxxxxxxx |xxxxxxxxxxxxx |       0.9859 |       0.9859 |       0.9859 |       0.9859 |xxxxxxxxxxxxx |xxxxxxxxxxxxx |xxxxxxxxxxxxx |       0.9859 |       0.9859 |       0.9859 |       0.9859 |xxxxxxxxxxxxx |xxxxxxxxxxxxx |xxxxxxxxxxxxx |       0.9859 |       0.9859 |       0.9859 |       0.9859 |xxxxxxxxxxxxx |xxxxxxxxxxxxx |xxxxxxxxxxxxx |       0.9859 |       0.9859 |       0.9859 |       0.9859 |xxxxxxxxxxxxx |xxxxxxxxxxxxx |xxxxxxxxxxxxx |       0.9859 |       0.9859 |       0.9859 |       0.9859 |xxxxxxxxxxxxx |xxxxxxxxxxxxx |xxxxxxxxxxxxx |       0.9859 |       0.9859 |       0.9859 |       0.9859 |xxxxxxxxxxxxx |xxxxxxxxxxxxx |xxxxxxxxxxxxx |       0.9859 |       0.9859 |       0.9859 |       0.9859 |xxxxxxxxxxxxx |xxxxxxxxxxxxx |xxxxxxxxxxxxx |       1.0000 |       1.0000 |       1.0000 |       1.0000 |xxxxxxxxxxxxx |xxxxxxxxxxxxx |xxxxxxxxxxxxx |       1.0000 |       1.0000 |       1.0000 |       1.0000 |xxxxxxxxxxxxx |xxxxxxxxxxxxx |xxxxxxxxxxxxx |       1.0000 |       1.0000 |       1.0000 |       1.0000 |xxxxxxxxxxxxx |xxxxxxxxxxxxx |xxxxxxxxxxxxx |       1.0000 |       1.0000 |       1.0000 |       1.0000 |

Command list: 
	sslittle-na-sstrix-gcc -Wall -O3 -funroll-loops -finline-functions  -DRANDOM_SIZE=4096 -DOFFSET=4 -DSORT=aligned_memory_tuned_radixsort sorts/aligned_memory_tuned_radixsort1076017367.c simpleMain.c -o aligned_memory_tuned_radixsort910932652
	sim-cache -cache:dl1 dl1:256:32:1:l -cache:dl2 dl2:131072:32:1:l -cache:il1 il1:256:32:1:l -cache:il2 dl2 aligned_memory_tuned_radixsort910932652
	sim-cache -cache:dl1 dl1:256:32:1:l -cache:dl2 dl2:65536:32:1:l -cache:il1 il1:256:32:1:l -cache:il2 dl2 aligned_memory_tuned_radixsort910932652
	sim-cache -cache:dl1 dl1:1:32:256:l -cache:dl2 dl2:1:32:131072:l -cache:il1 il1:1:32:256:l -cache:il2 dl2 aligned_memory_tuned_radixsort910932652
	sim-cache -cache:dl1 dl1:1:32:256:l -cache:dl2 dl2:1:32:65536:l -cache:il1 il1:1:32:256:l -cache:il2 dl2 aligned_memory_tuned_radixsort910932652
	sim-bpred -bpred bimod -bpred:bimod 512 aligned_memory_tuned_radixsort910932652
	sim-bpred -bpred bimod -bpred:bimod 1024 aligned_memory_tuned_radixsort910932652
	sim-bpred -bpred bimod -bpred:bimod 2048 aligned_memory_tuned_radixsort910932652
	sim-bpred -bpred 2lev -bpred:2lev 1 512 10 1 aligned_memory_tuned_radixsort910932652
	sim-bpred -bpred 2lev -bpred:2lev 1 1024 10 1 aligned_memory_tuned_radixsort910932652
	sim-bpred -bpred 2lev -bpred:2lev 1 2048 10 1 aligned_memory_tuned_radixsort910932652
	sim-bpred -bpred 2lev -bpred:2lev 1 4096 10 1 aligned_memory_tuned_radixsort910932652
	sslittle-na-sstrix-gcc -Wall -O3 -funroll-loops -finline-functions  -DRANDOM_SIZE=8192 -DOFFSET=4 -DSORT=aligned_memory_tuned_radixsort sorts/aligned_memory_tuned_radixsort1076017367.c simpleMain.c -o aligned_memory_tuned_radixsort910932652
	sim-cache -cache:dl1 dl1:256:32:1:l -cache:dl2 dl2:131072:32:1:l -cache:il1 il1:256:32:1:l -cache:il2 dl2 aligned_memory_tuned_radixsort910932652
	sim-cache -cache:dl1 dl1:256:32:1:l -cache:dl2 dl2:65536:32:1:l -cache:il1 il1:256:32:1:l -cache:il2 dl2 aligned_memory_tuned_radixsort910932652
	sim-cache -cache:dl1 dl1:1:32:256:l -cache:dl2 dl2:1:32:131072:l -cache:il1 il1:1:32:256:l -cache:il2 dl2 aligned_memory_tuned_radixsort910932652
	sim-cache -cache:dl1 dl1:1:32:256:l -cache:dl2 dl2:1:32:65536:l -cache:il1 il1:1:32:256:l -cache:il2 dl2 aligned_memory_tuned_radixsort910932652
	sim-bpred -bpred bimod -bpred:bimod 512 aligned_memory_tuned_radixsort910932652
	sim-bpred -bpred bimod -bpred:bimod 1024 aligned_memory_tuned_radixsort910932652
	sim-bpred -bpred bimod -bpred:bimod 2048 aligned_memory_tuned_radixsort910932652
	sim-bpred -bpred 2lev -bpred:2lev 1 512 10 1 aligned_memory_tuned_radixsort910932652
	sim-bpred -bpred 2lev -bpred:2lev 1 1024 10 1 aligned_memory_tuned_radixsort910932652
	sim-bpred -bpred 2lev -bpred:2lev 1 2048 10 1 aligned_memory_tuned_radixsort910932652
	sim-bpred -bpred 2lev -bpred:2lev 1 4096 10 1 aligned_memory_tuned_radixsort910932652
	sslittle-na-sstrix-gcc -Wall -O3 -funroll-loops -finline-functions  -DRANDOM_SIZE=16384 -DOFFSET=4 -DSORT=aligned_memory_tuned_radixsort sorts/aligned_memory_tuned_radixsort1076017367.c simpleMain.c -o aligned_memory_tuned_radixsort910932652
	sim-cache -cache:dl1 dl1:256:32:1:l -cache:dl2 dl2:131072:32:1:l -cache:il1 il1:256:32:1:l -cache:il2 dl2 aligned_memory_tuned_radixsort910932652
	sim-cache -cache:dl1 dl1:256:32:1:l -cache:dl2 dl2:65536:32:1:l -cache:il1 il1:256:32:1:l -cache:il2 dl2 aligned_memory_tuned_radixsort910932652
	sim-cache -cache:dl1 dl1:1:32:256:l -cache:dl2 dl2:1:32:131072:l -cache:il1 il1:1:32:256:l -cache:il2 dl2 aligned_memory_tuned_radixsort910932652
	sim-cache -cache:dl1 dl1:1:32:256:l -cache:dl2 dl2:1:32:65536:l -cache:il1 il1:1:32:256:l -cache:il2 dl2 aligned_memory_tuned_radixsort910932652
	sim-bpred -bpred bimod -bpred:bimod 512 aligned_memory_tuned_radixsort910932652
	sim-bpred -bpred bimod -bpred:bimod 1024 aligned_memory_tuned_radixsort910932652
	sim-bpred -bpred bimod -bpred:bimod 2048 aligned_memory_tuned_radixsort910932652
	sim-bpred -bpred 2lev -bpred:2lev 1 512 10 1 aligned_memory_tuned_radixsort910932652
	sim-bpred -bpred 2lev -bpred:2lev 1 1024 10 1 aligned_memory_tuned_radixsort910932652
	sim-bpred -bpred 2lev -bpred:2lev 1 2048 10 1 aligned_memory_tuned_radixsort910932652
	sim-bpred -bpred 2lev -bpred:2lev 1 4096 10 1 aligned_memory_tuned_radixsort910932652
	sslittle-na-sstrix-gcc -Wall -O3 -funroll-loops -finline-functions  -DRANDOM_SIZE=32768 -DOFFSET=4 -DSORT=aligned_memory_tuned_radixsort sorts/aligned_memory_tuned_radixsort1076017367.c simpleMain.c -o aligned_memory_tuned_radixsort910932652
	sim-cache -cache:dl1 dl1:256:32:1:l -cache:dl2 dl2:131072:32:1:l -cache:il1 il1:256:32:1:l -cache:il2 dl2 aligned_memory_tuned_radixsort910932652
	sim-cache -cache:dl1 dl1:256:32:1:l -cache:dl2 dl2:65536:32:1:l -cache:il1 il1:256:32:1:l -cache:il2 dl2 aligned_memory_tuned_radixsort910932652
	sim-cache -cache:dl1 dl1:1:32:256:l -cache:dl2 dl2:1:32:131072:l -cache:il1 il1:1:32:256:l -cache:il2 dl2 aligned_memory_tuned_radixsort910932652
	sim-cache -cache:dl1 dl1:1:32:256:l -cache:dl2 dl2:1:32:65536:l -cache:il1 il1:1:32:256:l -cache:il2 dl2 aligned_memory_tuned_radixsort910932652
	sim-bpred -bpred bimod -bpred:bimod 512 aligned_memory_tuned_radixsort910932652
	sim-bpred -bpred bimod -bpred:bimod 1024 aligned_memory_tuned_radixsort910932652
	sim-bpred -bpred bimod -bpred:bimod 2048 aligned_memory_tuned_radixsort910932652
	sim-bpred -bpred 2lev -bpred:2lev 1 512 10 1 aligned_memory_tuned_radixsort910932652
	sim-bpred -bpred 2lev -bpred:2lev 1 1024 10 1 aligned_memory_tuned_radixsort910932652
	sim-bpred -bpred 2lev -bpred:2lev 1 2048 10 1 aligned_memory_tuned_radixsort910932652
	sim-bpred -bpred 2lev -bpred:2lev 1 4096 10 1 aligned_memory_tuned_radixsort910932652
	sslittle-na-sstrix-gcc -Wall -O3 -funroll-loops -finline-functions  -DRANDOM_SIZE=65536 -DOFFSET=4 -DSORT=aligned_memory_tuned_radixsort sorts/aligned_memory_tuned_radixsort1076017367.c simpleMain.c -o aligned_memory_tuned_radixsort910932652
	sim-cache -cache:dl1 dl1:256:32:1:l -cache:dl2 dl2:131072:32:1:l -cache:il1 il1:256:32:1:l -cache:il2 dl2 aligned_memory_tuned_radixsort910932652
	sim-cache -cache:dl1 dl1:256:32:1:l -cache:dl2 dl2:65536:32:1:l -cache:il1 il1:256:32:1:l -cache:il2 dl2 aligned_memory_tuned_radixsort910932652
	sim-cache -cache:dl1 dl1:1:32:256:l -cache:dl2 dl2:1:32:131072:l -cache:il1 il1:1:32:256:l -cache:il2 dl2 aligned_memory_tuned_radixsort910932652
	sim-cache -cache:dl1 dl1:1:32:256:l -cache:dl2 dl2:1:32:65536:l -cache:il1 il1:1:32:256:l -cache:il2 dl2 aligned_memory_tuned_radixsort910932652
	sim-bpred -bpred bimod -bpred:bimod 512 aligned_memory_tuned_radixsort910932652
	sim-bpred -bpred bimod -bpred:bimod 1024 aligned_memory_tuned_radixsort910932652
	sim-bpred -bpred bimod -bpred:bimod 2048 aligned_memory_tuned_radixsort910932652
	sim-bpred -bpred 2lev -bpred:2lev 1 512 10 1 aligned_memory_tuned_radixsort910932652
	sim-bpred -bpred 2lev -bpred:2lev 1 1024 10 1 aligned_memory_tuned_radixsort910932652
	sim-bpred -bpred 2lev -bpred:2lev 1 2048 10 1 aligned_memory_tuned_radixsort910932652
	sim-bpred -bpred 2lev -bpred:2lev 1 4096 10 1 aligned_memory_tuned_radixsort910932652
	sslittle-na-sstrix-gcc -Wall -O3 -funroll-loops -finline-functions  -DRANDOM_SIZE=131072 -DOFFSET=4 -DSORT=aligned_memory_tuned_radixsort sorts/aligned_memory_tuned_radixsort1076017367.c simpleMain.c -o aligned_memory_tuned_radixsort910932652
	sim-cache -cache:dl1 dl1:256:32:1:l -cache:dl2 dl2:131072:32:1:l -cache:il1 il1:256:32:1:l -cache:il2 dl2 aligned_memory_tuned_radixsort910932652
	sim-cache -cache:dl1 dl1:256:32:1:l -cache:dl2 dl2:65536:32:1:l -cache:il1 il1:256:32:1:l -cache:il2 dl2 aligned_memory_tuned_radixsort910932652
	sim-cache -cache:dl1 dl1:1:32:256:l -cache:dl2 dl2:1:32:131072:l -cache:il1 il1:1:32:256:l -cache:il2 dl2 aligned_memory_tuned_radixsort910932652
	sim-cache -cache:dl1 dl1:1:32:256:l -cache:dl2 dl2:1:32:65536:l -cache:il1 il1:1:32:256:l -cache:il2 dl2 aligned_memory_tuned_radixsort910932652
	sim-bpred -bpred bimod -bpred:bimod 512 aligned_memory_tuned_radixsort910932652
	sim-bpred -bpred bimod -bpred:bimod 1024 aligned_memory_tuned_radixsort910932652
	sim-bpred -bpred bimod -bpred:bimod 2048 aligned_memory_tuned_radixsort910932652
	sim-bpred -bpred 2lev -bpred:2lev 1 512 10 1 aligned_memory_tuned_radixsort910932652
	sim-bpred -bpred 2lev -bpred:2lev 1 1024 10 1 aligned_memory_tuned_radixsort910932652
	sim-bpred -bpred 2lev -bpred:2lev 1 2048 10 1 aligned_memory_tuned_radixsort910932652
	sim-bpred -bpred 2lev -bpred:2lev 1 4096 10 1 aligned_memory_tuned_radixsort910932652
	sslittle-na-sstrix-gcc -Wall -O3 -funroll-loops -finline-functions  -DRANDOM_SIZE=262144 -DOFFSET=4 -DSORT=aligned_memory_tuned_radixsort sorts/aligned_memory_tuned_radixsort1076017367.c simpleMain.c -o aligned_memory_tuned_radixsort910932652
	sim-cache -cache:dl1 dl1:256:32:1:l -cache:dl2 dl2:131072:32:1:l -cache:il1 il1:256:32:1:l -cache:il2 dl2 aligned_memory_tuned_radixsort910932652
	sim-cache -cache:dl1 dl1:256:32:1:l -cache:dl2 dl2:65536:32:1:l -cache:il1 il1:256:32:1:l -cache:il2 dl2 aligned_memory_tuned_radixsort910932652
	sim-cache -cache:dl1 dl1:1:32:256:l -cache:dl2 dl2:1:32:131072:l -cache:il1 il1:1:32:256:l -cache:il2 dl2 aligned_memory_tuned_radixsort910932652
	sim-cache -cache:dl1 dl1:1:32:256:l -cache:dl2 dl2:1:32:65536:l -cache:il1 il1:1:32:256:l -cache:il2 dl2 aligned_memory_tuned_radixsort910932652
	sim-bpred -bpred bimod -bpred:bimod 512 aligned_memory_tuned_radixsort910932652
	sim-bpred -bpred bimod -bpred:bimod 1024 aligned_memory_tuned_radixsort910932652
	sim-bpred -bpred bimod -bpred:bimod 2048 aligned_memory_tuned_radixsort910932652
	sim-bpred -bpred 2lev -bpred:2lev 1 512 10 1 aligned_memory_tuned_radixsort910932652
	sim-bpred -bpred 2lev -bpred:2lev 1 1024 10 1 aligned_memory_tuned_radixsort910932652
	sim-bpred -bpred 2lev -bpred:2lev 1 2048 10 1 aligned_memory_tuned_radixsort910932652
	sim-bpred -bpred 2lev -bpred:2lev 1 4096 10 1 aligned_memory_tuned_radixsort910932652
	sslittle-na-sstrix-gcc -Wall -O3 -funroll-loops -finline-functions  -DRANDOM_SIZE=524288 -DOFFSET=4 -DSORT=aligned_memory_tuned_radixsort sorts/aligned_memory_tuned_radixsort1076017367.c simpleMain.c -o aligned_memory_tuned_radixsort910932652
	sim-cache -cache:dl1 dl1:256:32:1:l -cache:dl2 dl2:131072:32:1:l -cache:il1 il1:256:32:1:l -cache:il2 dl2 aligned_memory_tuned_radixsort910932652
	sim-cache -cache:dl1 dl1:256:32:1:l -cache:dl2 dl2:65536:32:1:l -cache:il1 il1:256:32:1:l -cache:il2 dl2 aligned_memory_tuned_radixsort910932652
	sim-cache -cache:dl1 dl1:1:32:256:l -cache:dl2 dl2:1:32:131072:l -cache:il1 il1:1:32:256:l -cache:il2 dl2 aligned_memory_tuned_radixsort910932652
	sim-cache -cache:dl1 dl1:1:32:256:l -cache:dl2 dl2:1:32:65536:l -cache:il1 il1:1:32:256:l -cache:il2 dl2 aligned_memory_tuned_radixsort910932652
	sim-bpred -bpred bimod -bpred:bimod 512 aligned_memory_tuned_radixsort910932652
	sim-bpred -bpred bimod -bpred:bimod 1024 aligned_memory_tuned_radixsort910932652
	sim-bpred -bpred bimod -bpred:bimod 2048 aligned_memory_tuned_radixsort910932652
	sim-bpred -bpred 2lev -bpred:2lev 1 512 10 1 aligned_memory_tuned_radixsort910932652
	sim-bpred -bpred 2lev -bpred:2lev 1 1024 10 1 aligned_memory_tuned_radixsort910932652
	sim-bpred -bpred 2lev -bpred:2lev 1 2048 10 1 aligned_memory_tuned_radixsort910932652
	sim-bpred -bpred 2lev -bpred:2lev 1 4096 10 1 aligned_memory_tuned_radixsort910932652
	sslittle-na-sstrix-gcc -Wall -O3 -funroll-loops -finline-functions  -DRANDOM_SIZE=1048576 -DOFFSET=4 -DSORT=aligned_memory_tuned_radixsort sorts/aligned_memory_tuned_radixsort1076017367.c simpleMain.c -o aligned_memory_tuned_radixsort910932652
	sim-cache -cache:dl1 dl1:256:32:1:l -cache:dl2 dl2:131072:32:1:l -cache:il1 il1:256:32:1:l -cache:il2 dl2 aligned_memory_tuned_radixsort910932652
	sim-cache -cache:dl1 dl1:256:32:1:l -cache:dl2 dl2:65536:32:1:l -cache:il1 il1:256:32:1:l -cache:il2 dl2 aligned_memory_tuned_radixsort910932652
	sim-cache -cache:dl1 dl1:1:32:256:l -cache:dl2 dl2:1:32:131072:l -cache:il1 il1:1:32:256:l -cache:il2 dl2 aligned_memory_tuned_radixsort910932652
	sim-cache -cache:dl1 dl1:1:32:256:l -cache:dl2 dl2:1:32:65536:l -cache:il1 il1:1:32:256:l -cache:il2 dl2 aligned_memory_tuned_radixsort910932652
	sim-bpred -bpred bimod -bpred:bimod 512 aligned_memory_tuned_radixsort910932652
	sim-bpred -bpred bimod -bpred:bimod 1024 aligned_memory_tuned_radixsort910932652
	sim-bpred -bpred bimod -bpred:bimod 2048 aligned_memory_tuned_radixsort910932652
	sim-bpred -bpred 2lev -bpred:2lev 1 512 10 1 aligned_memory_tuned_radixsort910932652
	sim-bpred -bpred 2lev -bpred:2lev 1 1024 10 1 aligned_memory_tuned_radixsort910932652
	sim-bpred -bpred 2lev -bpred:2lev 1 2048 10 1 aligned_memory_tuned_radixsort910932652
	sim-bpred -bpred 2lev -bpred:2lev 1 4096 10 1 aligned_memory_tuned_radixsort910932652
	sslittle-na-sstrix-gcc -Wall -O3 -funroll-loops -finline-functions  -DRANDOM_SIZE=2097152 -DOFFSET=4 -DSORT=aligned_memory_tuned_radixsort sorts/aligned_memory_tuned_radixsort1076017367.c simpleMain.c -o aligned_memory_tuned_radixsort910932652
	sim-cache -cache:dl1 dl1:256:32:1:l -cache:dl2 dl2:131072:32:1:l -cache:il1 il1:256:32:1:l -cache:il2 dl2 aligned_memory_tuned_radixsort910932652
	sim-cache -cache:dl1 dl1:256:32:1:l -cache:dl2 dl2:65536:32:1:l -cache:il1 il1:256:32:1:l -cache:il2 dl2 aligned_memory_tuned_radixsort910932652
	sim-cache -cache:dl1 dl1:1:32:256:l -cache:dl2 dl2:1:32:131072:l -cache:il1 il1:1:32:256:l -cache:il2 dl2 aligned_memory_tuned_radixsort910932652
	sim-cache -cache:dl1 dl1:1:32:256:l -cache:dl2 dl2:1:32:65536:l -cache:il1 il1:1:32:256:l -cache:il2 dl2 aligned_memory_tuned_radixsort910932652
	sim-bpred -bpred bimod -bpred:bimod 512 aligned_memory_tuned_radixsort910932652
	sim-bpred -bpred bimod -bpred:bimod 1024 aligned_memory_tuned_radixsort910932652
	sim-bpred -bpred bimod -bpred:bimod 2048 aligned_memory_tuned_radixsort910932652
	sim-bpred -bpred 2lev -bpred:2lev 1 512 10 1 aligned_memory_tuned_radixsort910932652
	sim-bpred -bpred 2lev -bpred:2lev 1 1024 10 1 aligned_memory_tuned_radixsort910932652
	sim-bpred -bpred 2lev -bpred:2lev 1 2048 10 1 aligned_memory_tuned_radixsort910932652
	sim-bpred -bpred 2lev -bpred:2lev 1 4096 10 1 aligned_memory_tuned_radixsort910932652
	sslittle-na-sstrix-gcc -Wall -O3 -funroll-loops -finline-functions  -DRANDOM_SIZE=4194304 -DOFFSET=4 -DSORT=aligned_memory_tuned_radixsort sorts/aligned_memory_tuned_radixsort1076017367.c simpleMain.c -o aligned_memory_tuned_radixsort910932652
	sim-cache -cache:dl1 dl1:256:32:1:l -cache:dl2 dl2:131072:32:1:l -cache:il1 il1:256:32:1:l -cache:il2 dl2 aligned_memory_tuned_radixsort910932652
	sim-cache -cache:dl1 dl1:256:32:1:l -cache:dl2 dl2:65536:32:1:l -cache:il1 il1:256:32:1:l -cache:il2 dl2 aligned_memory_tuned_radixsort910932652
	sim-cache -cache:dl1 dl1:1:32:256:l -cache:dl2 dl2:1:32:131072:l -cache:il1 il1:1:32:256:l -cache:il2 dl2 aligned_memory_tuned_radixsort910932652
	sim-cache -cache:dl1 dl1:1:32:256:l -cache:dl2 dl2:1:32:65536:l -cache:il1 il1:1:32:256:l -cache:il2 dl2 aligned_memory_tuned_radixsort910932652
	sim-bpred -bpred bimod -bpred:bimod 512 aligned_memory_tuned_radixsort910932652
	sim-bpred -bpred bimod -bpred:bimod 1024 aligned_memory_tuned_radixsort910932652
	sim-bpred -bpred bimod -bpred:bimod 2048 aligned_memory_tuned_radixsort910932652
	sim-bpred -bpred 2lev -bpred:2lev 1 512 10 1 aligned_memory_tuned_radixsort910932652
	sim-bpred -bpred 2lev -bpred:2lev 1 1024 10 1 aligned_memory_tuned_radixsort910932652
	sim-bpred -bpred 2lev -bpred:2lev 1 2048 10 1 aligned_memory_tuned_radixsort910932652
	sim-bpred -bpred 2lev -bpred:2lev 1 4096 10 1 aligned_memory_tuned_radixsort910932652
