Mon Jul 11 16:27:24 2005
Run as: "./do_simple -c random.org5 -o 5 aligned_memory_tuned_radixsort"
-------------------------------------------------------------------------------------------------
sim-cache                                     4096 |         4096 |         4096 |         4096 |         8192 |         8192 |         8192 |         8192 |        16384 |        16384 |        16384 |        16384 |        32768 |        32768 |        32768 |        32768 |        65536 |        65536 |        65536 |        65536 |       131072 |       131072 |       131072 |       131072 |       262144 |       262144 |       262144 |       262144 |       524288 |       524288 |       524288 |       524288 |      1048576 |      1048576 |      1048576 |      1048576 |      2097152 |      2097152 |      2097152 |      2097152 |      4194304 |      4194304 |      4194304 |      4194304 |
-cache:dl1 dl1:256:32:1:l -cache:dl2 dl2:131072:32:1:l -cache:il1 il1:256:32:1:l -cache:il2 dl2
-cache:dl1 dl1:256:32:1:l -cache:dl2 dl2:65536:32:1:l -cache:il1 il1:256:32:1:l -cache:il2 dl2
-cache:dl1 dl1:1:32:256:l -cache:dl2 dl2:1:32:131072:l -cache:il1 il1:1:32:256:l -cache:il2 dl2
-cache:dl1 dl1:1:32:256:l -cache:dl2 dl2:1:32:65536:l -cache:il1 il1:1:32:256:l -cache:il2 dl2
-------------------------------------------------------------------------------------------------
sim_num_insn                                378851 |       378851 |       378851 |       378851 |       744423 |       744423 |       744423 |       744423 |      1475561 |      1475561 |      1475561 |      1475561 |      2937834 |      2937834 |      2937834 |      2937834 |      5862378 |      5862378 |      5862378 |      5862378 |     11711467 |     11711467 |     11711467 |     11711467 |     23409643 |     23409643 |     23409643 |     23409643 |     46818471 |     46818471 |     46818471 |     46818471 |     93611175 |     93611175 |     93611175 |     93611175 |    187205807 |    187205807 |    187205807 |    187205807 |    374395063 |    374395063 |    374395063 |    374395063 |
sim_num_refs                                138964 |       138964 |       138964 |       138964 |       270036 |       270036 |       270036 |       270036 |       532180 |       532180 |       532180 |       532180 |      1056468 |      1056468 |      1056468 |      1056468 |      2105044 |      2105044 |      2105044 |      2105044 |      4202196 |      4202196 |      4202196 |      4202196 |      8396500 |      8396500 |      8396500 |      8396500 |     16794370 |     16794370 |     16794370 |     16794370 |     33571586 |     33571586 |     33571586 |     33571586 |     67132162 |     67132162 |     67132162 |     67132162 |    134253314 |    134253314 |    134253314 |    134253314 |
sim_elapsed_time                                 1 |            1 |           10 |            5 |            1 |            1 |           15 |            8 |            1 |            1 |           27 |           13 |            1 |            1 |           48 |           23 |            1 |            1 |           90 |           42 |            4 |            4 |          167 |           70 |            8 |            8 |          271 |           95 |           15 |           16 |          365 |          103 |           31 |           31 |          383 |          122 |           67 |           68 |          436 |          155 |          125 |          124 |          490 |          229 |
sim_inst_rate                          378851.0000 |  378851.0000 |   37885.1000 |   75770.2000 |  744423.0000 |  744423.0000 |   49628.2000 |   93052.8750 | 1475561.0000 | 1475561.0000 |   54650.4074 |  113504.6923 | 2937834.0000 | 2937834.0000 |   61204.8750 |  127731.9130 | 5862378.0000 | 5862378.0000 |   65137.5333 |  139580.4286 | 2927866.7500 | 2927866.7500 |   70128.5449 |  167306.6714 | 2926205.3750 | 2926205.3750 |   86382.4465 |  246417.2947 | 3121231.4000 | 2926154.4375 |  128269.7836 |  454548.2621 | 3019715.3226 | 3019715.3226 |  244415.6005 |  767304.7131 | 2794116.5224 | 2753026.5735 |  429371.1170 | 1207779.4000 | 2995160.5040 | 3019315.0242 |  764071.5571 | 1634912.9389 |
il1.accesses                                378851 |       378851 |       378851 |       378851 |       744423 |       744423 |       744423 |       744423 |      1475561 |      1475561 |      1475561 |      1475561 |      2937834 |      2937834 |      2937834 |      2937834 |      5862378 |      5862378 |      5862378 |      5862378 |     11711467 |     11711467 |     11711467 |     11711467 |     23409643 |     23409643 |     23409643 |     23409643 |     46818471 |     46818471 |     46818471 |     46818471 |     93611175 |     93611175 |     93611175 |     93611175 |    187205807 |    187205807 |    187205807 |    187205807 |    374395063 |    374395063 |    374395063 |    374395063 |
il1.hits                                    378320 |       378320 |       378417 |       378417 |       743891 |       743891 |       743989 |       743989 |      1475020 |      1475020 |      1475126 |      1475126 |      2937298 |      2937298 |      2937397 |      2937397 |      5861842 |      5861842 |      5861941 |      5861941 |     11710931 |     11710931 |     11711030 |     11711030 |     23409107 |     23409107 |     23409206 |     23409206 |     46817892 |     46817892 |     46817999 |     46817999 |     93610596 |     93610596 |     93610703 |     93610703 |    187205228 |    187205228 |    187205335 |    187205335 |    374394484 |    374394484 |    374394591 |    374394591 |
il1.misses                                     531 |          531 |          434 |          434 |          532 |          532 |          434 |          434 |          541 |          541 |          435 |          435 |          536 |          536 |          437 |          437 |          536 |          536 |          437 |          437 |          536 |          536 |          437 |          437 |          536 |          536 |          437 |          437 |          579 |          579 |          472 |          472 |          579 |          579 |          472 |          472 |          579 |          579 |          472 |          472 |          579 |          579 |          472 |          472 |
il1.replacements                               312 |          312 |          178 |          178 |          314 |          314 |          178 |          178 |          319 |          319 |          179 |          179 |          319 |          319 |          181 |          181 |          319 |          319 |          181 |          181 |          319 |          319 |          181 |          181 |          319 |          319 |          181 |          181 |          351 |          351 |          216 |          216 |          351 |          351 |          216 |          216 |          351 |          351 |          216 |          216 |          351 |          351 |          216 |          216 |
il1.writebacks                                   0 |            0 |            0 |            0 |            0 |            0 |            0 |            0 |            0 |            0 |            0 |            0 |            0 |            0 |            0 |            0 |            0 |            0 |            0 |            0 |            0 |            0 |            0 |            0 |            0 |            0 |            0 |            0 |            0 |            0 |            0 |            0 |            0 |            0 |            0 |            0 |            0 |            0 |            0 |            0 |            0 |            0 |            0 |            0 |
il1.invalidations                                0 |            0 |            0 |            0 |            0 |            0 |            0 |            0 |            0 |            0 |            0 |            0 |            0 |            0 |            0 |            0 |            0 |            0 |            0 |            0 |            0 |            0 |            0 |            0 |            0 |            0 |            0 |            0 |            0 |            0 |            0 |            0 |            0 |            0 |            0 |            0 |            0 |            0 |            0 |            0 |            0 |            0 |            0 |            0 |
il1.miss_rate                               0.0014 |       0.0014 |       0.0011 |       0.0011 |       0.0007 |       0.0007 |       0.0006 |       0.0006 |       0.0004 |       0.0004 |       0.0003 |       0.0003 |       0.0002 |       0.0002 |       0.0001 |       0.0001 |       0.0001 |       0.0001 |       0.0001 |       0.0001 |       0.0000 |       0.0000 |       0.0000 |       0.0000 |       0.0000 |       0.0000 |       0.0000 |       0.0000 |       0.0000 |       0.0000 |       0.0000 |       0.0000 |       0.0000 |       0.0000 |       0.0000 |       0.0000 |       0.0000 |       0.0000 |       0.0000 |       0.0000 |       0.0000 |       0.0000 |       0.0000 |       0.0000 |
il1.repl_rate                               0.0008 |       0.0008 |       0.0005 |       0.0005 |       0.0004 |       0.0004 |       0.0002 |       0.0002 |       0.0002 |       0.0002 |       0.0001 |       0.0001 |       0.0001 |       0.0001 |       0.0001 |       0.0001 |       0.0001 |       0.0001 |       0.0000 |       0.0000 |       0.0000 |       0.0000 |       0.0000 |       0.0000 |       0.0000 |       0.0000 |       0.0000 |       0.0000 |       0.0000 |       0.0000 |       0.0000 |       0.0000 |       0.0000 |       0.0000 |       0.0000 |       0.0000 |       0.0000 |       0.0000 |       0.0000 |       0.0000 |       0.0000 |       0.0000 |       0.0000 |       0.0000 |
il1.wb_rate                                 0.0000 |       0.0000 |       0.0000 |       0.0000 |       0.0000 |       0.0000 |       0.0000 |       0.0000 |       0.0000 |       0.0000 |       0.0000 |       0.0000 |       0.0000 |       0.0000 |       0.0000 |       0.0000 |       0.0000 |       0.0000 |       0.0000 |       0.0000 |       0.0000 |       0.0000 |       0.0000 |       0.0000 |       0.0000 |       0.0000 |       0.0000 |       0.0000 |       0.0000 |       0.0000 |       0.0000 |       0.0000 |       0.0000 |       0.0000 |       0.0000 |       0.0000 |       0.0000 |       0.0000 |       0.0000 |       0.0000 |       0.0000 |       0.0000 |       0.0000 |       0.0000 |
il1.inv_rate                                0.0000 |       0.0000 |       0.0000 |       0.0000 |       0.0000 |       0.0000 |       0.0000 |       0.0000 |       0.0000 |       0.0000 |       0.0000 |       0.0000 |       0.0000 |       0.0000 |       0.0000 |       0.0000 |       0.0000 |       0.0000 |       0.0000 |       0.0000 |       0.0000 |       0.0000 |       0.0000 |       0.0000 |       0.0000 |       0.0000 |       0.0000 |       0.0000 |       0.0000 |       0.0000 |       0.0000 |       0.0000 |       0.0000 |       0.0000 |       0.0000 |       0.0000 |       0.0000 |       0.0000 |       0.0000 |       0.0000 |       0.0000 |       0.0000 |       0.0000 |       0.0000 |
dl1.accesses                                155430 |       155430 |       155430 |       155430 |       302886 |       302886 |       302886 |       302886 |       597798 |       597798 |       597798 |       597798 |      1187622 |      1187622 |      1187622 |      1187622 |      2367270 |      2367270 |      2367270 |      2367270 |      4726566 |      4726566 |      4726566 |      4726566 |      9445158 |      9445158 |      9445158 |      9445158 |     18891604 |     18891604 |     18891604 |     18891604 |     37765972 |     37765972 |     37765972 |     37765972 |     75520852 |     75520852 |     75520852 |     75520852 |    151030612 |    151030612 |    151030612 |    151030612 |
dl1.hits                                    138851 |       138851 |       143993 |       143993 |       269518 |       269518 |       280532 |       280532 |       530115 |       530115 |       553942 |       553942 |      1054081 |      1054081 |      1101032 |      1101032 |      2096378 |      2096378 |      2195453 |      2195453 |      4158919 |      4158919 |      4383470 |      4383470 |      8263202 |      8263202 |      8759487 |      8759487 |     16450902 |     16450902 |     17520349 |     17520349 |     33017508 |     33017508 |     35024971 |     35024971 |     66442359 |     66442359 |     70039741 |     70039741 |    133136686 |    133136686 |    140064387 |    140064387 |
dl1.misses                                   16579 |        16579 |        11437 |        11437 |        33368 |        33368 |        22354 |        22354 |        67683 |        67683 |        43856 |        43856 |       133541 |       133541 |        86590 |        86590 |       270892 |       270892 |       171817 |       171817 |       567647 |       567647 |       343096 |       343096 |      1181956 |      1181956 |       685671 |       685671 |      2440702 |      2440702 |      1371255 |      1371255 |      4748464 |      4748464 |      2741001 |      2741001 |      9078493 |      9078493 |      5481111 |      5481111 |     17893926 |     17893926 |     10966225 |     10966225 |
dl1.replacements                             16323 |        16323 |        11181 |        11181 |        33112 |        33112 |        22098 |        22098 |        67427 |        67427 |        43600 |        43600 |       133285 |       133285 |        86334 |        86334 |       270636 |       270636 |       171561 |       171561 |       567391 |       567391 |       342840 |       342840 |      1181700 |      1181700 |       685415 |       685415 |      2440446 |      2440446 |      1370999 |      1370999 |      4748208 |      4748208 |      2740745 |      2740745 |      9078237 |      9078237 |      5480855 |      5480855 |     17893670 |     17893670 |     10965969 |     10965969 |
dl1.writebacks                               13709 |        13709 |         8663 |         8663 |        27713 |        27713 |        17006 |        17006 |        56559 |        56559 |        33381 |        33381 |       111436 |       111436 |        65871 |        65871 |       226865 |       226865 |       130616 |       130616 |       479798 |       479798 |       260934 |       260934 |      1006345 |      1006345 |       521590 |       521590 |      2089178 |      2089178 |      1042946 |      1042946 |      4046151 |      4046151 |      2085011 |      2085011 |      7673625 |      7673625 |      4169762 |      4169762 |     15085650 |     15085650 |      8344155 |      8344155 |
dl1.invalidations                                0 |            0 |            0 |            0 |            0 |            0 |            0 |            0 |            0 |            0 |            0 |            0 |            0 |            0 |            0 |            0 |            0 |            0 |            0 |            0 |            0 |            0 |            0 |            0 |            0 |            0 |            0 |            0 |            0 |            0 |            0 |            0 |            0 |            0 |            0 |            0 |            0 |            0 |            0 |            0 |            0 |            0 |            0 |            0 |
dl1.miss_rate                               0.1067 |       0.1067 |       0.0736 |       0.0736 |       0.1102 |       0.1102 |       0.0738 |       0.0738 |       0.1132 |       0.1132 |       0.0734 |       0.0734 |       0.1124 |       0.1124 |       0.0729 |       0.0729 |       0.1144 |       0.1144 |       0.0726 |       0.0726 |       0.1201 |       0.1201 |       0.0726 |       0.0726 |       0.1251 |       0.1251 |       0.0726 |       0.0726 |       0.1292 |       0.1292 |       0.0726 |       0.0726 |       0.1257 |       0.1257 |       0.0726 |       0.0726 |       0.1202 |       0.1202 |       0.0726 |       0.0726 |       0.1185 |       0.1185 |       0.0726 |       0.0726 |
dl1.repl_rate                               0.1050 |       0.1050 |       0.0719 |       0.0719 |       0.1093 |       0.1093 |       0.0730 |       0.0730 |       0.1128 |       0.1128 |       0.0729 |       0.0729 |       0.1122 |       0.1122 |       0.0727 |       0.0727 |       0.1143 |       0.1143 |       0.0725 |       0.0725 |       0.1200 |       0.1200 |       0.0725 |       0.0725 |       0.1251 |       0.1251 |       0.0726 |       0.0726 |       0.1292 |       0.1292 |       0.0726 |       0.0726 |       0.1257 |       0.1257 |       0.0726 |       0.0726 |       0.1202 |       0.1202 |       0.0726 |       0.0726 |       0.1185 |       0.1185 |       0.0726 |       0.0726 |
dl1.wb_rate                                 0.0882 |       0.0882 |       0.0557 |       0.0557 |       0.0915 |       0.0915 |       0.0561 |       0.0561 |       0.0946 |       0.0946 |       0.0558 |       0.0558 |       0.0938 |       0.0938 |       0.0555 |       0.0555 |       0.0958 |       0.0958 |       0.0552 |       0.0552 |       0.1015 |       0.1015 |       0.0552 |       0.0552 |       0.1065 |       0.1065 |       0.0552 |       0.0552 |       0.1106 |       0.1106 |       0.0552 |       0.0552 |       0.1071 |       0.1071 |       0.0552 |       0.0552 |       0.1016 |       0.1016 |       0.0552 |       0.0552 |       0.0999 |       0.0999 |       0.0552 |       0.0552 |
dl1.inv_rate                                0.0000 |       0.0000 |       0.0000 |       0.0000 |       0.0000 |       0.0000 |       0.0000 |       0.0000 |       0.0000 |       0.0000 |       0.0000 |       0.0000 |       0.0000 |       0.0000 |       0.0000 |       0.0000 |       0.0000 |       0.0000 |       0.0000 |       0.0000 |       0.0000 |       0.0000 |       0.0000 |       0.0000 |       0.0000 |       0.0000 |       0.0000 |       0.0000 |       0.0000 |       0.0000 |       0.0000 |       0.0000 |       0.0000 |       0.0000 |       0.0000 |       0.0000 |       0.0000 |       0.0000 |       0.0000 |       0.0000 |       0.0000 |       0.0000 |       0.0000 |       0.0000 |
dl2.accesses                                 30819 |        30819 |        20534 |        20534 |        61613 |        61613 |        39794 |        39794 |       124783 |       124783 |        77672 |        77672 |       245513 |       245513 |       152898 |       152898 |       498293 |       498293 |       302870 |       302870 |      1047981 |      1047981 |       604467 |       604467 |      2188837 |      2188837 |      1207698 |      1207698 |      4530459 |      4530459 |      2414673 |      2414673 |      8795194 |      8795194 |      4826484 |      4826484 |     16752697 |     16752697 |      9651345 |      9651345 |     32980155 |     32980155 |     19310852 |     19310852 |
dl2.hits                                     28901 |        28901 |        18633 |        18633 |        58670 |        58670 |        36869 |        36869 |       119791 |       119791 |        72697 |        72697 |       236420 |       236420 |       143827 |       143827 |       481008 |       481008 |       285607 |       285607 |      1014312 |      1014312 |       570820 |       570820 |      2122400 |      2121416 |      1141283 |      1138919 |      4233289 |      4050855 |      2279005 |      1816491 |      7908164 |      7486642 |      3632883 |      3539560 |     14144339 |     14047076 |      7079560 |      7038776 |     27615806 |     27414695 |     14087819 |     14068617 |
dl2.misses                                    1918 |         1918 |         1901 |         1901 |         2943 |         2943 |         2925 |         2925 |         4992 |         4992 |         4975 |         4975 |         9093 |         9093 |         9071 |         9071 |        17285 |        17285 |        17263 |        17263 |        33669 |        33669 |        33647 |        33647 |        66437 |        67421 |        66415 |        68779 |       297170 |       479604 |       135668 |       598182 |       887030 |      1308552 |      1193601 |      1286924 |      2608358 |      2705621 |      2571785 |      2612569 |      5364349 |      5565460 |      5223033 |      5242235 |
dl2.replacements                               130 |          130 |            0 |            0 |          129 |          129 |            0 |            0 |          128 |          128 |            0 |            0 |          133 |          133 |            0 |            0 |          133 |          133 |            0 |            0 |          133 |          133 |            0 |            0 |          133 |         1942 |            0 |         3243 |       197357 |       414068 |         4596 |       532646 |       755958 |      1243016 |      1062529 |      1221388 |      2477286 |      2640085 |      2440713 |      2547033 |      5233277 |      5499924 |      5091961 |      5176699 |
dl2.writebacks                                  66 |           66 |            0 |            0 |           64 |           64 |            0 |            0 |           64 |           64 |            0 |            0 |           64 |           64 |            0 |            0 |           64 |           64 |            0 |            0 |           64 |           64 |            0 |            0 |           64 |         1172 |            0 |         3004 |       158148 |       301347 |         4286 |       297017 |       596089 |       667329 |       591911 |       624741 |      1315604 |      1387794 |      1248062 |      1280929 |      2744837 |      2938156 |      2560371 |      2593305 |
dl2.invalidations                                0 |            0 |            0 |            0 |            0 |            0 |            0 |            0 |            0 |            0 |            0 |            0 |            0 |            0 |            0 |            0 |            0 |            0 |            0 |            0 |            0 |            0 |            0 |            0 |            0 |            0 |            0 |            0 |            0 |            0 |            0 |            0 |            0 |            0 |            0 |            0 |            0 |            0 |            0 |            0 |            0 |            0 |            0 |            0 |
dl2.miss_rate                               0.0622 |       0.0622 |       0.0926 |       0.0926 |       0.0478 |       0.0478 |       0.0735 |       0.0735 |       0.0400 |       0.0400 |       0.0641 |       0.0641 |       0.0370 |       0.0370 |       0.0593 |       0.0593 |       0.0347 |       0.0347 |       0.0570 |       0.0570 |       0.0321 |       0.0321 |       0.0557 |       0.0557 |       0.0304 |       0.0308 |       0.0550 |       0.0570 |       0.0656 |       0.1059 |       0.0562 |       0.2477 |       0.1009 |       0.1488 |       0.2473 |       0.2666 |       0.1557 |       0.1615 |       0.2665 |       0.2707 |       0.1627 |       0.1688 |       0.2705 |       0.2715 |
dl2.repl_rate                               0.0042 |       0.0042 |       0.0000 |       0.0000 |       0.0021 |       0.0021 |       0.0000 |       0.0000 |       0.0010 |       0.0010 |       0.0000 |       0.0000 |       0.0005 |       0.0005 |       0.0000 |       0.0000 |       0.0003 |       0.0003 |       0.0000 |       0.0000 |       0.0001 |       0.0001 |       0.0000 |       0.0000 |       0.0001 |       0.0009 |       0.0000 |       0.0027 |       0.0436 |       0.0914 |       0.0019 |       0.2206 |       0.0860 |       0.1413 |       0.2201 |       0.2531 |       0.1479 |       0.1576 |       0.2529 |       0.2639 |       0.1587 |       0.1668 |       0.2637 |       0.2681 |
dl2.wb_rate                                 0.0021 |       0.0021 |       0.0000 |       0.0000 |       0.0010 |       0.0010 |       0.0000 |       0.0000 |       0.0005 |       0.0005 |       0.0000 |       0.0000 |       0.0003 |       0.0003 |       0.0000 |       0.0000 |       0.0001 |       0.0001 |       0.0000 |       0.0000 |       0.0001 |       0.0001 |       0.0000 |       0.0000 |       0.0000 |       0.0005 |       0.0000 |       0.0025 |       0.0349 |       0.0665 |       0.0018 |       0.1230 |       0.0678 |       0.0759 |       0.1226 |       0.1294 |       0.0785 |       0.0828 |       0.1293 |       0.1327 |       0.0832 |       0.0891 |       0.1326 |       0.1343 |
dl2.inv_rate                                0.0000 |       0.0000 |       0.0000 |       0.0000 |       0.0000 |       0.0000 |       0.0000 |       0.0000 |       0.0000 |       0.0000 |       0.0000 |       0.0000 |       0.0000 |       0.0000 |       0.0000 |       0.0000 |       0.0000 |       0.0000 |       0.0000 |       0.0000 |       0.0000 |       0.0000 |       0.0000 |       0.0000 |       0.0000 |       0.0000 |       0.0000 |       0.0000 |       0.0000 |       0.0000 |       0.0000 |       0.0000 |       0.0000 |       0.0000 |       0.0000 |       0.0000 |       0.0000 |       0.0000 |       0.0000 |       0.0000 |       0.0000 |       0.0000 |       0.0000 |       0.0000 |
itlb.accesses                               378851 |       378851 |       378851 |       378851 |       744423 |       744423 |       744423 |       744423 |      1475561 |      1475561 |      1475561 |      1475561 |      2937834 |      2937834 |      2937834 |      2937834 |      5862378 |      5862378 |      5862378 |      5862378 |     11711467 |     11711467 |     11711467 |     11711467 |     23409643 |     23409643 |     23409643 |     23409643 |     46818471 |     46818471 |     46818471 |     46818471 |     93611175 |     93611175 |     93611175 |     93611175 |    187205807 |    187205807 |    187205807 |    187205807 |    374395063 |    374395063 |    374395063 |    374395063 |
itlb.hits                                   378842 |       378842 |       378842 |       378842 |       744414 |       744414 |       744414 |       744414 |      1475552 |      1475552 |      1475552 |      1475552 |      2937825 |      2937825 |      2937825 |      2937825 |      5862369 |      5862369 |      5862369 |      5862369 |     11711458 |     11711458 |     11711458 |     11711458 |     23409634 |     23409634 |     23409634 |     23409634 |     46818462 |     46818462 |     46818462 |     46818462 |     93611166 |     93611166 |     93611166 |     93611166 |    187205798 |    187205798 |    187205798 |    187205798 |    374395054 |    374395054 |    374395054 |    374395054 |
itlb.misses                                      9 |            9 |            9 |            9 |            9 |            9 |            9 |            9 |            9 |            9 |            9 |            9 |            9 |            9 |            9 |            9 |            9 |            9 |            9 |            9 |            9 |            9 |            9 |            9 |            9 |            9 |            9 |            9 |            9 |            9 |            9 |            9 |            9 |            9 |            9 |            9 |            9 |            9 |            9 |            9 |            9 |            9 |            9 |            9 |
itlb.replacements                                0 |            0 |            0 |            0 |            0 |            0 |            0 |            0 |            0 |            0 |            0 |            0 |            0 |            0 |            0 |            0 |            0 |            0 |            0 |            0 |            0 |            0 |            0 |            0 |            0 |            0 |            0 |            0 |            0 |            0 |            0 |            0 |            0 |            0 |            0 |            0 |            0 |            0 |            0 |            0 |            0 |            0 |            0 |            0 |
itlb.writebacks                                  0 |            0 |            0 |            0 |            0 |            0 |            0 |            0 |            0 |            0 |            0 |            0 |            0 |            0 |            0 |            0 |            0 |            0 |            0 |            0 |            0 |            0 |            0 |            0 |            0 |            0 |            0 |            0 |            0 |            0 |            0 |            0 |            0 |            0 |            0 |            0 |            0 |            0 |            0 |            0 |            0 |            0 |            0 |            0 |
itlb.invalidations                               0 |            0 |            0 |            0 |            0 |            0 |            0 |            0 |            0 |            0 |            0 |            0 |            0 |            0 |            0 |            0 |            0 |            0 |            0 |            0 |            0 |            0 |            0 |            0 |            0 |            0 |            0 |            0 |            0 |            0 |            0 |            0 |            0 |            0 |            0 |            0 |            0 |            0 |            0 |            0 |            0 |            0 |            0 |            0 |
itlb.miss_rate                              0.0000 |       0.0000 |       0.0000 |       0.0000 |       0.0000 |       0.0000 |       0.0000 |       0.0000 |       0.0000 |       0.0000 |       0.0000 |       0.0000 |       0.0000 |       0.0000 |       0.0000 |       0.0000 |       0.0000 |       0.0000 |       0.0000 |       0.0000 |       0.0000 |       0.0000 |       0.0000 |       0.0000 |       0.0000 |       0.0000 |       0.0000 |       0.0000 |       0.0000 |       0.0000 |       0.0000 |       0.0000 |       0.0000 |       0.0000 |       0.0000 |       0.0000 |       0.0000 |       0.0000 |       0.0000 |       0.0000 |       0.0000 |       0.0000 |       0.0000 |       0.0000 |
itlb.repl_rate                              0.0000 |       0.0000 |       0.0000 |       0.0000 |       0.0000 |       0.0000 |       0.0000 |       0.0000 |       0.0000 |       0.0000 |       0.0000 |       0.0000 |       0.0000 |       0.0000 |       0.0000 |       0.0000 |       0.0000 |       0.0000 |       0.0000 |       0.0000 |       0.0000 |       0.0000 |       0.0000 |       0.0000 |       0.0000 |       0.0000 |       0.0000 |       0.0000 |       0.0000 |       0.0000 |       0.0000 |       0.0000 |       0.0000 |       0.0000 |       0.0000 |       0.0000 |       0.0000 |       0.0000 |       0.0000 |       0.0000 |       0.0000 |       0.0000 |       0.0000 |       0.0000 |
itlb.wb_rate                                0.0000 |       0.0000 |       0.0000 |       0.0000 |       0.0000 |       0.0000 |       0.0000 |       0.0000 |       0.0000 |       0.0000 |       0.0000 |       0.0000 |       0.0000 |       0.0000 |       0.0000 |       0.0000 |       0.0000 |       0.0000 |       0.0000 |       0.0000 |       0.0000 |       0.0000 |       0.0000 |       0.0000 |       0.0000 |       0.0000 |       0.0000 |       0.0000 |       0.0000 |       0.0000 |       0.0000 |       0.0000 |       0.0000 |       0.0000 |       0.0000 |       0.0000 |       0.0000 |       0.0000 |       0.0000 |       0.0000 |       0.0000 |       0.0000 |       0.0000 |       0.0000 |
itlb.inv_rate                               0.0000 |       0.0000 |       0.0000 |       0.0000 |       0.0000 |       0.0000 |       0.0000 |       0.0000 |       0.0000 |       0.0000 |       0.0000 |       0.0000 |       0.0000 |       0.0000 |       0.0000 |       0.0000 |       0.0000 |       0.0000 |       0.0000 |       0.0000 |       0.0000 |       0.0000 |       0.0000 |       0.0000 |       0.0000 |       0.0000 |       0.0000 |       0.0000 |       0.0000 |       0.0000 |       0.0000 |       0.0000 |       0.0000 |       0.0000 |       0.0000 |       0.0000 |       0.0000 |       0.0000 |       0.0000 |       0.0000 |       0.0000 |       0.0000 |       0.0000 |       0.0000 |
dtlb.accesses                               155430 |       155430 |       155430 |       155430 |       302886 |       302886 |       302886 |       302886 |       597798 |       597798 |       597798 |       597798 |      1187622 |      1187622 |      1187622 |      1187622 |      2367270 |      2367270 |      2367270 |      2367270 |      4726566 |      4726566 |      4726566 |      4726566 |      9445158 |      9445158 |      9445158 |      9445158 |     18891604 |     18891604 |     18891604 |     18891604 |     37765972 |     37765972 |     37765972 |     37765972 |     75520852 |     75520852 |     75520852 |     75520852 |    151030612 |    151030612 |    151030612 |    151030612 |
dtlb.hits                                   155414 |       155414 |       155414 |       155414 |       302862 |       302862 |       302862 |       302862 |       597758 |       597758 |       597758 |       597758 |      1187550 |      1187550 |      1187550 |      1187550 |      2367110 |      2367110 |      2367110 |      2367110 |      4716135 |      4716135 |      4716135 |      4716135 |      8919929 |      8919929 |      8919929 |      8919929 |     17557073 |     17557073 |     17557073 |     17557073 |     34516617 |     34516617 |     34516617 |     34516617 |     68339649 |     68339649 |     68339649 |     68339649 |    135654231 |    135654231 |    135654231 |    135654231 |
dtlb.misses                                     16 |           16 |           16 |           16 |           24 |           24 |           24 |           24 |           40 |           40 |           40 |           40 |           72 |           72 |           72 |           72 |          160 |          160 |          160 |          160 |        10431 |        10431 |        10431 |        10431 |       525229 |       525229 |       525229 |       525229 |      1334531 |      1334531 |      1334531 |      1334531 |      3249355 |      3249355 |      3249355 |      3249355 |      7181203 |      7181203 |      7181203 |      7181203 |     15376381 |     15376381 |     15376381 |     15376381 |
dtlb.replacements                                0 |            0 |            0 |            0 |            0 |            0 |            0 |            0 |            0 |            0 |            0 |            0 |            0 |            0 |            0 |            0 |           32 |           32 |           32 |           32 |        10303 |        10303 |        10303 |        10303 |       525101 |       525101 |       525101 |       525101 |      1334403 |      1334403 |      1334403 |      1334403 |      3249227 |      3249227 |      3249227 |      3249227 |      7181075 |      7181075 |      7181075 |      7181075 |     15376253 |     15376253 |     15376253 |     15376253 |
dtlb.writebacks                                  0 |            0 |            0 |            0 |            0 |            0 |            0 |            0 |            0 |            0 |            0 |            0 |            0 |            0 |            0 |            0 |           25 |           25 |           25 |           25 |         9772 |         9772 |         9772 |         9772 |       523819 |       523819 |       523819 |       523819 |      1331858 |      1331858 |      1331858 |      1331858 |      3244196 |      3244196 |      3244196 |      3244196 |      7170923 |      7170923 |      7170923 |      7170923 |     15355878 |     15355878 |     15355878 |     15355878 |
dtlb.invalidations                               0 |            0 |            0 |            0 |            0 |            0 |            0 |            0 |            0 |            0 |            0 |            0 |            0 |            0 |            0 |            0 |            0 |            0 |            0 |            0 |            0 |            0 |            0 |            0 |            0 |            0 |            0 |            0 |            0 |            0 |            0 |            0 |            0 |            0 |            0 |            0 |            0 |            0 |            0 |            0 |            0 |            0 |            0 |            0 |
dtlb.miss_rate                              0.0001 |       0.0001 |       0.0001 |       0.0001 |       0.0001 |       0.0001 |       0.0001 |       0.0001 |       0.0001 |       0.0001 |       0.0001 |       0.0001 |       0.0001 |       0.0001 |       0.0001 |       0.0001 |       0.0001 |       0.0001 |       0.0001 |       0.0001 |       0.0022 |       0.0022 |       0.0022 |       0.0022 |       0.0556 |       0.0556 |       0.0556 |       0.0556 |       0.0706 |       0.0706 |       0.0706 |       0.0706 |       0.0860 |       0.0860 |       0.0860 |       0.0860 |       0.0951 |       0.0951 |       0.0951 |       0.0951 |       0.1018 |       0.1018 |       0.1018 |       0.1018 |
dtlb.repl_rate                              0.0000 |       0.0000 |       0.0000 |       0.0000 |       0.0000 |       0.0000 |       0.0000 |       0.0000 |       0.0000 |       0.0000 |       0.0000 |       0.0000 |       0.0000 |       0.0000 |       0.0000 |       0.0000 |       0.0000 |       0.0000 |       0.0000 |       0.0000 |       0.0022 |       0.0022 |       0.0022 |       0.0022 |       0.0556 |       0.0556 |       0.0556 |       0.0556 |       0.0706 |       0.0706 |       0.0706 |       0.0706 |       0.0860 |       0.0860 |       0.0860 |       0.0860 |       0.0951 |       0.0951 |       0.0951 |       0.0951 |       0.1018 |       0.1018 |       0.1018 |       0.1018 |
dtlb.wb_rate                                0.0000 |       0.0000 |       0.0000 |       0.0000 |       0.0000 |       0.0000 |       0.0000 |       0.0000 |       0.0000 |       0.0000 |       0.0000 |       0.0000 |       0.0000 |       0.0000 |       0.0000 |       0.0000 |       0.0000 |       0.0000 |       0.0000 |       0.0000 |       0.0021 |       0.0021 |       0.0021 |       0.0021 |       0.0555 |       0.0555 |       0.0555 |       0.0555 |       0.0705 |       0.0705 |       0.0705 |       0.0705 |       0.0859 |       0.0859 |       0.0859 |       0.0859 |       0.0950 |       0.0950 |       0.0950 |       0.0950 |       0.1017 |       0.1017 |       0.1017 |       0.1017 |
dtlb.inv_rate                               0.0000 |       0.0000 |       0.0000 |       0.0000 |       0.0000 |       0.0000 |       0.0000 |       0.0000 |       0.0000 |       0.0000 |       0.0000 |       0.0000 |       0.0000 |       0.0000 |       0.0000 |       0.0000 |       0.0000 |       0.0000 |       0.0000 |       0.0000 |       0.0000 |       0.0000 |       0.0000 |       0.0000 |       0.0000 |       0.0000 |       0.0000 |       0.0000 |       0.0000 |       0.0000 |       0.0000 |       0.0000 |       0.0000 |       0.0000 |       0.0000 |       0.0000 |       0.0000 |       0.0000 |       0.0000 |       0.0000 |       0.0000 |       0.0000 |       0.0000 |       0.0000 |
ld_text_base                            0x00400000 |   0x00400000 |   0x00400000 |   0x00400000 |   0x00400000 |   0x00400000 |   0x00400000 |   0x00400000 |   0x00400000 |   0x00400000 |   0x00400000 |   0x00400000 |   0x00400000 |   0x00400000 |   0x00400000 |   0x00400000 |   0x00400000 |   0x00400000 |   0x00400000 |   0x00400000 |   0x00400000 |   0x00400000 |   0x00400000 |   0x00400000 |   0x00400000 |   0x00400000 |   0x00400000 |   0x00400000 |   0x00400000 |   0x00400000 |   0x00400000 |   0x00400000 |   0x00400000 |   0x00400000 |   0x00400000 |   0x00400000 |   0x00400000 |   0x00400000 |   0x00400000 |   0x00400000 |   0x00400000 |   0x00400000 |   0x00400000 |   0x00400000 |
ld_text_size                                 74416 |        74416 |        74416 |        74416 |        74448 |        74448 |        74448 |        74448 |        74464 |        74464 |        74464 |        74464 |        74480 |        74480 |        74480 |        74480 |        74480 |        74480 |        74480 |        74480 |        74480 |        74480 |        74480 |        74480 |        74480 |        74480 |        74480 |        74480 |        74480 |        74480 |        74480 |        74480 |        74480 |        74480 |        74480 |        74480 |        74480 |        74480 |        74480 |        74480 |        74480 |        74480 |        74480 |        74480 |
ld_data_base                            0x10000000 |   0x10000000 |   0x10000000 |   0x10000000 |   0x10000000 |   0x10000000 |   0x10000000 |   0x10000000 |   0x10000000 |   0x10000000 |   0x10000000 |   0x10000000 |   0x10000000 |   0x10000000 |   0x10000000 |   0x10000000 |   0x10000000 |   0x10000000 |   0x10000000 |   0x10000000 |   0x10000000 |   0x10000000 |   0x10000000 |   0x10000000 |   0x10000000 |   0x10000000 |   0x10000000 |   0x10000000 |   0x10000000 |   0x10000000 |   0x10000000 |   0x10000000 |   0x10000000 |   0x10000000 |   0x10000000 |   0x10000000 |   0x10000000 |   0x10000000 |   0x10000000 |   0x10000000 |   0x10000000 |   0x10000000 |   0x10000000 |   0x10000000 |
ld_data_size                                  8192 |         8192 |         8192 |         8192 |         8192 |         8192 |         8192 |         8192 |         8192 |         8192 |         8192 |         8192 |         8192 |         8192 |         8192 |         8192 |         8192 |         8192 |         8192 |         8192 |         8192 |         8192 |         8192 |         8192 |         8192 |         8192 |         8192 |         8192 |         8192 |         8192 |         8192 |         8192 |         8192 |         8192 |         8192 |         8192 |         8192 |         8192 |         8192 |         8192 |         8192 |         8192 |         8192 |         8192 |
ld_stack_base                           0x7fffc000 |   0x7fffc000 |   0x7fffc000 |   0x7fffc000 |   0x7fffc000 |   0x7fffc000 |   0x7fffc000 |   0x7fffc000 |   0x7fffc000 |   0x7fffc000 |   0x7fffc000 |   0x7fffc000 |   0x7fffc000 |   0x7fffc000 |   0x7fffc000 |   0x7fffc000 |   0x7fffc000 |   0x7fffc000 |   0x7fffc000 |   0x7fffc000 |   0x7fffc000 |   0x7fffc000 |   0x7fffc000 |   0x7fffc000 |   0x7fffc000 |   0x7fffc000 |   0x7fffc000 |   0x7fffc000 |   0x7fffc000 |   0x7fffc000 |   0x7fffc000 |   0x7fffc000 |   0x7fffc000 |   0x7fffc000 |   0x7fffc000 |   0x7fffc000 |   0x7fffc000 |   0x7fffc000 |   0x7fffc000 |   0x7fffc000 |   0x7fffc000 |   0x7fffc000 |   0x7fffc000 |   0x7fffc000 |
ld_stack_size                                16384 |        16384 |        16384 |        16384 |        16384 |        16384 |        16384 |        16384 |        16384 |        16384 |        16384 |        16384 |        16384 |        16384 |        16384 |        16384 |        16384 |        16384 |        16384 |        16384 |        16384 |        16384 |        16384 |        16384 |        16384 |        16384 |        16384 |        16384 |        16384 |        16384 |        16384 |        16384 |        16384 |        16384 |        16384 |        16384 |        16384 |        16384 |        16384 |        16384 |        16384 |        16384 |        16384 |        16384 |
ld_prog_entry                           0x00400140 |   0x00400140 |   0x00400140 |   0x00400140 |   0x00400140 |   0x00400140 |   0x00400140 |   0x00400140 |   0x00400140 |   0x00400140 |   0x00400140 |   0x00400140 |   0x00400140 |   0x00400140 |   0x00400140 |   0x00400140 |   0x00400140 |   0x00400140 |   0x00400140 |   0x00400140 |   0x00400140 |   0x00400140 |   0x00400140 |   0x00400140 |   0x00400140 |   0x00400140 |   0x00400140 |   0x00400140 |   0x00400140 |   0x00400140 |   0x00400140 |   0x00400140 |   0x00400140 |   0x00400140 |   0x00400140 |   0x00400140 |   0x00400140 |   0x00400140 |   0x00400140 |   0x00400140 |   0x00400140 |   0x00400140 |   0x00400140 |   0x00400140 |
ld_environ_base                         0x7fff8000 |   0x7fff8000 |   0x7fff8000 |   0x7fff8000 |   0x7fff8000 |   0x7fff8000 |   0x7fff8000 |   0x7fff8000 |   0x7fff8000 |   0x7fff8000 |   0x7fff8000 |   0x7fff8000 |   0x7fff8000 |   0x7fff8000 |   0x7fff8000 |   0x7fff8000 |   0x7fff8000 |   0x7fff8000 |   0x7fff8000 |   0x7fff8000 |   0x7fff8000 |   0x7fff8000 |   0x7fff8000 |   0x7fff8000 |   0x7fff8000 |   0x7fff8000 |   0x7fff8000 |   0x7fff8000 |   0x7fff8000 |   0x7fff8000 |   0x7fff8000 |   0x7fff8000 |   0x7fff8000 |   0x7fff8000 |   0x7fff8000 |   0x7fff8000 |   0x7fff8000 |   0x7fff8000 |   0x7fff8000 |   0x7fff8000 |   0x7fff8000 |   0x7fff8000 |   0x7fff8000 |   0x7fff8000 |
ld_target_big_endian                             0 |            0 |            0 |            0 |            0 |            0 |            0 |            0 |            0 |            0 |            0 |            0 |            0 |            0 |            0 |            0 |            0 |            0 |            0 |            0 |            0 |            0 |            0 |            0 |            0 |            0 |            0 |            0 |            0 |            0 |            0 |            0 |            0 |            0 |            0 |            0 |            0 |            0 |            0 |            0 |            0 |            0 |            0 |            0 |
mem.page_count                                  35 |           35 |           35 |           35 |           43 |           43 |           43 |           43 |           59 |           59 |           59 |           59 |           91 |           91 |           91 |           91 |          155 |          155 |          155 |          155 |          283 |          283 |          283 |          283 |          539 |          539 |          539 |          539 |         1057 |         1057 |         1057 |         1057 |         2081 |         2081 |         2081 |         2081 |         4135 |         4135 |         4135 |         4135 |         8243 |         8243 |         8243 |         8243 |
mem.page_mem                                  140k |         140k |         140k |         140k |         172k |         172k |         172k |         172k |         236k |         236k |         236k |         236k |         364k |         364k |         364k |         364k |         620k |         620k |         620k |         620k |        1132k |        1132k |        1132k |        1132k |        2156k |        2156k |        2156k |        2156k |        4228k |        4228k |        4228k |        4228k |        8324k |        8324k |        8324k |        8324k |       16540k |       16540k |       16540k |       16540k |       32972k |       32972k |       32972k |       32972k |
mem.ptab_misses                                 35 |           35 |           35 |           35 |           43 |           43 |           43 |           43 |           59 |           59 |           59 |           59 |           91 |           91 |           91 |           91 |          155 |          155 |          155 |          155 |          283 |          283 |          283 |          283 |          539 |          539 |          539 |          539 |         1060 |         1060 |         1060 |         1060 |        16424 |        16424 |        16424 |        16424 |        18478 |        18478 |        18478 |        18478 |        22586 |        22586 |        22586 |        22586 |
mem.ptab_accesses                          2287368 |      2287368 |      2287368 |      2287368 |      4044760 |      4044760 |      4044760 |      4044760 |      7559232 |      7559232 |      7559232 |      7559232 |     14588068 |     14588068 |     14588068 |     14588068 |     28645540 |     28645540 |     28645540 |     28645540 |     56760488 |     56760488 |     56760488 |     56760488 |    112990376 |    112990376 |    112990376 |    112990376 |    225518580 |    225518580 |    225518580 |    225518580 |    450438132 |    450438132 |    450438132 |    450438132 |    900326420 |    900326420 |    900326420 |    900326420 |   1800102964 |   1800102964 |   1800102964 |   1800102964 |
mem.ptab_miss_rate                          0.0000 |       0.0000 |       0.0000 |       0.0000 |       0.0000 |       0.0000 |       0.0000 |       0.0000 |       0.0000 |       0.0000 |       0.0000 |       0.0000 |       0.0000 |       0.0000 |       0.0000 |       0.0000 |       0.0000 |       0.0000 |       0.0000 |       0.0000 |       0.0000 |       0.0000 |       0.0000 |       0.0000 |       0.0000 |       0.0000 |       0.0000 |       0.0000 |       0.0000 |       0.0000 |       0.0000 |       0.0000 |       0.0000 |       0.0000 |       0.0000 |       0.0000 |       0.0000 |       0.0000 |       0.0000 |       0.0000 |       0.0000 |       0.0000 |       0.0000 |       0.0000 |
-------------------------------------------------------------------------------------------------
sim-bpred                                     4096 |         4096 |         4096 |         4096 |         4096 |         4096 |         4096 |         8192 |         8192 |         8192 |         8192 |         8192 |         8192 |         8192 |        16384 |        16384 |        16384 |        16384 |        16384 |        16384 |        16384 |        32768 |        32768 |        32768 |        32768 |        32768 |        32768 |        32768 |        65536 |        65536 |        65536 |        65536 |        65536 |        65536 |        65536 |       131072 |       131072 |       131072 |       131072 |       131072 |       131072 |       131072 |       262144 |       262144 |       262144 |       262144 |       262144 |       262144 |       262144 |       524288 |       524288 |       524288 |       524288 |       524288 |       524288 |       524288 |      1048576 |      1048576 |      1048576 |      1048576 |      1048576 |      1048576 |      1048576 |      2097152 |      2097152 |      2097152 |      2097152 |      2097152 |      2097152 |      2097152 |      4194304 |      4194304 |      4194304 |      4194304 |      4194304 |      4194304 |      4194304 |
-bpred bimod -bpred:bimod 512
-bpred bimod -bpred:bimod 1024
-bpred bimod -bpred:bimod 2048
-bpred 2lev -bpred:2lev 1 512 10 1
-bpred 2lev -bpred:2lev 1 1024 10 1
-bpred 2lev -bpred:2lev 1 2048 10 1
-bpred 2lev -bpred:2lev 1 4096 10 1
-------------------------------------------------------------------------------------------------
sim_num_insn                                378851 |       378851 |       378851 |       378851 |       378851 |       378851 |       378851 |       744423 |       744423 |       744423 |       744423 |       744423 |       744423 |       744423 |      1475561 |      1475561 |      1475561 |      1475561 |      1475561 |      1475561 |      1475561 |      2937834 |      2937834 |      2937834 |      2937834 |      2937834 |      2937834 |      2937834 |      5862378 |      5862378 |      5862378 |      5862378 |      5862378 |      5862378 |      5862378 |     11711467 |     11711467 |     11711467 |     11711467 |     11711467 |     11711467 |     11711467 |     23409643 |     23409643 |     23409643 |     23409643 |     23409643 |     23409643 |     23409643 |     46818471 |     46818471 |     46818471 |     46818471 |     46818471 |     46818471 |     46818471 |     93611175 |     93611175 |     93611175 |     93611175 |     93611175 |     93611175 |     93611175 |    187205807 |    187205807 |    187205807 |    187205807 |    187205807 |    187205807 |    187205807 |    374395063 |    374395063 |    374395063 |    374395063 |    374395063 |    374395063 |    374395063 |
sim_num_refs                                138964 |       138964 |       138964 |       138964 |       138964 |       138964 |       138964 |       270036 |       270036 |       270036 |       270036 |       270036 |       270036 |       270036 |       532180 |       532180 |       532180 |       532180 |       532180 |       532180 |       532180 |      1056468 |      1056468 |      1056468 |      1056468 |      1056468 |      1056468 |      1056468 |      2105044 |      2105044 |      2105044 |      2105044 |      2105044 |      2105044 |      2105044 |      4202196 |      4202196 |      4202196 |      4202196 |      4202196 |      4202196 |      4202196 |      8396500 |      8396500 |      8396500 |      8396500 |      8396500 |      8396500 |      8396500 |     16794370 |     16794370 |     16794370 |     16794370 |     16794370 |     16794370 |     16794370 |     33571586 |     33571586 |     33571586 |     33571586 |     33571586 |     33571586 |     33571586 |     67132162 |     67132162 |     67132162 |     67132162 |     67132162 |     67132162 |     67132162 |    134253314 |    134253314 |    134253314 |    134253314 |    134253314 |    134253314 |    134253314 |
sim_elapsed_time                                 1 |            1 |            1 |            1 |            1 |            1 |            1 |            1 |            1 |            1 |            1 |            1 |            1 |            1 |            1 |            1 |            1 |            1 |            1 |            1 |            1 |            1 |            1 |            1 |            1 |            1 |            1 |            1 |            1 |            1 |            1 |            1 |            1 |            1 |            1 |            1 |            1 |            1 |            2 |            1 |            1 |            1 |            3 |            2 |            2 |            3 |            2 |            2 |            3 |            4 |            5 |            5 |            4 |            5 |            5 |            4 |            9 |           10 |            9 |           10 |            9 |           11 |           10 |           18 |           19 |           19 |           19 |           19 |           19 |           19 |           37 |           37 |           38 |           38 |           37 |           38 |           38 |
sim_inst_rate                          378851.0000 |  378851.0000 |  378851.0000 |  378851.0000 |  378851.0000 |  378851.0000 |  378851.0000 |  744423.0000 |  744423.0000 |  744423.0000 |  744423.0000 |  744423.0000 |  744423.0000 |  744423.0000 | 1475561.0000 | 1475561.0000 | 1475561.0000 | 1475561.0000 | 1475561.0000 | 1475561.0000 | 1475561.0000 | 2937834.0000 | 2937834.0000 | 2937834.0000 | 2937834.0000 | 2937834.0000 | 2937834.0000 | 2937834.0000 | 5862378.0000 | 5862378.0000 | 5862378.0000 | 5862378.0000 | 5862378.0000 | 5862378.0000 | 5862378.0000 |11711467.0000 |11711467.0000 |11711467.0000 | 5855733.5000 |11711467.0000 |11711467.0000 |11711467.0000 | 7803214.3333 |11704821.5000 |11704821.5000 | 7803214.3333 |11704821.5000 |11704821.5000 | 7803214.3333 |11704617.7500 | 9363694.2000 | 9363694.2000 |11704617.7500 | 9363694.2000 | 9363694.2000 |11704617.7500 |10401241.6667 | 9361117.5000 |10401241.6667 | 9361117.5000 |10401241.6667 | 8510106.8182 | 9361117.5000 |10400322.6111 | 9852937.2105 | 9852937.2105 | 9852937.2105 | 9852937.2105 | 9852937.2105 | 9852937.2105 |10118785.4865 |10118785.4865 | 9852501.6579 | 9852501.6579 |10118785.4865 | 9852501.6579 | 9852501.6579 |
sim_num_branches                              9292 |         9292 |         9292 |         9292 |         9292 |         9292 |         9292 |        17484 |        17484 |        17484 |        17484 |        17484 |        17484 |        17484 |        33868 |        33868 |        33868 |        33868 |        33868 |        33868 |        33868 |        66636 |        66636 |        66636 |        66636 |        66636 |        66636 |        66636 |       132172 |       132172 |       132172 |       132172 |       132172 |       132172 |       132172 |       263244 |       263244 |       263244 |       263244 |       263244 |       263244 |       263244 |       525388 |       525388 |       525388 |       525388 |       525388 |       525388 |       525388 |      1050469 |      1050469 |      1050469 |      1050469 |      1050469 |      1050469 |      1050469 |      2099045 |      2099045 |      2099045 |      2099045 |      2099045 |      2099045 |      2099045 |      4196968 |      4196968 |      4196968 |      4196968 |      4196968 |      4196968 |      4196968 |      8392811 |      8392811 |      8392811 |      8392811 |      8392811 |      8392811 |      8392811 |
sim_IPB                                    40.7717 |      40.7717 |      40.7717 |      40.7717 |      40.7717 |      40.7717 |      40.7717 |      42.5774 |      42.5774 |      42.5774 |      42.5774 |      42.5774 |      42.5774 |      42.5774 |      43.5680 |      43.5680 |      43.5680 |      43.5680 |      43.5680 |      43.5680 |      43.5680 |      44.0878 |      44.0878 |      44.0878 |      44.0878 |      44.0878 |      44.0878 |      44.0878 |      44.3542 |      44.3542 |      44.3542 |      44.3542 |      44.3542 |      44.3542 |      44.3542 |      44.4890 |      44.4890 |      44.4890 |      44.4890 |      44.4890 |      44.4890 |      44.4890 |      44.5569 |      44.5569 |      44.5569 |      44.5569 |      44.5569 |      44.5569 |      44.5569 |      44.5691 |      44.5691 |      44.5691 |      44.5691 |      44.5691 |      44.5691 |      44.5691 |      44.5970 |      44.5970 |      44.5970 |      44.5970 |      44.5970 |      44.5970 |      44.5970 |      44.6050 |      44.6050 |      44.6050 |      44.6050 |      44.6050 |      44.6050 |      44.6050 |      44.6090 |      44.6090 |      44.6090 |      44.6090 |      44.6090 |      44.6090 |      44.6090 |
bpred_bimod.lookups                           9292 |         9292 |         9292 |xxxxxxxxxxxxx |xxxxxxxxxxxxx |xxxxxxxxxxxxx |xxxxxxxxxxxxx |        17484 |        17484 |        17484 |xxxxxxxxxxxxx |xxxxxxxxxxxxx |xxxxxxxxxxxxx |xxxxxxxxxxxxx |        33868 |        33868 |        33868 |xxxxxxxxxxxxx |xxxxxxxxxxxxx |xxxxxxxxxxxxx |xxxxxxxxxxxxx |        66636 |        66636 |        66636 |xxxxxxxxxxxxx |xxxxxxxxxxxxx |xxxxxxxxxxxxx |xxxxxxxxxxxxx |       132172 |       132172 |       132172 |xxxxxxxxxxxxx |xxxxxxxxxxxxx |xxxxxxxxxxxxx |xxxxxxxxxxxxx |       263244 |       263244 |       263244 |xxxxxxxxxxxxx |xxxxxxxxxxxxx |xxxxxxxxxxxxx |xxxxxxxxxxxxx |       525388 |       525388 |       525388 |xxxxxxxxxxxxx |xxxxxxxxxxxxx |xxxxxxxxxxxxx |xxxxxxxxxxxxx |      1050469 |      1050469 |      1050469 |xxxxxxxxxxxxx |xxxxxxxxxxxxx |xxxxxxxxxxxxx |xxxxxxxxxxxxx |      2099045 |      2099045 |      2099045 |xxxxxxxxxxxxx |xxxxxxxxxxxxx |xxxxxxxxxxxxx |xxxxxxxxxxxxx |      4196968 |      4196968 |      4196968 |xxxxxxxxxxxxx |xxxxxxxxxxxxx |xxxxxxxxxxxxx |xxxxxxxxxxxxx |      8392811 |      8392811 |      8392811 |
bpred_bimod.updates                           9292 |         9292 |         9292 |xxxxxxxxxxxxx |xxxxxxxxxxxxx |xxxxxxxxxxxxx |xxxxxxxxxxxxx |        17484 |        17484 |        17484 |xxxxxxxxxxxxx |xxxxxxxxxxxxx |xxxxxxxxxxxxx |xxxxxxxxxxxxx |        33868 |        33868 |        33868 |xxxxxxxxxxxxx |xxxxxxxxxxxxx |xxxxxxxxxxxxx |xxxxxxxxxxxxx |        66636 |        66636 |        66636 |xxxxxxxxxxxxx |xxxxxxxxxxxxx |xxxxxxxxxxxxx |xxxxxxxxxxxxx |       132172 |       132172 |       132172 |xxxxxxxxxxxxx |xxxxxxxxxxxxx |xxxxxxxxxxxxx |xxxxxxxxxxxxx |       263244 |       263244 |       263244 |xxxxxxxxxxxxx |xxxxxxxxxxxxx |xxxxxxxxxxxxx |xxxxxxxxxxxxx |       525388 |       525388 |       525388 |xxxxxxxxxxxxx |xxxxxxxxxxxxx |xxxxxxxxxxxxx |xxxxxxxxxxxxx |      1050469 |      1050469 |      1050469 |xxxxxxxxxxxxx |xxxxxxxxxxxxx |xxxxxxxxxxxxx |xxxxxxxxxxxxx |      2099045 |      2099045 |      2099045 |xxxxxxxxxxxxx |xxxxxxxxxxxxx |xxxxxxxxxxxxx |xxxxxxxxxxxxx |      4196968 |      4196968 |      4196968 |xxxxxxxxxxxxx |xxxxxxxxxxxxx |xxxxxxxxxxxxx |xxxxxxxxxxxxx |      8392811 |      8392811 |      8392811 |
bpred_bimod.addr_hits                         9076 |         9079 |         9080 |xxxxxxxxxxxxx |xxxxxxxxxxxxx |xxxxxxxxxxxxx |xxxxxxxxxxxxx |        17267 |        17271 |        17272 |xxxxxxxxxxxxx |xxxxxxxxxxxxx |xxxxxxxxxxxxx |xxxxxxxxxxxxx |        33654 |        33656 |        33657 |xxxxxxxxxxxxx |xxxxxxxxxxxxx |xxxxxxxxxxxxx |xxxxxxxxxxxxx |        66421 |        66424 |        66425 |xxxxxxxxxxxxx |xxxxxxxxxxxxx |xxxxxxxxxxxxx |xxxxxxxxxxxxx |       131957 |       131960 |       131961 |xxxxxxxxxxxxx |xxxxxxxxxxxxx |xxxxxxxxxxxxx |xxxxxxxxxxxxx |       263029 |       263032 |       263033 |xxxxxxxxxxxxx |xxxxxxxxxxxxx |xxxxxxxxxxxxx |xxxxxxxxxxxxx |       525173 |       525176 |       525177 |xxxxxxxxxxxxx |xxxxxxxxxxxxx |xxxxxxxxxxxxx |xxxxxxxxxxxxx |      1050228 |      1050231 |      1050231 |xxxxxxxxxxxxx |xxxxxxxxxxxxx |xxxxxxxxxxxxx |xxxxxxxxxxxxx |      2098804 |      2098807 |      2098807 |xxxxxxxxxxxxx |xxxxxxxxxxxxx |xxxxxxxxxxxxx |xxxxxxxxxxxxx |      4196727 |      4196730 |      4196730 |xxxxxxxxxxxxx |xxxxxxxxxxxxx |xxxxxxxxxxxxx |xxxxxxxxxxxxx |      8392570 |      8392573 |      8392573 |
bpred_bimod.dir_hits                          9186 |         9185 |         9185 |xxxxxxxxxxxxx |xxxxxxxxxxxxx |xxxxxxxxxxxxx |xxxxxxxxxxxxx |        17372 |        17377 |        17377 |xxxxxxxxxxxxx |xxxxxxxxxxxxx |xxxxxxxxxxxxx |xxxxxxxxxxxxx |        33761 |        33761 |        33762 |xxxxxxxxxxxxx |xxxxxxxxxxxxx |xxxxxxxxxxxxx |xxxxxxxxxxxxx |        66526 |        66527 |        66529 |xxxxxxxxxxxxx |xxxxxxxxxxxxx |xxxxxxxxxxxxx |xxxxxxxxxxxxx |       132062 |       132063 |       132065 |xxxxxxxxxxxxx |xxxxxxxxxxxxx |xxxxxxxxxxxxx |xxxxxxxxxxxxx |       263135 |       263136 |       263138 |xxxxxxxxxxxxx |xxxxxxxxxxxxx |xxxxxxxxxxxxx |xxxxxxxxxxxxx |       525279 |       525280 |       525282 |xxxxxxxxxxxxx |xxxxxxxxxxxxx |xxxxxxxxxxxxx |xxxxxxxxxxxxx |      1050345 |      1050346 |      1050347 |xxxxxxxxxxxxx |xxxxxxxxxxxxx |xxxxxxxxxxxxx |xxxxxxxxxxxxx |      2098921 |      2098922 |      2098923 |xxxxxxxxxxxxx |xxxxxxxxxxxxx |xxxxxxxxxxxxx |xxxxxxxxxxxxx |      4196844 |      4196845 |      4196846 |xxxxxxxxxxxxx |xxxxxxxxxxxxx |xxxxxxxxxxxxx |xxxxxxxxxxxxx |      8392687 |      8392688 |      8392689 |
bpred_bimod.misses                             106 |          107 |          107 |xxxxxxxxxxxxx |xxxxxxxxxxxxx |xxxxxxxxxxxxx |xxxxxxxxxxxxx |          112 |          107 |          107 |xxxxxxxxxxxxx |xxxxxxxxxxxxx |xxxxxxxxxxxxx |xxxxxxxxxxxxx |          107 |          107 |          106 |xxxxxxxxxxxxx |xxxxxxxxxxxxx |xxxxxxxxxxxxx |xxxxxxxxxxxxx |          110 |          109 |          107 |xxxxxxxxxxxxx |xxxxxxxxxxxxx |xxxxxxxxxxxxx |xxxxxxxxxxxxx |          110 |          109 |          107 |xxxxxxxxxxxxx |xxxxxxxxxxxxx |xxxxxxxxxxxxx |xxxxxxxxxxxxx |          109 |          108 |          106 |xxxxxxxxxxxxx |xxxxxxxxxxxxx |xxxxxxxxxxxxx |xxxxxxxxxxxxx |          109 |          108 |          106 |xxxxxxxxxxxxx |xxxxxxxxxxxxx |xxxxxxxxxxxxx |xxxxxxxxxxxxx |          124 |          123 |          122 |xxxxxxxxxxxxx |xxxxxxxxxxxxx |xxxxxxxxxxxxx |xxxxxxxxxxxxx |          124 |          123 |          122 |xxxxxxxxxxxxx |xxxxxxxxxxxxx |xxxxxxxxxxxxx |xxxxxxxxxxxxx |          124 |          123 |          122 |xxxxxxxxxxxxx |xxxxxxxxxxxxx |xxxxxxxxxxxxx |xxxxxxxxxxxxx |          124 |          123 |          122 |
bpred_bimod.jr_hits                             70 |           70 |           70 |xxxxxxxxxxxxx |xxxxxxxxxxxxx |xxxxxxxxxxxxx |xxxxxxxxxxxxx |           70 |           70 |           70 |xxxxxxxxxxxxx |xxxxxxxxxxxxx |xxxxxxxxxxxxx |xxxxxxxxxxxxx |           70 |           70 |           70 |xxxxxxxxxxxxx |xxxxxxxxxxxxx |xxxxxxxxxxxxx |xxxxxxxxxxxxx |           70 |           70 |           70 |xxxxxxxxxxxxx |xxxxxxxxxxxxx |xxxxxxxxxxxxx |xxxxxxxxxxxxx |           70 |           70 |           70 |xxxxxxxxxxxxx |xxxxxxxxxxxxx |xxxxxxxxxxxxx |xxxxxxxxxxxxx |           70 |           70 |           70 |xxxxxxxxxxxxx |xxxxxxxxxxxxx |xxxxxxxxxxxxx |xxxxxxxxxxxxx |           70 |           70 |           70 |xxxxxxxxxxxxx |xxxxxxxxxxxxx |xxxxxxxxxxxxx |xxxxxxxxxxxxx |           73 |           73 |           73 |xxxxxxxxxxxxx |xxxxxxxxxxxxx |xxxxxxxxxxxxx |xxxxxxxxxxxxx |           73 |           73 |           73 |xxxxxxxxxxxxx |xxxxxxxxxxxxx |xxxxxxxxxxxxx |xxxxxxxxxxxxx |           73 |           73 |           73 |xxxxxxxxxxxxx |xxxxxxxxxxxxx |xxxxxxxxxxxxx |xxxxxxxxxxxxx |           73 |           73 |           73 |
bpred_bimod.jr_seen                             71 |           71 |           71 |xxxxxxxxxxxxx |xxxxxxxxxxxxx |xxxxxxxxxxxxx |xxxxxxxxxxxxx |           71 |           71 |           71 |xxxxxxxxxxxxx |xxxxxxxxxxxxx |xxxxxxxxxxxxx |xxxxxxxxxxxxx |           71 |           71 |           71 |xxxxxxxxxxxxx |xxxxxxxxxxxxx |xxxxxxxxxxxxx |xxxxxxxxxxxxx |           71 |           71 |           71 |xxxxxxxxxxxxx |xxxxxxxxxxxxx |xxxxxxxxxxxxx |xxxxxxxxxxxxx |           71 |           71 |           71 |xxxxxxxxxxxxx |xxxxxxxxxxxxx |xxxxxxxxxxxxx |xxxxxxxxxxxxx |           71 |           71 |           71 |xxxxxxxxxxxxx |xxxxxxxxxxxxx |xxxxxxxxxxxxx |xxxxxxxxxxxxx |           71 |           71 |           71 |xxxxxxxxxxxxx |xxxxxxxxxxxxx |xxxxxxxxxxxxx |xxxxxxxxxxxxx |           74 |           74 |           74 |xxxxxxxxxxxxx |xxxxxxxxxxxxx |xxxxxxxxxxxxx |xxxxxxxxxxxxx |           74 |           74 |           74 |xxxxxxxxxxxxx |xxxxxxxxxxxxx |xxxxxxxxxxxxx |xxxxxxxxxxxxx |           74 |           74 |           74 |xxxxxxxxxxxxx |xxxxxxxxxxxxx |xxxxxxxxxxxxx |xxxxxxxxxxxxx |           74 |           74 |           74 |
bpred_bimod.jr_non_ras_hits.PP                   0 |            0 |            0 |xxxxxxxxxxxxx |xxxxxxxxxxxxx |xxxxxxxxxxxxx |xxxxxxxxxxxxx |            0 |            0 |            0 |xxxxxxxxxxxxx |xxxxxxxxxxxxx |xxxxxxxxxxxxx |xxxxxxxxxxxxx |            0 |            0 |            0 |xxxxxxxxxxxxx |xxxxxxxxxxxxx |xxxxxxxxxxxxx |xxxxxxxxxxxxx |            0 |            0 |            0 |xxxxxxxxxxxxx |xxxxxxxxxxxxx |xxxxxxxxxxxxx |xxxxxxxxxxxxx |            0 |            0 |            0 |xxxxxxxxxxxxx |xxxxxxxxxxxxx |xxxxxxxxxxxxx |xxxxxxxxxxxxx |            0 |            0 |            0 |xxxxxxxxxxxxx |xxxxxxxxxxxxx |xxxxxxxxxxxxx |xxxxxxxxxxxxx |            0 |            0 |            0 |xxxxxxxxxxxxx |xxxxxxxxxxxxx |xxxxxxxxxxxxx |xxxxxxxxxxxxx |            0 |            0 |            0 |xxxxxxxxxxxxx |xxxxxxxxxxxxx |xxxxxxxxxxxxx |xxxxxxxxxxxxx |            0 |            0 |            0 |xxxxxxxxxxxxx |xxxxxxxxxxxxx |xxxxxxxxxxxxx |xxxxxxxxxxxxx |            0 |            0 |            0 |xxxxxxxxxxxxx |xxxxxxxxxxxxx |xxxxxxxxxxxxx |xxxxxxxxxxxxx |            0 |            0 |            0 |
bpred_bimod.jr_non_ras_seen.PP                   0 |            0 |            0 |xxxxxxxxxxxxx |xxxxxxxxxxxxx |xxxxxxxxxxxxx |xxxxxxxxxxxxx |            0 |            0 |            0 |xxxxxxxxxxxxx |xxxxxxxxxxxxx |xxxxxxxxxxxxx |xxxxxxxxxxxxx |            0 |            0 |            0 |xxxxxxxxxxxxx |xxxxxxxxxxxxx |xxxxxxxxxxxxx |xxxxxxxxxxxxx |            0 |            0 |            0 |xxxxxxxxxxxxx |xxxxxxxxxxxxx |xxxxxxxxxxxxx |xxxxxxxxxxxxx |            0 |            0 |            0 |xxxxxxxxxxxxx |xxxxxxxxxxxxx |xxxxxxxxxxxxx |xxxxxxxxxxxxx |            0 |            0 |            0 |xxxxxxxxxxxxx |xxxxxxxxxxxxx |xxxxxxxxxxxxx |xxxxxxxxxxxxx |            0 |            0 |            0 |xxxxxxxxxxxxx |xxxxxxxxxxxxx |xxxxxxxxxxxxx |xxxxxxxxxxxxx |            1 |            1 |            1 |xxxxxxxxxxxxx |xxxxxxxxxxxxx |xxxxxxxxxxxxx |xxxxxxxxxxxxx |            1 |            1 |            1 |xxxxxxxxxxxxx |xxxxxxxxxxxxx |xxxxxxxxxxxxx |xxxxxxxxxxxxx |            1 |            1 |            1 |xxxxxxxxxxxxx |xxxxxxxxxxxxx |xxxxxxxxxxxxx |xxxxxxxxxxxxx |            1 |            1 |            1 |
bpred_bimod.bpred_addr_rate                 0.9768 |       0.9771 |       0.9772 |xxxxxxxxxxxxx |xxxxxxxxxxxxx |xxxxxxxxxxxxx |xxxxxxxxxxxxx |       0.9876 |       0.9878 |       0.9879 |xxxxxxxxxxxxx |xxxxxxxxxxxxx |xxxxxxxxxxxxx |xxxxxxxxxxxxx |       0.9937 |       0.9937 |       0.9938 |xxxxxxxxxxxxx |xxxxxxxxxxxxx |xxxxxxxxxxxxx |xxxxxxxxxxxxx |       0.9968 |       0.9968 |       0.9968 |xxxxxxxxxxxxx |xxxxxxxxxxxxx |xxxxxxxxxxxxx |xxxxxxxxxxxxx |       0.9984 |       0.9984 |       0.9984 |xxxxxxxxxxxxx |xxxxxxxxxxxxx |xxxxxxxxxxxxx |xxxxxxxxxxxxx |       0.9992 |       0.9992 |       0.9992 |xxxxxxxxxxxxx |xxxxxxxxxxxxx |xxxxxxxxxxxxx |xxxxxxxxxxxxx |       0.9996 |       0.9996 |       0.9996 |xxxxxxxxxxxxx |xxxxxxxxxxxxx |xxxxxxxxxxxxx |xxxxxxxxxxxxx |       0.9998 |       0.9998 |       0.9998 |xxxxxxxxxxxxx |xxxxxxxxxxxxx |xxxxxxxxxxxxx |xxxxxxxxxxxxx |       0.9999 |       0.9999 |       0.9999 |xxxxxxxxxxxxx |xxxxxxxxxxxxx |xxxxxxxxxxxxx |xxxxxxxxxxxxx |       0.9999 |       0.9999 |       0.9999 |xxxxxxxxxxxxx |xxxxxxxxxxxxx |xxxxxxxxxxxxx |xxxxxxxxxxxxx |       1.0000 |       1.0000 |       1.0000 |
bpred_bimod.bpred_dir_rate                  0.9886 |       0.9885 |       0.9885 |xxxxxxxxxxxxx |xxxxxxxxxxxxx |xxxxxxxxxxxxx |xxxxxxxxxxxxx |       0.9936 |       0.9939 |       0.9939 |xxxxxxxxxxxxx |xxxxxxxxxxxxx |xxxxxxxxxxxxx |xxxxxxxxxxxxx |       0.9968 |       0.9968 |       0.9969 |xxxxxxxxxxxxx |xxxxxxxxxxxxx |xxxxxxxxxxxxx |xxxxxxxxxxxxx |       0.9983 |       0.9984 |       0.9984 |xxxxxxxxxxxxx |xxxxxxxxxxxxx |xxxxxxxxxxxxx |xxxxxxxxxxxxx |       0.9992 |       0.9992 |       0.9992 |xxxxxxxxxxxxx |xxxxxxxxxxxxx |xxxxxxxxxxxxx |xxxxxxxxxxxxx |       0.9996 |       0.9996 |       0.9996 |xxxxxxxxxxxxx |xxxxxxxxxxxxx |xxxxxxxxxxxxx |xxxxxxxxxxxxx |       0.9998 |       0.9998 |       0.9998 |xxxxxxxxxxxxx |xxxxxxxxxxxxx |xxxxxxxxxxxxx |xxxxxxxxxxxxx |       0.9999 |       0.9999 |       0.9999 |xxxxxxxxxxxxx |xxxxxxxxxxxxx |xxxxxxxxxxxxx |xxxxxxxxxxxxx |       0.9999 |       0.9999 |       0.9999 |xxxxxxxxxxxxx |xxxxxxxxxxxxx |xxxxxxxxxxxxx |xxxxxxxxxxxxx |       1.0000 |       1.0000 |       1.0000 |xxxxxxxxxxxxx |xxxxxxxxxxxxx |xxxxxxxxxxxxx |xxxxxxxxxxxxx |       1.0000 |       1.0000 |       1.0000 |
bpred_bimod.bpred_jr_rate                   0.9859 |       0.9859 |       0.9859 |xxxxxxxxxxxxx |xxxxxxxxxxxxx |xxxxxxxxxxxxx |xxxxxxxxxxxxx |       0.9859 |       0.9859 |       0.9859 |xxxxxxxxxxxxx |xxxxxxxxxxxxx |xxxxxxxxxxxxx |xxxxxxxxxxxxx |       0.9859 |       0.9859 |       0.9859 |xxxxxxxxxxxxx |xxxxxxxxxxxxx |xxxxxxxxxxxxx |xxxxxxxxxxxxx |       0.9859 |       0.9859 |       0.9859 |xxxxxxxxxxxxx |xxxxxxxxxxxxx |xxxxxxxxxxxxx |xxxxxxxxxxxxx |       0.9859 |       0.9859 |       0.9859 |xxxxxxxxxxxxx |xxxxxxxxxxxxx |xxxxxxxxxxxxx |xxxxxxxxxxxxx |       0.9859 |       0.9859 |       0.9859 |xxxxxxxxxxxxx |xxxxxxxxxxxxx |xxxxxxxxxxxxx |xxxxxxxxxxxxx |       0.9859 |       0.9859 |       0.9859 |xxxxxxxxxxxxx |xxxxxxxxxxxxx |xxxxxxxxxxxxx |xxxxxxxxxxxxx |       0.9865 |       0.9865 |       0.9865 |xxxxxxxxxxxxx |xxxxxxxxxxxxx |xxxxxxxxxxxxx |xxxxxxxxxxxxx |       0.9865 |       0.9865 |       0.9865 |xxxxxxxxxxxxx |xxxxxxxxxxxxx |xxxxxxxxxxxxx |xxxxxxxxxxxxx |       0.9865 |       0.9865 |       0.9865 |xxxxxxxxxxxxx |xxxxxxxxxxxxx |xxxxxxxxxxxxx |xxxxxxxxxxxxx |       0.9865 |       0.9865 |       0.9865 |
bpred_bimod.bpred_jr_non_ras_rate.PP       <error: |      <error: |      <error: |xxxxxxxxxxxxx |xxxxxxxxxxxxx |xxxxxxxxxxxxx |xxxxxxxxxxxxx |      <error: |      <error: |      <error: |xxxxxxxxxxxxx |xxxxxxxxxxxxx |xxxxxxxxxxxxx |xxxxxxxxxxxxx |      <error: |      <error: |      <error: |xxxxxxxxxxxxx |xxxxxxxxxxxxx |xxxxxxxxxxxxx |xxxxxxxxxxxxx |      <error: |      <error: |      <error: |xxxxxxxxxxxxx |xxxxxxxxxxxxx |xxxxxxxxxxxxx |xxxxxxxxxxxxx |      <error: |      <error: |      <error: |xxxxxxxxxxxxx |xxxxxxxxxxxxx |xxxxxxxxxxxxx |xxxxxxxxxxxxx |      <error: |      <error: |      <error: |xxxxxxxxxxxxx |xxxxxxxxxxxxx |xxxxxxxxxxxxx |xxxxxxxxxxxxx |      <error: |      <error: |      <error: |xxxxxxxxxxxxx |xxxxxxxxxxxxx |xxxxxxxxxxxxx |xxxxxxxxxxxxx |       0.0000 |       0.0000 |       0.0000 |xxxxxxxxxxxxx |xxxxxxxxxxxxx |xxxxxxxxxxxxx |xxxxxxxxxxxxx |       0.0000 |       0.0000 |       0.0000 |xxxxxxxxxxxxx |xxxxxxxxxxxxx |xxxxxxxxxxxxx |xxxxxxxxxxxxx |       0.0000 |       0.0000 |       0.0000 |xxxxxxxxxxxxx |xxxxxxxxxxxxx |xxxxxxxxxxxxx |xxxxxxxxxxxxx |       0.0000 |       0.0000 |       0.0000 |
bpred_bimod.retstack_pushes                     73 |           73 |           73 |xxxxxxxxxxxxx |xxxxxxxxxxxxx |xxxxxxxxxxxxx |xxxxxxxxxxxxx |           73 |           73 |           73 |xxxxxxxxxxxxx |xxxxxxxxxxxxx |xxxxxxxxxxxxx |xxxxxxxxxxxxx |           73 |           73 |           73 |xxxxxxxxxxxxx |xxxxxxxxxxxxx |xxxxxxxxxxxxx |xxxxxxxxxxxxx |           73 |           73 |           73 |xxxxxxxxxxxxx |xxxxxxxxxxxxx |xxxxxxxxxxxxx |xxxxxxxxxxxxx |           73 |           73 |           73 |xxxxxxxxxxxxx |xxxxxxxxxxxxx |xxxxxxxxxxxxx |xxxxxxxxxxxxx |           73 |           73 |           73 |xxxxxxxxxxxxx |xxxxxxxxxxxxx |xxxxxxxxxxxxx |xxxxxxxxxxxxx |           73 |           73 |           73 |xxxxxxxxxxxxx |xxxxxxxxxxxxx |xxxxxxxxxxxxx |xxxxxxxxxxxxx |           75 |           75 |           75 |xxxxxxxxxxxxx |xxxxxxxxxxxxx |xxxxxxxxxxxxx |xxxxxxxxxxxxx |           75 |           75 |           75 |xxxxxxxxxxxxx |xxxxxxxxxxxxx |xxxxxxxxxxxxx |xxxxxxxxxxxxx |           75 |           75 |           75 |xxxxxxxxxxxxx |xxxxxxxxxxxxx |xxxxxxxxxxxxx |xxxxxxxxxxxxx |           75 |           75 |           75 |
bpred_bimod.retstack_pops                       71 |           71 |           71 |xxxxxxxxxxxxx |xxxxxxxxxxxxx |xxxxxxxxxxxxx |xxxxxxxxxxxxx |           71 |           71 |           71 |xxxxxxxxxxxxx |xxxxxxxxxxxxx |xxxxxxxxxxxxx |xxxxxxxxxxxxx |           71 |           71 |           71 |xxxxxxxxxxxxx |xxxxxxxxxxxxx |xxxxxxxxxxxxx |xxxxxxxxxxxxx |           71 |           71 |           71 |xxxxxxxxxxxxx |xxxxxxxxxxxxx |xxxxxxxxxxxxx |xxxxxxxxxxxxx |           71 |           71 |           71 |xxxxxxxxxxxxx |xxxxxxxxxxxxx |xxxxxxxxxxxxx |xxxxxxxxxxxxx |           71 |           71 |           71 |xxxxxxxxxxxxx |xxxxxxxxxxxxx |xxxxxxxxxxxxx |xxxxxxxxxxxxx |           71 |           71 |           71 |xxxxxxxxxxxxx |xxxxxxxxxxxxx |xxxxxxxxxxxxx |xxxxxxxxxxxxx |           73 |           73 |           73 |xxxxxxxxxxxxx |xxxxxxxxxxxxx |xxxxxxxxxxxxx |xxxxxxxxxxxxx |           73 |           73 |           73 |xxxxxxxxxxxxx |xxxxxxxxxxxxx |xxxxxxxxxxxxx |xxxxxxxxxxxxx |           73 |           73 |           73 |xxxxxxxxxxxxx |xxxxxxxxxxxxx |xxxxxxxxxxxxx |xxxxxxxxxxxxx |           73 |           73 |           73 |
bpred_bimod.used_ras.PP                         71 |           71 |           71 |xxxxxxxxxxxxx |xxxxxxxxxxxxx |xxxxxxxxxxxxx |xxxxxxxxxxxxx |           71 |           71 |           71 |xxxxxxxxxxxxx |xxxxxxxxxxxxx |xxxxxxxxxxxxx |xxxxxxxxxxxxx |           71 |           71 |           71 |xxxxxxxxxxxxx |xxxxxxxxxxxxx |xxxxxxxxxxxxx |xxxxxxxxxxxxx |           71 |           71 |           71 |xxxxxxxxxxxxx |xxxxxxxxxxxxx |xxxxxxxxxxxxx |xxxxxxxxxxxxx |           71 |           71 |           71 |xxxxxxxxxxxxx |xxxxxxxxxxxxx |xxxxxxxxxxxxx |xxxxxxxxxxxxx |           71 |           71 |           71 |xxxxxxxxxxxxx |xxxxxxxxxxxxx |xxxxxxxxxxxxx |xxxxxxxxxxxxx |           71 |           71 |           71 |xxxxxxxxxxxxx |xxxxxxxxxxxxx |xxxxxxxxxxxxx |xxxxxxxxxxxxx |           73 |           73 |           73 |xxxxxxxxxxxxx |xxxxxxxxxxxxx |xxxxxxxxxxxxx |xxxxxxxxxxxxx |           73 |           73 |           73 |xxxxxxxxxxxxx |xxxxxxxxxxxxx |xxxxxxxxxxxxx |xxxxxxxxxxxxx |           73 |           73 |           73 |xxxxxxxxxxxxx |xxxxxxxxxxxxx |xxxxxxxxxxxxx |xxxxxxxxxxxxx |           73 |           73 |           73 |
bpred_bimod.ras_hits.PP                         70 |           70 |           70 |xxxxxxxxxxxxx |xxxxxxxxxxxxx |xxxxxxxxxxxxx |xxxxxxxxxxxxx |           70 |           70 |           70 |xxxxxxxxxxxxx |xxxxxxxxxxxxx |xxxxxxxxxxxxx |xxxxxxxxxxxxx |           70 |           70 |           70 |xxxxxxxxxxxxx |xxxxxxxxxxxxx |xxxxxxxxxxxxx |xxxxxxxxxxxxx |           70 |           70 |           70 |xxxxxxxxxxxxx |xxxxxxxxxxxxx |xxxxxxxxxxxxx |xxxxxxxxxxxxx |           70 |           70 |           70 |xxxxxxxxxxxxx |xxxxxxxxxxxxx |xxxxxxxxxxxxx |xxxxxxxxxxxxx |           70 |           70 |           70 |xxxxxxxxxxxxx |xxxxxxxxxxxxx |xxxxxxxxxxxxx |xxxxxxxxxxxxx |           70 |           70 |           70 |xxxxxxxxxxxxx |xxxxxxxxxxxxx |xxxxxxxxxxxxx |xxxxxxxxxxxxx |           73 |           73 |           73 |xxxxxxxxxxxxx |xxxxxxxxxxxxx |xxxxxxxxxxxxx |xxxxxxxxxxxxx |           73 |           73 |           73 |xxxxxxxxxxxxx |xxxxxxxxxxxxx |xxxxxxxxxxxxx |xxxxxxxxxxxxx |           73 |           73 |           73 |xxxxxxxxxxxxx |xxxxxxxxxxxxx |xxxxxxxxxxxxx |xxxxxxxxxxxxx |           73 |           73 |           73 |
bpred_bimod.ras_rate.PP                     0.9859 |       0.9859 |       0.9859 |xxxxxxxxxxxxx |xxxxxxxxxxxxx |xxxxxxxxxxxxx |xxxxxxxxxxxxx |       0.9859 |       0.9859 |       0.9859 |xxxxxxxxxxxxx |xxxxxxxxxxxxx |xxxxxxxxxxxxx |xxxxxxxxxxxxx |       0.9859 |       0.9859 |       0.9859 |xxxxxxxxxxxxx |xxxxxxxxxxxxx |xxxxxxxxxxxxx |xxxxxxxxxxxxx |       0.9859 |       0.9859 |       0.9859 |xxxxxxxxxxxxx |xxxxxxxxxxxxx |xxxxxxxxxxxxx |xxxxxxxxxxxxx |       0.9859 |       0.9859 |       0.9859 |xxxxxxxxxxxxx |xxxxxxxxxxxxx |xxxxxxxxxxxxx |xxxxxxxxxxxxx |       0.9859 |       0.9859 |       0.9859 |xxxxxxxxxxxxx |xxxxxxxxxxxxx |xxxxxxxxxxxxx |xxxxxxxxxxxxx |       0.9859 |       0.9859 |       0.9859 |xxxxxxxxxxxxx |xxxxxxxxxxxxx |xxxxxxxxxxxxx |xxxxxxxxxxxxx |       1.0000 |       1.0000 |       1.0000 |xxxxxxxxxxxxx |xxxxxxxxxxxxx |xxxxxxxxxxxxx |xxxxxxxxxxxxx |       1.0000 |       1.0000 |       1.0000 |xxxxxxxxxxxxx |xxxxxxxxxxxxx |xxxxxxxxxxxxx |xxxxxxxxxxxxx |       1.0000 |       1.0000 |       1.0000 |xxxxxxxxxxxxx |xxxxxxxxxxxxx |xxxxxxxxxxxxx |xxxxxxxxxxxxx |       1.0000 |       1.0000 |       1.0000 |
bpred_2lev.lookups                   xxxxxxxxxxxxx |xxxxxxxxxxxxx |xxxxxxxxxxxxx |         9292 |         9292 |         9292 |         9292 |xxxxxxxxxxxxx |xxxxxxxxxxxxx |xxxxxxxxxxxxx |        17484 |        17484 |        17484 |        17484 |xxxxxxxxxxxxx |xxxxxxxxxxxxx |xxxxxxxxxxxxx |        33868 |        33868 |        33868 |        33868 |xxxxxxxxxxxxx |xxxxxxxxxxxxx |xxxxxxxxxxxxx |        66636 |        66636 |        66636 |        66636 |xxxxxxxxxxxxx |xxxxxxxxxxxxx |xxxxxxxxxxxxx |       132172 |       132172 |       132172 |       132172 |xxxxxxxxxxxxx |xxxxxxxxxxxxx |xxxxxxxxxxxxx |       263244 |       263244 |       263244 |       263244 |xxxxxxxxxxxxx |xxxxxxxxxxxxx |xxxxxxxxxxxxx |       525388 |       525388 |       525388 |       525388 |xxxxxxxxxxxxx |xxxxxxxxxxxxx |xxxxxxxxxxxxx |      1050469 |      1050469 |      1050469 |      1050469 |xxxxxxxxxxxxx |xxxxxxxxxxxxx |xxxxxxxxxxxxx |      2099045 |      2099045 |      2099045 |      2099045 |xxxxxxxxxxxxx |xxxxxxxxxxxxx |xxxxxxxxxxxxx |      4196968 |      4196968 |      4196968 |      4196968 |xxxxxxxxxxxxx |xxxxxxxxxxxxx |xxxxxxxxxxxxx |      8392811 |      8392811 |      8392811 |      8392811 |
[...]
bpred_2lev.used_ras.PP               xxxxxxxxxxxxx |xxxxxxxxxxxxx |xxxxxxxxxxxxx |           71 |           71 |           71 |           71 |xxxxxxxxxxxxx |xxxxxxxxxxxxx |xxxxxxxxxxxxx |           71 |           71 |           71 |           71 |xxxxxxxxxxxxx |xxxxxxxxxxxxx |xxxxxxxxxxxxx |           71 |           71 |           71 |           71 |xxxxxxxxxxxxx |xxxxxxxxxxxxx |xxxxxxxxxxxxx |           71 |           71 |           71 |           71 |xxxxxxxxxxxxx |xxxxxxxxxxxxx |xxxxxxxxxxxxx |           71 |           71 |           71 |           71 |xxxxxxxxxxxxx |xxxxxxxxxxxxx |xxxxxxxxxxxxx |           71 |           71 |           71 |           71 |xxxxxxxxxxxxx |xxxxxxxxxxxxx |xxxxxxxxxxxxx |           71 |           71 |           71 |           71 |xxxxxxxxxxxxx |xxxxxxxxxxxxx |xxxxxxxxxxxxx |           73 |           73 |           73 |           73 |xxxxxxxxxxxxx |xxxxxxxxxxxxx |xxxxxxxxxxxxx |           73 |           73 |           73 |           73 |xxxxxxxxxxxxx |xxxxxxxxxxxxx |xxxxxxxxxxxxx |           73 |           73 |           73 |           73 |xxxxxxxxxxxxx |xxxxxxxxxxxxx |xxxxxxxxxxxxx |           73 |           73 |           73 |           73 |
bpred_2lev.ras_hits.PP               xxxxxxxxxxxxx |xxxxxxxxxxxxx |xxxxxxxxxxxxx |           70 |           70 |           70 |           70 |xxxxxxxxxxxxx |xxxxxxxxxxxxx |xxxxxxxxxxxxx |           70 |           70 |           70 |           70 |xxxxxxxxxxxxx |xxxxxxxxxxxxx |xxxxxxxxxxxxx |           70 |           70 |           70 |           70 |xxxxxxxxxxxxx |xxxxxxxxxxxxx |xxxxxxxxxxxxx |           70 |           70 |           70 |           70 |xxxxxxxxxxxxx |xxxxxxxxxxxxx |xxxxxxxxxxxxx |           70 |           70 |           70 |           70 |xxxxxxxxxxxxx |xxxxxxxxxxxxx |xxxxxxxxxxxxx |           70 |           70 |           70 |           70 |xxxxxxxxxxxxx |xxxxxxxxxxxxx |xxxxxxxxxxxxx |           70 |           70 |           70 |           70 |xxxxxxxxxxxxx |xxxxxxxxxxxxx |xxxxxxxxxxxxx |           73 |           73 |           73 |           73 |xxxxxxxxxxxxx |xxxxxxxxxxxxx |xxxxxxxxxxxxx |           73 |           73 |           73 |           73 |xxxxxxxxxxxxx |xxxxxxxxxxxxx |xxxxxxxxxxxxx |           73 |           73 |           73 |           73 |xxxxxxxxxxxxx |xxxxxxxxxxxxx |xxxxxxxxxxxxx |           73 |           73 |           73 |           73 |
bpred_2lev.ras_rate.PP               xxxxxxxxxxxxx |xxxxxxxxxxxxx |xxxxxxxxxxxxx |       0.9859 |       0.9859 |       0.9859 |       0.9859 |xxxxxxxxxxxxx |xxxxxxxxxxxxx |xxxxxxxxxxxxx |       0.9859 |       0.9859 |       0.9859 |       0.9859 |xxxxxxxxxxxxx |xxxxxxxxxxxxx |xxxxxxxxxxxxx |       0.9859 |       0.9859 |       0.9859 |       0.9859 |xxxxxxxxxxxxx |xxxxxxxxxxxxx |xxxxxxxxxxxxx |       0.9859 |       0.9859 |       0.9859 |       0.9859 |xxxxxxxxxxxxx |xxxxxxxxxxxxx |xxxxxxxxxxxxx |       0.9859 |       0.9859 |       0.9859 |       0.9859 |xxxxxxxxxxxxx |xxxxxxxxxxxxx |xxxxxxxxxxxxx |       0.9859 |       0.9859 |       0.9859 |       0.9859 |xxxxxxxxxxxxx |xxxxxxxxxxxxx |xxxxxxxxxxxxx |       0.9859 |       0.9859 |       0.9859 |       0.9859 |xxxxxxxxxxxxx |xxxxxxxxxxxxx |xxxxxxxxxxxxx |       1.0000 |       1.0000 |       1.0000 |       1.0000 |xxxxxxxxxxxxx |xxxxxxxxxxxxx |xxxxxxxxxxxxx |       1.0000 |       1.0000 |       1.0000 |       1.0000 |xxxxxxxxxxxxx |xxxxxxxxxxxxx |xxxxxxxxxxxxx |       1.0000 |       1.0000 |       1.0000 |       1.0000 |xxxxxxxxxxxxx |xxxxxxxxxxxxx |xxxxxxxxxxxxx |       1.0000 |       1.0000 |       1.0000 |       1.0000 |

Command list: 
	sslittle-na-sstrix-gcc -Wall -O3 -funroll-loops -finline-functions  -DRANDOM_SIZE=4096 -DOFFSET=5 -DSORT=aligned_memory_tuned_radixsort sorts/aligned_memory_tuned_radixsort1602027702.c simpleMain.c -o aligned_memory_tuned_radixsort1340255903
	sim-cache -cache:dl1 dl1:256:32:1:l -cache:dl2 dl2:131072:32:1:l -cache:il1 il1:256:32:1:l -cache:il2 dl2 aligned_memory_tuned_radixsort1340255903
	sim-cache -cache:dl1 dl1:256:32:1:l -cache:dl2 dl2:65536:32:1:l -cache:il1 il1:256:32:1:l -cache:il2 dl2 aligned_memory_tuned_radixsort1340255903
	sim-cache -cache:dl1 dl1:1:32:256:l -cache:dl2 dl2:1:32:131072:l -cache:il1 il1:1:32:256:l -cache:il2 dl2 aligned_memory_tuned_radixsort1340255903
	sim-cache -cache:dl1 dl1:1:32:256:l -cache:dl2 dl2:1:32:65536:l -cache:il1 il1:1:32:256:l -cache:il2 dl2 aligned_memory_tuned_radixsort1340255903
	sim-bpred -bpred bimod -bpred:bimod 512 aligned_memory_tuned_radixsort1340255903
	sim-bpred -bpred bimod -bpred:bimod 1024 aligned_memory_tuned_radixsort1340255903
	sim-bpred -bpred bimod -bpred:bimod 2048 aligned_memory_tuned_radixsort1340255903
	sim-bpred -bpred 2lev -bpred:2lev 1 512 10 1 aligned_memory_tuned_radixsort1340255903
	sim-bpred -bpred 2lev -bpred:2lev 1 1024 10 1 aligned_memory_tuned_radixsort1340255903
	sim-bpred -bpred 2lev -bpred:2lev 1 2048 10 1 aligned_memory_tuned_radixsort1340255903
	sim-bpred -bpred 2lev -bpred:2lev 1 4096 10 1 aligned_memory_tuned_radixsort1340255903
	sslittle-na-sstrix-gcc -Wall -O3 -funroll-loops -finline-functions  -DRANDOM_SIZE=8192 -DOFFSET=5 -DSORT=aligned_memory_tuned_radixsort sorts/aligned_memory_tuned_radixsort1602027702.c simpleMain.c -o aligned_memory_tuned_radixsort1340255903
	sim-cache -cache:dl1 dl1:256:32:1:l -cache:dl2 dl2:131072:32:1:l -cache:il1 il1:256:32:1:l -cache:il2 dl2 aligned_memory_tuned_radixsort1340255903
	sim-cache -cache:dl1 dl1:256:32:1:l -cache:dl2 dl2:65536:32:1:l -cache:il1 il1:256:32:1:l -cache:il2 dl2 aligned_memory_tuned_radixsort1340255903
	sim-cache -cache:dl1 dl1:1:32:256:l -cache:dl2 dl2:1:32:131072:l -cache:il1 il1:1:32:256:l -cache:il2 dl2 aligned_memory_tuned_radixsort1340255903
	sim-cache -cache:dl1 dl1:1:32:256:l -cache:dl2 dl2:1:32:65536:l -cache:il1 il1:1:32:256:l -cache:il2 dl2 aligned_memory_tuned_radixsort1340255903
	sim-bpred -bpred bimod -bpred:bimod 512 aligned_memory_tuned_radixsort1340255903
	sim-bpred -bpred bimod -bpred:bimod 1024 aligned_memory_tuned_radixsort1340255903
	sim-bpred -bpred bimod -bpred:bimod 2048 aligned_memory_tuned_radixsort1340255903
	sim-bpred -bpred 2lev -bpred:2lev 1 512 10 1 aligned_memory_tuned_radixsort1340255903
	sim-bpred -bpred 2lev -bpred:2lev 1 1024 10 1 aligned_memory_tuned_radixsort1340255903
	sim-bpred -bpred 2lev -bpred:2lev 1 2048 10 1 aligned_memory_tuned_radixsort1340255903
	sim-bpred -bpred 2lev -bpred:2lev 1 4096 10 1 aligned_memory_tuned_radixsort1340255903
	sslittle-na-sstrix-gcc -Wall -O3 -funroll-loops -finline-functions  -DRANDOM_SIZE=16384 -DOFFSET=5 -DSORT=aligned_memory_tuned_radixsort sorts/aligned_memory_tuned_radixsort1602027702.c simpleMain.c -o aligned_memory_tuned_radixsort1340255903
	sim-cache -cache:dl1 dl1:256:32:1:l -cache:dl2 dl2:131072:32:1:l -cache:il1 il1:256:32:1:l -cache:il2 dl2 aligned_memory_tuned_radixsort1340255903
	sim-cache -cache:dl1 dl1:256:32:1:l -cache:dl2 dl2:65536:32:1:l -cache:il1 il1:256:32:1:l -cache:il2 dl2 aligned_memory_tuned_radixsort1340255903
	sim-cache -cache:dl1 dl1:1:32:256:l -cache:dl2 dl2:1:32:131072:l -cache:il1 il1:1:32:256:l -cache:il2 dl2 aligned_memory_tuned_radixsort1340255903
	sim-cache -cache:dl1 dl1:1:32:256:l -cache:dl2 dl2:1:32:65536:l -cache:il1 il1:1:32:256:l -cache:il2 dl2 aligned_memory_tuned_radixsort1340255903
	sim-bpred -bpred bimod -bpred:bimod 512 aligned_memory_tuned_radixsort1340255903
	sim-bpred -bpred bimod -bpred:bimod 1024 aligned_memory_tuned_radixsort1340255903
	sim-bpred -bpred bimod -bpred:bimod 2048 aligned_memory_tuned_radixsort1340255903
	sim-bpred -bpred 2lev -bpred:2lev 1 512 10 1 aligned_memory_tuned_radixsort1340255903
	sim-bpred -bpred 2lev -bpred:2lev 1 1024 10 1 aligned_memory_tuned_radixsort1340255903
	sim-bpred -bpred 2lev -bpred:2lev 1 2048 10 1 aligned_memory_tuned_radixsort1340255903
	sim-bpred -bpred 2lev -bpred:2lev 1 4096 10 1 aligned_memory_tuned_radixsort1340255903
	sslittle-na-sstrix-gcc -Wall -O3 -funroll-loops -finline-functions  -DRANDOM_SIZE=32768 -DOFFSET=5 -DSORT=aligned_memory_tuned_radixsort sorts/aligned_memory_tuned_radixsort1602027702.c simpleMain.c -o aligned_memory_tuned_radixsort1340255903
	sim-cache -cache:dl1 dl1:256:32:1:l -cache:dl2 dl2:131072:32:1:l -cache:il1 il1:256:32:1:l -cache:il2 dl2 aligned_memory_tuned_radixsort1340255903
	sim-cache -cache:dl1 dl1:256:32:1:l -cache:dl2 dl2:65536:32:1:l -cache:il1 il1:256:32:1:l -cache:il2 dl2 aligned_memory_tuned_radixsort1340255903
	sim-cache -cache:dl1 dl1:1:32:256:l -cache:dl2 dl2:1:32:131072:l -cache:il1 il1:1:32:256:l -cache:il2 dl2 aligned_memory_tuned_radixsort1340255903
	sim-cache -cache:dl1 dl1:1:32:256:l -cache:dl2 dl2:1:32:65536:l -cache:il1 il1:1:32:256:l -cache:il2 dl2 aligned_memory_tuned_radixsort1340255903
	sim-bpred -bpred bimod -bpred:bimod 512 aligned_memory_tuned_radixsort1340255903
	sim-bpred -bpred bimod -bpred:bimod 1024 aligned_memory_tuned_radixsort1340255903
	sim-bpred -bpred bimod -bpred:bimod 2048 aligned_memory_tuned_radixsort1340255903
	sim-bpred -bpred 2lev -bpred:2lev 1 512 10 1 aligned_memory_tuned_radixsort1340255903
	sim-bpred -bpred 2lev -bpred:2lev 1 1024 10 1 aligned_memory_tuned_radixsort1340255903
	sim-bpred -bpred 2lev -bpred:2lev 1 2048 10 1 aligned_memory_tuned_radixsort1340255903
	sim-bpred -bpred 2lev -bpred:2lev 1 4096 10 1 aligned_memory_tuned_radixsort1340255903
	sslittle-na-sstrix-gcc -Wall -O3 -funroll-loops -finline-functions  -DRANDOM_SIZE=65536 -DOFFSET=5 -DSORT=aligned_memory_tuned_radixsort sorts/aligned_memory_tuned_radixsort1602027702.c simpleMain.c -o aligned_memory_tuned_radixsort1340255903
	sim-cache -cache:dl1 dl1:256:32:1:l -cache:dl2 dl2:131072:32:1:l -cache:il1 il1:256:32:1:l -cache:il2 dl2 aligned_memory_tuned_radixsort1340255903
	sim-cache -cache:dl1 dl1:256:32:1:l -cache:dl2 dl2:65536:32:1:l -cache:il1 il1:256:32:1:l -cache:il2 dl2 aligned_memory_tuned_radixsort1340255903
	sim-cache -cache:dl1 dl1:1:32:256:l -cache:dl2 dl2:1:32:131072:l -cache:il1 il1:1:32:256:l -cache:il2 dl2 aligned_memory_tuned_radixsort1340255903
	sim-cache -cache:dl1 dl1:1:32:256:l -cache:dl2 dl2:1:32:65536:l -cache:il1 il1:1:32:256:l -cache:il2 dl2 aligned_memory_tuned_radixsort1340255903
	sim-bpred -bpred bimod -bpred:bimod 512 aligned_memory_tuned_radixsort1340255903
	sim-bpred -bpred bimod -bpred:bimod 1024 aligned_memory_tuned_radixsort1340255903
	sim-bpred -bpred bimod -bpred:bimod 2048 aligned_memory_tuned_radixsort1340255903
	sim-bpred -bpred 2lev -bpred:2lev 1 512 10 1 aligned_memory_tuned_radixsort1340255903
	sim-bpred -bpred 2lev -bpred:2lev 1 1024 10 1 aligned_memory_tuned_radixsort1340255903
	sim-bpred -bpred 2lev -bpred:2lev 1 2048 10 1 aligned_memory_tuned_radixsort1340255903
	sim-bpred -bpred 2lev -bpred:2lev 1 4096 10 1 aligned_memory_tuned_radixsort1340255903
	sslittle-na-sstrix-gcc -Wall -O3 -funroll-loops -finline-functions  -DRANDOM_SIZE=131072 -DOFFSET=5 -DSORT=aligned_memory_tuned_radixsort sorts/aligned_memory_tuned_radixsort1602027702.c simpleMain.c -o aligned_memory_tuned_radixsort1340255903
	sim-cache -cache:dl1 dl1:256:32:1:l -cache:dl2 dl2:131072:32:1:l -cache:il1 il1:256:32:1:l -cache:il2 dl2 aligned_memory_tuned_radixsort1340255903
	sim-cache -cache:dl1 dl1:256:32:1:l -cache:dl2 dl2:65536:32:1:l -cache:il1 il1:256:32:1:l -cache:il2 dl2 aligned_memory_tuned_radixsort1340255903
	sim-cache -cache:dl1 dl1:1:32:256:l -cache:dl2 dl2:1:32:131072:l -cache:il1 il1:1:32:256:l -cache:il2 dl2 aligned_memory_tuned_radixsort1340255903
	sim-cache -cache:dl1 dl1:1:32:256:l -cache:dl2 dl2:1:32:65536:l -cache:il1 il1:1:32:256:l -cache:il2 dl2 aligned_memory_tuned_radixsort1340255903
	sim-bpred -bpred bimod -bpred:bimod 512 aligned_memory_tuned_radixsort1340255903
	sim-bpred -bpred bimod -bpred:bimod 1024 aligned_memory_tuned_radixsort1340255903
	sim-bpred -bpred bimod -bpred:bimod 2048 aligned_memory_tuned_radixsort1340255903
	sim-bpred -bpred 2lev -bpred:2lev 1 512 10 1 aligned_memory_tuned_radixsort1340255903
	sim-bpred -bpred 2lev -bpred:2lev 1 1024 10 1 aligned_memory_tuned_radixsort1340255903
	sim-bpred -bpred 2lev -bpred:2lev 1 2048 10 1 aligned_memory_tuned_radixsort1340255903
	sim-bpred -bpred 2lev -bpred:2lev 1 4096 10 1 aligned_memory_tuned_radixsort1340255903
	sslittle-na-sstrix-gcc -Wall -O3 -funroll-loops -finline-functions  -DRANDOM_SIZE=262144 -DOFFSET=5 -DSORT=aligned_memory_tuned_radixsort sorts/aligned_memory_tuned_radixsort1602027702.c simpleMain.c -o aligned_memory_tuned_radixsort1340255903
	sim-cache -cache:dl1 dl1:256:32:1:l -cache:dl2 dl2:131072:32:1:l -cache:il1 il1:256:32:1:l -cache:il2 dl2 aligned_memory_tuned_radixsort1340255903
	sim-cache -cache:dl1 dl1:256:32:1:l -cache:dl2 dl2:65536:32:1:l -cache:il1 il1:256:32:1:l -cache:il2 dl2 aligned_memory_tuned_radixsort1340255903
	sim-cache -cache:dl1 dl1:1:32:256:l -cache:dl2 dl2:1:32:131072:l -cache:il1 il1:1:32:256:l -cache:il2 dl2 aligned_memory_tuned_radixsort1340255903
	sim-cache -cache:dl1 dl1:1:32:256:l -cache:dl2 dl2:1:32:65536:l -cache:il1 il1:1:32:256:l -cache:il2 dl2 aligned_memory_tuned_radixsort1340255903
	sim-bpred -bpred bimod -bpred:bimod 512 aligned_memory_tuned_radixsort1340255903
	sim-bpred -bpred bimod -bpred:bimod 1024 aligned_memory_tuned_radixsort1340255903
	sim-bpred -bpred bimod -bpred:bimod 2048 aligned_memory_tuned_radixsort1340255903
	sim-bpred -bpred 2lev -bpred:2lev 1 512 10 1 aligned_memory_tuned_radixsort1340255903
	sim-bpred -bpred 2lev -bpred:2lev 1 1024 10 1 aligned_memory_tuned_radixsort1340255903
	sim-bpred -bpred 2lev -bpred:2lev 1 2048 10 1 aligned_memory_tuned_radixsort1340255903
	sim-bpred -bpred 2lev -bpred:2lev 1 4096 10 1 aligned_memory_tuned_radixsort1340255903
	sslittle-na-sstrix-gcc -Wall -O3 -funroll-loops -finline-functions  -DRANDOM_SIZE=524288 -DOFFSET=5 -DSORT=aligned_memory_tuned_radixsort sorts/aligned_memory_tuned_radixsort1602027702.c simpleMain.c -o aligned_memory_tuned_radixsort1340255903
	sim-cache -cache:dl1 dl1:256:32:1:l -cache:dl2 dl2:131072:32:1:l -cache:il1 il1:256:32:1:l -cache:il2 dl2 aligned_memory_tuned_radixsort1340255903
	sim-cache -cache:dl1 dl1:256:32:1:l -cache:dl2 dl2:65536:32:1:l -cache:il1 il1:256:32:1:l -cache:il2 dl2 aligned_memory_tuned_radixsort1340255903
	sim-cache -cache:dl1 dl1:1:32:256:l -cache:dl2 dl2:1:32:131072:l -cache:il1 il1:1:32:256:l -cache:il2 dl2 aligned_memory_tuned_radixsort1340255903
	sim-cache -cache:dl1 dl1:1:32:256:l -cache:dl2 dl2:1:32:65536:l -cache:il1 il1:1:32:256:l -cache:il2 dl2 aligned_memory_tuned_radixsort1340255903
	sim-bpred -bpred bimod -bpred:bimod 512 aligned_memory_tuned_radixsort1340255903
	sim-bpred -bpred bimod -bpred:bimod 1024 aligned_memory_tuned_radixsort1340255903
	sim-bpred -bpred bimod -bpred:bimod 2048 aligned_memory_tuned_radixsort1340255903
	sim-bpred -bpred 2lev -bpred:2lev 1 512 10 1 aligned_memory_tuned_radixsort1340255903
	sim-bpred -bpred 2lev -bpred:2lev 1 1024 10 1 aligned_memory_tuned_radixsort1340255903
	sim-bpred -bpred 2lev -bpred:2lev 1 2048 10 1 aligned_memory_tuned_radixsort1340255903
	sim-bpred -bpred 2lev -bpred:2lev 1 4096 10 1 aligned_memory_tuned_radixsort1340255903
	sslittle-na-sstrix-gcc -Wall -O3 -funroll-loops -finline-functions  -DRANDOM_SIZE=1048576 -DOFFSET=5 -DSORT=aligned_memory_tuned_radixsort sorts/aligned_memory_tuned_radixsort1602027702.c simpleMain.c -o aligned_memory_tuned_radixsort1340255903
	sim-cache -cache:dl1 dl1:256:32:1:l -cache:dl2 dl2:131072:32:1:l -cache:il1 il1:256:32:1:l -cache:il2 dl2 aligned_memory_tuned_radixsort1340255903
	sim-cache -cache:dl1 dl1:256:32:1:l -cache:dl2 dl2:65536:32:1:l -cache:il1 il1:256:32:1:l -cache:il2 dl2 aligned_memory_tuned_radixsort1340255903
	sim-cache -cache:dl1 dl1:1:32:256:l -cache:dl2 dl2:1:32:131072:l -cache:il1 il1:1:32:256:l -cache:il2 dl2 aligned_memory_tuned_radixsort1340255903
	sim-cache -cache:dl1 dl1:1:32:256:l -cache:dl2 dl2:1:32:65536:l -cache:il1 il1:1:32:256:l -cache:il2 dl2 aligned_memory_tuned_radixsort1340255903
	sim-bpred -bpred bimod -bpred:bimod 512 aligned_memory_tuned_radixsort1340255903
	sim-bpred -bpred bimod -bpred:bimod 1024 aligned_memory_tuned_radixsort1340255903
	sim-bpred -bpred bimod -bpred:bimod 2048 aligned_memory_tuned_radixsort1340255903
	sim-bpred -bpred 2lev -bpred:2lev 1 512 10 1 aligned_memory_tuned_radixsort1340255903
	sim-bpred -bpred 2lev -bpred:2lev 1 1024 10 1 aligned_memory_tuned_radixsort1340255903
	sim-bpred -bpred 2lev -bpred:2lev 1 2048 10 1 aligned_memory_tuned_radixsort1340255903
	sim-bpred -bpred 2lev -bpred:2lev 1 4096 10 1 aligned_memory_tuned_radixsort1340255903
	sslittle-na-sstrix-gcc -Wall -O3 -funroll-loops -finline-functions  -DRANDOM_SIZE=2097152 -DOFFSET=5 -DSORT=aligned_memory_tuned_radixsort sorts/aligned_memory_tuned_radixsort1602027702.c simpleMain.c -o aligned_memory_tuned_radixsort1340255903
	sim-cache -cache:dl1 dl1:256:32:1:l -cache:dl2 dl2:131072:32:1:l -cache:il1 il1:256:32:1:l -cache:il2 dl2 aligned_memory_tuned_radixsort1340255903
	sim-cache -cache:dl1 dl1:256:32:1:l -cache:dl2 dl2:65536:32:1:l -cache:il1 il1:256:32:1:l -cache:il2 dl2 aligned_memory_tuned_radixsort1340255903
	sim-cache -cache:dl1 dl1:1:32:256:l -cache:dl2 dl2:1:32:131072:l -cache:il1 il1:1:32:256:l -cache:il2 dl2 aligned_memory_tuned_radixsort1340255903
	sim-cache -cache:dl1 dl1:1:32:256:l -cache:dl2 dl2:1:32:65536:l -cache:il1 il1:1:32:256:l -cache:il2 dl2 aligned_memory_tuned_radixsort1340255903
	sim-bpred -bpred bimod -bpred:bimod 512 aligned_memory_tuned_radixsort1340255903
	sim-bpred -bpred bimod -bpred:bimod 1024 aligned_memory_tuned_radixsort1340255903
	sim-bpred -bpred bimod -bpred:bimod 2048 aligned_memory_tuned_radixsort1340255903
	sim-bpred -bpred 2lev -bpred:2lev 1 512 10 1 aligned_memory_tuned_radixsort1340255903
	sim-bpred -bpred 2lev -bpred:2lev 1 1024 10 1 aligned_memory_tuned_radixsort1340255903
	sim-bpred -bpred 2lev -bpred:2lev 1 2048 10 1 aligned_memory_tuned_radixsort1340255903
	sim-bpred -bpred 2lev -bpred:2lev 1 4096 10 1 aligned_memory_tuned_radixsort1340255903
	sslittle-na-sstrix-gcc -Wall -O3 -funroll-loops -finline-functions  -DRANDOM_SIZE=4194304 -DOFFSET=5 -DSORT=aligned_memory_tuned_radixsort sorts/aligned_memory_tuned_radixsort1602027702.c simpleMain.c -o aligned_memory_tuned_radixsort1340255903
	sim-cache -cache:dl1 dl1:256:32:1:l -cache:dl2 dl2:131072:32:1:l -cache:il1 il1:256:32:1:l -cache:il2 dl2 aligned_memory_tuned_radixsort1340255903
	sim-cache -cache:dl1 dl1:256:32:1:l -cache:dl2 dl2:65536:32:1:l -cache:il1 il1:256:32:1:l -cache:il2 dl2 aligned_memory_tuned_radixsort1340255903
	sim-cache -cache:dl1 dl1:1:32:256:l -cache:dl2 dl2:1:32:131072:l -cache:il1 il1:1:32:256:l -cache:il2 dl2 aligned_memory_tuned_radixsort1340255903
	sim-cache -cache:dl1 dl1:1:32:256:l -cache:dl2 dl2:1:32:65536:l -cache:il1 il1:1:32:256:l -cache:il2 dl2 aligned_memory_tuned_radixsort1340255903
	sim-bpred -bpred bimod -bpred:bimod 512 aligned_memory_tuned_radixsort1340255903
	sim-bpred -bpred bimod -bpred:bimod 1024 aligned_memory_tuned_radixsort1340255903
	sim-bpred -bpred bimod -bpred:bimod 2048 aligned_memory_tuned_radixsort1340255903
	sim-bpred -bpred 2lev -bpred:2lev 1 512 10 1 aligned_memory_tuned_radixsort1340255903
	sim-bpred -bpred 2lev -bpred:2lev 1 1024 10 1 aligned_memory_tuned_radixsort1340255903
	sim-bpred -bpred 2lev -bpred:2lev 1 2048 10 1 aligned_memory_tuned_radixsort1340255903
	sim-bpred -bpred 2lev -bpred:2lev 1 4096 10 1 aligned_memory_tuned_radixsort1340255903
