Sun Jul 24 13:19:00 2005
Run as: "./do_simple -c random.org7 -o 7 aligned_cache_radixsort"
-------------------------------------------------------------------------------------------------
sim-cache                                     4096 |         4096 |         4096 |         4096 |         8192 |         8192 |         8192 |         8192 |        16384 |        16384 |        16384 |        16384 |        32768 |        32768 |        32768 |        32768 |        65536 |        65536 |        65536 |        65536 |       131072 |       131072 |       131072 |       131072 |       262144 |       262144 |       262144 |       262144 |       524288 |       524288 |       524288 |       524288 |      1048576 |      1048576 |      1048576 |      1048576 |      2097152 |      2097152 |      2097152 |      2097152 |      4194304 |      4194304 |      4194304 |      4194304 |
-cache:dl1 dl1:256:32:1:l -cache:dl2 dl2:131072:32:1:l -cache:il1 il1:256:32:1:l -cache:il2 dl2
-cache:dl1 dl1:256:32:1:l -cache:dl2 dl2:65536:32:1:l -cache:il1 il1:256:32:1:l -cache:il2 dl2
-cache:dl1 dl1:1:32:256:l -cache:dl2 dl2:1:32:131072:l -cache:il1 il1:1:32:256:l -cache:il2 dl2
-cache:dl1 dl1:1:32:256:l -cache:dl2 dl2:1:32:65536:l -cache:il1 il1:1:32:256:l -cache:il2 dl2
-------------------------------------------------------------------------------------------------
sim_num_insn                                378851 |       378851 |       378851 |       378851 |       744423 |       744423 |       744423 |       744423 |      1475561 |      1475561 |      1475561 |      1475561 |      2937834 |      2937834 |      2937834 |      2937834 |      5862378 |      5862378 |      5862378 |      5862378 |     11711467 |     11711467 |     11711467 |     11711467 |     23409643 |     23409643 |     23409643 |     23409643 |     46818471 |     46818471 |     46818471 |     46818471 |     93611175 |     93611175 |     93611175 |     93611175 |    187205807 |    187205807 |    187205807 |    187205807 |    374395063 |    374395063 |    374395063 |    374395063 |
sim_num_refs                                138964 |       138964 |       138964 |       138964 |       270036 |       270036 |       270036 |       270036 |       532180 |       532180 |       532180 |       532180 |      1056468 |      1056468 |      1056468 |      1056468 |      2105044 |      2105044 |      2105044 |      2105044 |      4202196 |      4202196 |      4202196 |      4202196 |      8396500 |      8396500 |      8396500 |      8396500 |     16794370 |     16794370 |     16794370 |     16794370 |     33571586 |     33571586 |     33571586 |     33571586 |     67132162 |     67132162 |     67132162 |     67132162 |    134253314 |    134253314 |    134253314 |    134253314 |
sim_elapsed_time                                 1 |            1 |           10 |            5 |            1 |            1 |           16 |            7 |            1 |            1 |           26 |           12 |            1 |            1 |           45 |           22 |            1 |            2 |           85 |           41 |            4 |            3 |          155 |           69 |            7 |            8 |          262 |           93 |           15 |           15 |          353 |          100 |           30 |           30 |          369 |          117 |           60 |           60 |          403 |          151 |          120 |          119 |          471 |          219 |
sim_inst_rate                          378851.0000 |  378851.0000 |   37885.1000 |   75770.2000 |  744423.0000 |  744423.0000 |   46526.4375 |  106346.1429 | 1475561.0000 | 1475561.0000 |   56752.3462 |  122963.4167 | 2937834.0000 | 2937834.0000 |   65285.2000 |  133537.9091 | 5862378.0000 | 2931189.0000 |   68969.1529 |  142984.8293 | 2927866.7500 | 3903822.3333 |   75557.8516 |  169731.4058 | 3344234.7143 | 2926205.3750 |   89349.7824 |  251716.5914 | 3121231.4000 | 3121231.4000 |  132630.2295 |  468184.7100 | 3120372.5000 | 3120372.5000 |  253688.8211 |  800095.5128 | 3120096.7833 | 3120096.7833 |  464530.5385 | 1239773.5563 | 3119958.8583 | 3146177.0000 |  794893.9766 | 1709566.4977 |
il1.accesses                                378851 |       378851 |       378851 |       378851 |       744423 |       744423 |       744423 |       744423 |      1475561 |      1475561 |      1475561 |      1475561 |      2937834 |      2937834 |      2937834 |      2937834 |      5862378 |      5862378 |      5862378 |      5862378 |     11711467 |     11711467 |     11711467 |     11711467 |     23409643 |     23409643 |     23409643 |     23409643 |     46818471 |     46818471 |     46818471 |     46818471 |     93611175 |     93611175 |     93611175 |     93611175 |    187205807 |    187205807 |    187205807 |    187205807 |    374395063 |    374395063 |    374395063 |    374395063 |
il1.hits                                    378320 |       378320 |       378417 |       378417 |       743891 |       743891 |       743989 |       743989 |      1475020 |      1475020 |      1475126 |      1475126 |      2937298 |      2937298 |      2937397 |      2937397 |      5861842 |      5861842 |      5861941 |      5861941 |     11710931 |     11710931 |     11711030 |     11711030 |     23409107 |     23409107 |     23409206 |     23409206 |     46817892 |     46817892 |     46817999 |     46817999 |     93610596 |     93610596 |     93610703 |     93610703 |    187205228 |    187205228 |    187205335 |    187205335 |    374394484 |    374394484 |    374394591 |    374394591 |
il1.misses                                     531 |          531 |          434 |          434 |          532 |          532 |          434 |          434 |          541 |          541 |          435 |          435 |          536 |          536 |          437 |          437 |          536 |          536 |          437 |          437 |          536 |          536 |          437 |          437 |          536 |          536 |          437 |          437 |          579 |          579 |          472 |          472 |          579 |          579 |          472 |          472 |          579 |          579 |          472 |          472 |          579 |          579 |          472 |          472 |
il1.replacements                               312 |          312 |          178 |          178 |          314 |          314 |          178 |          178 |          319 |          319 |          179 |          179 |          319 |          319 |          181 |          181 |          319 |          319 |          181 |          181 |          319 |          319 |          181 |          181 |          319 |          319 |          181 |          181 |          351 |          351 |          216 |          216 |          351 |          351 |          216 |          216 |          351 |          351 |          216 |          216 |          351 |          351 |          216 |          216 |
il1.writebacks                                   0 |            0 |            0 |            0 |            0 |            0 |            0 |            0 |            0 |            0 |            0 |            0 |            0 |            0 |            0 |            0 |            0 |            0 |            0 |            0 |            0 |            0 |            0 |            0 |            0 |            0 |            0 |            0 |            0 |            0 |            0 |            0 |            0 |            0 |            0 |            0 |            0 |            0 |            0 |            0 |            0 |            0 |            0 |            0 |
il1.invalidations                                0 |            0 |            0 |            0 |            0 |            0 |            0 |            0 |            0 |            0 |            0 |            0 |            0 |            0 |            0 |            0 |            0 |            0 |            0 |            0 |            0 |            0 |            0 |            0 |            0 |            0 |            0 |            0 |            0 |            0 |            0 |            0 |            0 |            0 |            0 |            0 |            0 |            0 |            0 |            0 |            0 |            0 |            0 |            0 |
il1.miss_rate                               0.0014 |       0.0014 |       0.0011 |       0.0011 |       0.0007 |       0.0007 |       0.0006 |       0.0006 |       0.0004 |       0.0004 |       0.0003 |       0.0003 |       0.0002 |       0.0002 |       0.0001 |       0.0001 |       0.0001 |       0.0001 |       0.0001 |       0.0001 |       0.0000 |       0.0000 |       0.0000 |       0.0000 |       0.0000 |       0.0000 |       0.0000 |       0.0000 |       0.0000 |       0.0000 |       0.0000 |       0.0000 |       0.0000 |       0.0000 |       0.0000 |       0.0000 |       0.0000 |       0.0000 |       0.0000 |       0.0000 |       0.0000 |       0.0000 |       0.0000 |       0.0000 |
il1.repl_rate                               0.0008 |       0.0008 |       0.0005 |       0.0005 |       0.0004 |       0.0004 |       0.0002 |       0.0002 |       0.0002 |       0.0002 |       0.0001 |       0.0001 |       0.0001 |       0.0001 |       0.0001 |       0.0001 |       0.0001 |       0.0001 |       0.0000 |       0.0000 |       0.0000 |       0.0000 |       0.0000 |       0.0000 |       0.0000 |       0.0000 |       0.0000 |       0.0000 |       0.0000 |       0.0000 |       0.0000 |       0.0000 |       0.0000 |       0.0000 |       0.0000 |       0.0000 |       0.0000 |       0.0000 |       0.0000 |       0.0000 |       0.0000 |       0.0000 |       0.0000 |       0.0000 |
il1.wb_rate                                 0.0000 |       0.0000 |       0.0000 |       0.0000 |       0.0000 |       0.0000 |       0.0000 |       0.0000 |       0.0000 |       0.0000 |       0.0000 |       0.0000 |       0.0000 |       0.0000 |       0.0000 |       0.0000 |       0.0000 |       0.0000 |       0.0000 |       0.0000 |       0.0000 |       0.0000 |       0.0000 |       0.0000 |       0.0000 |       0.0000 |       0.0000 |       0.0000 |       0.0000 |       0.0000 |       0.0000 |       0.0000 |       0.0000 |       0.0000 |       0.0000 |       0.0000 |       0.0000 |       0.0000 |       0.0000 |       0.0000 |       0.0000 |       0.0000 |       0.0000 |       0.0000 |
il1.inv_rate                                0.0000 |       0.0000 |       0.0000 |       0.0000 |       0.0000 |       0.0000 |       0.0000 |       0.0000 |       0.0000 |       0.0000 |       0.0000 |       0.0000 |       0.0000 |       0.0000 |       0.0000 |       0.0000 |       0.0000 |       0.0000 |       0.0000 |       0.0000 |       0.0000 |       0.0000 |       0.0000 |       0.0000 |       0.0000 |       0.0000 |       0.0000 |       0.0000 |       0.0000 |       0.0000 |       0.0000 |       0.0000 |       0.0000 |       0.0000 |       0.0000 |       0.0000 |       0.0000 |       0.0000 |       0.0000 |       0.0000 |       0.0000 |       0.0000 |       0.0000 |       0.0000 |
dl1.accesses                                155430 |       155430 |       155430 |       155430 |       302886 |       302886 |       302886 |       302886 |       597798 |       597798 |       597798 |       597798 |      1187622 |      1187622 |      1187622 |      1187622 |      2367270 |      2367270 |      2367270 |      2367270 |      4726566 |      4726566 |      4726566 |      4726566 |      9445158 |      9445158 |      9445158 |      9445158 |     18891604 |     18891604 |     18891604 |     18891604 |     37765972 |     37765972 |     37765972 |     37765972 |     75520852 |     75520852 |     75520852 |     75520852 |    151030612 |    151030612 |    151030612 |    151030612 |
dl1.hits                                    138862 |       138862 |       143997 |       143997 |       269620 |       269620 |       280835 |       280835 |       531153 |       531153 |       554143 |       554143 |      1054486 |      1054486 |      1101088 |      1101088 |      2098038 |      2098038 |      2195122 |      2195122 |      4171202 |      4171202 |      4382683 |      4382683 |      8291848 |      8291848 |      8759220 |      8759220 |     16445435 |     16445435 |     17519916 |     17519916 |     33037020 |     33037020 |     35022342 |     35022342 |     66268316 |     66268316 |     70035386 |     70035386 |    133412605 |    133412605 |    140062810 |    140062810 |
dl1.misses                                   16568 |        16568 |        11433 |        11433 |        33266 |        33266 |        22051 |        22051 |        66645 |        66645 |        43655 |        43655 |       133136 |       133136 |        86534 |        86534 |       269232 |       269232 |       172148 |       172148 |       555364 |       555364 |       343883 |       343883 |      1153310 |      1153310 |       685938 |       685938 |      2446169 |      2446169 |      1371688 |      1371688 |      4728952 |      4728952 |      2743630 |      2743630 |      9252536 |      9252536 |      5485466 |      5485466 |     17618007 |     17618007 |     10967802 |     10967802 |
dl1.replacements                             16312 |        16312 |        11177 |        11177 |        33010 |        33010 |        21795 |        21795 |        66389 |        66389 |        43399 |        43399 |       132880 |       132880 |        86278 |        86278 |       268976 |       268976 |       171892 |       171892 |       555108 |       555108 |       343627 |       343627 |      1153054 |      1153054 |       685682 |       685682 |      2445913 |      2445913 |      1371432 |      1371432 |      4728696 |      4728696 |      2743374 |      2743374 |      9252280 |      9252280 |      5485210 |      5485210 |     17617751 |     17617751 |     10967546 |     10967546 |
dl1.writebacks                               13697 |        13697 |         8658 |         8658 |        27614 |        27614 |        16704 |        16704 |        55505 |        55505 |        33180 |        33180 |       110967 |       110967 |        65813 |        65813 |       225244 |       225244 |       130947 |       130947 |       467559 |       467559 |       261721 |       261721 |       977935 |       977935 |       521856 |       521856 |      2094743 |      2094743 |      1043378 |      1043378 |      4026347 |      4026347 |      2087642 |      2087642 |      7848458 |      7848458 |      4174116 |      4174116 |     14809827 |     14809827 |      8345732 |      8345732 |
dl1.invalidations                                0 |            0 |            0 |            0 |            0 |            0 |            0 |            0 |            0 |            0 |            0 |            0 |            0 |            0 |            0 |            0 |            0 |            0 |            0 |            0 |            0 |            0 |            0 |            0 |            0 |            0 |            0 |            0 |            0 |            0 |            0 |            0 |            0 |            0 |            0 |            0 |            0 |            0 |            0 |            0 |            0 |            0 |            0 |            0 |
dl1.miss_rate                               0.1066 |       0.1066 |       0.0736 |       0.0736 |       0.1098 |       0.1098 |       0.0728 |       0.0728 |       0.1115 |       0.1115 |       0.0730 |       0.0730 |       0.1121 |       0.1121 |       0.0729 |       0.0729 |       0.1137 |       0.1137 |       0.0727 |       0.0727 |       0.1175 |       0.1175 |       0.0728 |       0.0728 |       0.1221 |       0.1221 |       0.0726 |       0.0726 |       0.1295 |       0.1295 |       0.0726 |       0.0726 |       0.1252 |       0.1252 |       0.0726 |       0.0726 |       0.1225 |       0.1225 |       0.0726 |       0.0726 |       0.1167 |       0.1167 |       0.0726 |       0.0726 |
dl1.repl_rate                               0.1049 |       0.1049 |       0.0719 |       0.0719 |       0.1090 |       0.1090 |       0.0720 |       0.0720 |       0.1111 |       0.1111 |       0.0726 |       0.0726 |       0.1119 |       0.1119 |       0.0726 |       0.0726 |       0.1136 |       0.1136 |       0.0726 |       0.0726 |       0.1174 |       0.1174 |       0.0727 |       0.0727 |       0.1221 |       0.1221 |       0.0726 |       0.0726 |       0.1295 |       0.1295 |       0.0726 |       0.0726 |       0.1252 |       0.1252 |       0.0726 |       0.0726 |       0.1225 |       0.1225 |       0.0726 |       0.0726 |       0.1167 |       0.1167 |       0.0726 |       0.0726 |
dl1.wb_rate                                 0.0881 |       0.0881 |       0.0557 |       0.0557 |       0.0912 |       0.0912 |       0.0551 |       0.0551 |       0.0928 |       0.0928 |       0.0555 |       0.0555 |       0.0934 |       0.0934 |       0.0554 |       0.0554 |       0.0951 |       0.0951 |       0.0553 |       0.0553 |       0.0989 |       0.0989 |       0.0554 |       0.0554 |       0.1035 |       0.1035 |       0.0553 |       0.0553 |       0.1109 |       0.1109 |       0.0552 |       0.0552 |       0.1066 |       0.1066 |       0.0553 |       0.0553 |       0.1039 |       0.1039 |       0.0553 |       0.0553 |       0.0981 |       0.0981 |       0.0553 |       0.0553 |
dl1.inv_rate                                0.0000 |       0.0000 |       0.0000 |       0.0000 |       0.0000 |       0.0000 |       0.0000 |       0.0000 |       0.0000 |       0.0000 |       0.0000 |       0.0000 |       0.0000 |       0.0000 |       0.0000 |       0.0000 |       0.0000 |       0.0000 |       0.0000 |       0.0000 |       0.0000 |       0.0000 |       0.0000 |       0.0000 |       0.0000 |       0.0000 |       0.0000 |       0.0000 |       0.0000 |       0.0000 |       0.0000 |       0.0000 |       0.0000 |       0.0000 |       0.0000 |       0.0000 |       0.0000 |       0.0000 |       0.0000 |       0.0000 |       0.0000 |       0.0000 |       0.0000 |       0.0000 |
dl2.accesses                                 30796 |        30796 |        20525 |        20525 |        61412 |        61412 |        39189 |        39189 |       122691 |       122691 |        77270 |        77270 |       244639 |       244639 |       152784 |       152784 |       495012 |       495012 |       303532 |       303532 |      1023459 |      1023459 |       606041 |       606041 |      2131781 |      2131781 |      1208231 |      1208231 |      4541491 |      4541491 |      2415538 |      2415538 |      8755878 |      8755878 |      4831744 |      4831744 |     17101573 |     17101573 |      9660054 |      9660054 |     32428413 |     32428413 |     19314006 |     19314006 |
dl2.hits                                     28878 |        28878 |        18624 |        18624 |        58469 |        58469 |        36264 |        36264 |       117699 |       117699 |        72295 |        72295 |       235546 |       235546 |       143713 |       143713 |       477727 |       477727 |       286269 |       286269 |       989790 |       989790 |       572394 |       572394 |      2065344 |      2064360 |      1141816 |      1139400 |      4238744 |      4059860 |      2279850 |      1817216 |      7863489 |      7467430 |      3638115 |      3544887 |     14536492 |     14366929 |      7088294 |      7047492 |     27111752 |     26926449 |     14090939 |     14071740 |
dl2.misses                                    1918 |         1918 |         1901 |         1901 |         2943 |         2943 |         2925 |         2925 |         4992 |         4992 |         4975 |         4975 |         9093 |         9093 |         9071 |         9071 |        17285 |        17285 |        17263 |        17263 |        33669 |        33669 |        33647 |        33647 |        66437 |        67421 |        66415 |        68831 |       302747 |       481631 |       135688 |       598322 |       892389 |      1288448 |      1193629 |      1286857 |      2565081 |      2734644 |      2571760 |      2612562 |      5316661 |      5501964 |      5223067 |      5242266 |
dl2.replacements                               130 |          130 |            0 |            0 |          129 |          129 |            0 |            0 |          128 |          128 |            0 |            0 |          133 |          133 |            0 |            0 |          133 |          133 |            0 |            0 |          133 |          133 |            0 |            0 |          133 |         1942 |            0 |         3295 |       202934 |       416095 |         4616 |       532786 |       761317 |      1222912 |      1062557 |      1221321 |      2434009 |      2669108 |      2440688 |      2547026 |      5185589 |      5436428 |      5091995 |      5176730 |
dl2.writebacks                                  66 |           66 |            0 |            0 |           64 |           64 |            0 |            0 |           64 |           64 |            0 |            0 |           64 |           64 |            0 |            0 |           64 |           64 |            0 |            0 |           64 |           64 |            0 |            0 |           64 |         1172 |            0 |         3056 |       158079 |       301285 |         4306 |       297026 |       596083 |       662608 |       591900 |       624718 |      1315125 |      1423850 |      1248071 |      1280926 |      2692040 |      2873759 |      2560379 |      2593311 |
dl2.invalidations                                0 |            0 |            0 |            0 |            0 |            0 |            0 |            0 |            0 |            0 |            0 |            0 |            0 |            0 |            0 |            0 |            0 |            0 |            0 |            0 |            0 |            0 |            0 |            0 |            0 |            0 |            0 |            0 |            0 |            0 |            0 |            0 |            0 |            0 |            0 |            0 |            0 |            0 |            0 |            0 |            0 |            0 |            0 |            0 |
dl2.miss_rate                               0.0623 |       0.0623 |       0.0926 |       0.0926 |       0.0479 |       0.0479 |       0.0746 |       0.0746 |       0.0407 |       0.0407 |       0.0644 |       0.0644 |       0.0372 |       0.0372 |       0.0594 |       0.0594 |       0.0349 |       0.0349 |       0.0569 |       0.0569 |       0.0329 |       0.0329 |       0.0555 |       0.0555 |       0.0312 |       0.0316 |       0.0550 |       0.0570 |       0.0667 |       0.1061 |       0.0562 |       0.2477 |       0.1019 |       0.1472 |       0.2470 |       0.2663 |       0.1500 |       0.1599 |       0.2662 |       0.2705 |       0.1640 |       0.1697 |       0.2704 |       0.2714 |
dl2.repl_rate                               0.0042 |       0.0042 |       0.0000 |       0.0000 |       0.0021 |       0.0021 |       0.0000 |       0.0000 |       0.0010 |       0.0010 |       0.0000 |       0.0000 |       0.0005 |       0.0005 |       0.0000 |       0.0000 |       0.0003 |       0.0003 |       0.0000 |       0.0000 |       0.0001 |       0.0001 |       0.0000 |       0.0000 |       0.0001 |       0.0009 |       0.0000 |       0.0027 |       0.0447 |       0.0916 |       0.0019 |       0.2206 |       0.0869 |       0.1397 |       0.2199 |       0.2528 |       0.1423 |       0.1561 |       0.2527 |       0.2637 |       0.1599 |       0.1676 |       0.2636 |       0.2680 |
dl2.wb_rate                                 0.0021 |       0.0021 |       0.0000 |       0.0000 |       0.0010 |       0.0010 |       0.0000 |       0.0000 |       0.0005 |       0.0005 |       0.0000 |       0.0000 |       0.0003 |       0.0003 |       0.0000 |       0.0000 |       0.0001 |       0.0001 |       0.0000 |       0.0000 |       0.0001 |       0.0001 |       0.0000 |       0.0000 |       0.0000 |       0.0005 |       0.0000 |       0.0025 |       0.0348 |       0.0663 |       0.0018 |       0.1230 |       0.0681 |       0.0757 |       0.1225 |       0.1293 |       0.0769 |       0.0833 |       0.1292 |       0.1326 |       0.0830 |       0.0886 |       0.1326 |       0.1343 |
dl2.inv_rate                                0.0000 |       0.0000 |       0.0000 |       0.0000 |       0.0000 |       0.0000 |       0.0000 |       0.0000 |       0.0000 |       0.0000 |       0.0000 |       0.0000 |       0.0000 |       0.0000 |       0.0000 |       0.0000 |       0.0000 |       0.0000 |       0.0000 |       0.0000 |       0.0000 |       0.0000 |       0.0000 |       0.0000 |       0.0000 |       0.0000 |       0.0000 |       0.0000 |       0.0000 |       0.0000 |       0.0000 |       0.0000 |       0.0000 |       0.0000 |       0.0000 |       0.0000 |       0.0000 |       0.0000 |       0.0000 |       0.0000 |       0.0000 |       0.0000 |       0.0000 |       0.0000 |
itlb.accesses                               378851 |       378851 |       378851 |       378851 |       744423 |       744423 |       744423 |       744423 |      1475561 |      1475561 |      1475561 |      1475561 |      2937834 |      2937834 |      2937834 |      2937834 |      5862378 |      5862378 |      5862378 |      5862378 |     11711467 |     11711467 |     11711467 |     11711467 |     23409643 |     23409643 |     23409643 |     23409643 |     46818471 |     46818471 |     46818471 |     46818471 |     93611175 |     93611175 |     93611175 |     93611175 |    187205807 |    187205807 |    187205807 |    187205807 |    374395063 |    374395063 |    374395063 |    374395063 |
itlb.hits                                   378842 |       378842 |       378842 |       378842 |       744414 |       744414 |       744414 |       744414 |      1475552 |      1475552 |      1475552 |      1475552 |      2937825 |      2937825 |      2937825 |      2937825 |      5862369 |      5862369 |      5862369 |      5862369 |     11711458 |     11711458 |     11711458 |     11711458 |     23409634 |     23409634 |     23409634 |     23409634 |     46818462 |     46818462 |     46818462 |     46818462 |     93611166 |     93611166 |     93611166 |     93611166 |    187205798 |    187205798 |    187205798 |    187205798 |    374395054 |    374395054 |    374395054 |    374395054 |
itlb.misses                                      9 |            9 |            9 |            9 |            9 |            9 |            9 |            9 |            9 |            9 |            9 |            9 |            9 |            9 |            9 |            9 |            9 |            9 |            9 |            9 |            9 |            9 |            9 |            9 |            9 |            9 |            9 |            9 |            9 |            9 |            9 |            9 |            9 |            9 |            9 |            9 |            9 |            9 |            9 |            9 |            9 |            9 |            9 |            9 |
itlb.replacements                                0 |            0 |            0 |            0 |            0 |            0 |            0 |            0 |            0 |            0 |            0 |            0 |            0 |            0 |            0 |            0 |            0 |            0 |            0 |            0 |            0 |            0 |            0 |            0 |            0 |            0 |            0 |            0 |            0 |            0 |            0 |            0 |            0 |            0 |            0 |            0 |            0 |            0 |            0 |            0 |            0 |            0 |            0 |            0 |
itlb.writebacks                                  0 |            0 |            0 |            0 |            0 |            0 |            0 |            0 |            0 |            0 |            0 |            0 |            0 |            0 |            0 |            0 |            0 |            0 |            0 |            0 |            0 |            0 |            0 |            0 |            0 |            0 |            0 |            0 |            0 |            0 |            0 |            0 |            0 |            0 |            0 |            0 |            0 |            0 |            0 |            0 |            0 |            0 |            0 |            0 |
itlb.invalidations                               0 |            0 |            0 |            0 |            0 |            0 |            0 |            0 |            0 |            0 |            0 |            0 |            0 |            0 |            0 |            0 |            0 |            0 |            0 |            0 |            0 |            0 |            0 |            0 |            0 |            0 |            0 |            0 |            0 |            0 |            0 |            0 |            0 |            0 |            0 |            0 |            0 |            0 |            0 |            0 |            0 |            0 |            0 |            0 |
itlb.miss_rate                              0.0000 |       0.0000 |       0.0000 |       0.0000 |       0.0000 |       0.0000 |       0.0000 |       0.0000 |       0.0000 |       0.0000 |       0.0000 |       0.0000 |       0.0000 |       0.0000 |       0.0000 |       0.0000 |       0.0000 |       0.0000 |       0.0000 |       0.0000 |       0.0000 |       0.0000 |       0.0000 |       0.0000 |       0.0000 |       0.0000 |       0.0000 |       0.0000 |       0.0000 |       0.0000 |       0.0000 |       0.0000 |       0.0000 |       0.0000 |       0.0000 |       0.0000 |       0.0000 |       0.0000 |       0.0000 |       0.0000 |       0.0000 |       0.0000 |       0.0000 |       0.0000 |
itlb.repl_rate                              0.0000 |       0.0000 |       0.0000 |       0.0000 |       0.0000 |       0.0000 |       0.0000 |       0.0000 |       0.0000 |       0.0000 |       0.0000 |       0.0000 |       0.0000 |       0.0000 |       0.0000 |       0.0000 |       0.0000 |       0.0000 |       0.0000 |       0.0000 |       0.0000 |       0.0000 |       0.0000 |       0.0000 |       0.0000 |       0.0000 |       0.0000 |       0.0000 |       0.0000 |       0.0000 |       0.0000 |       0.0000 |       0.0000 |       0.0000 |       0.0000 |       0.0000 |       0.0000 |       0.0000 |       0.0000 |       0.0000 |       0.0000 |       0.0000 |       0.0000 |       0.0000 |
itlb.wb_rate                                0.0000 |       0.0000 |       0.0000 |       0.0000 |       0.0000 |       0.0000 |       0.0000 |       0.0000 |       0.0000 |       0.0000 |       0.0000 |       0.0000 |       0.0000 |       0.0000 |       0.0000 |       0.0000 |       0.0000 |       0.0000 |       0.0000 |       0.0000 |       0.0000 |       0.0000 |       0.0000 |       0.0000 |       0.0000 |       0.0000 |       0.0000 |       0.0000 |       0.0000 |       0.0000 |       0.0000 |       0.0000 |       0.0000 |       0.0000 |       0.0000 |       0.0000 |       0.0000 |       0.0000 |       0.0000 |       0.0000 |       0.0000 |       0.0000 |       0.0000 |       0.0000 |
itlb.inv_rate                               0.0000 |       0.0000 |       0.0000 |       0.0000 |       0.0000 |       0.0000 |       0.0000 |       0.0000 |       0.0000 |       0.0000 |       0.0000 |       0.0000 |       0.0000 |       0.0000 |       0.0000 |       0.0000 |       0.0000 |       0.0000 |       0.0000 |       0.0000 |       0.0000 |       0.0000 |       0.0000 |       0.0000 |       0.0000 |       0.0000 |       0.0000 |       0.0000 |       0.0000 |       0.0000 |       0.0000 |       0.0000 |       0.0000 |       0.0000 |       0.0000 |       0.0000 |       0.0000 |       0.0000 |       0.0000 |       0.0000 |       0.0000 |       0.0000 |       0.0000 |       0.0000 |
dtlb.accesses                               155430 |       155430 |       155430 |       155430 |       302886 |       302886 |       302886 |       302886 |       597798 |       597798 |       597798 |       597798 |      1187622 |      1187622 |      1187622 |      1187622 |      2367270 |      2367270 |      2367270 |      2367270 |      4726566 |      4726566 |      4726566 |      4726566 |      9445158 |      9445158 |      9445158 |      9445158 |     18891604 |     18891604 |     18891604 |     18891604 |     37765972 |     37765972 |     37765972 |     37765972 |     75520852 |     75520852 |     75520852 |     75520852 |    151030612 |    151030612 |    151030612 |    151030612 |
dtlb.hits                                   155414 |       155414 |       155414 |       155414 |       302862 |       302862 |       302862 |       302862 |       597758 |       597758 |       597758 |       597758 |      1187550 |      1187550 |      1187550 |      1187550 |      2367109 |      2367109 |      2367109 |      2367109 |      4716211 |      4716211 |      4716211 |      4716211 |      8918717 |      8918717 |      8918717 |      8918717 |     17532729 |     17532729 |     17532729 |     17532729 |     34507284 |     34507284 |     34507284 |     34507284 |     68233467 |     68233467 |     68233467 |     68233467 |    135783078 |    135783078 |    135783078 |    135783078 |
dtlb.misses                                     16 |           16 |           16 |           16 |           24 |           24 |           24 |           24 |           40 |           40 |           40 |           40 |           72 |           72 |           72 |           72 |          161 |          161 |          161 |          161 |        10355 |        10355 |        10355 |        10355 |       526441 |       526441 |       526441 |       526441 |      1358875 |      1358875 |      1358875 |      1358875 |      3258688 |      3258688 |      3258688 |      3258688 |      7287385 |      7287385 |      7287385 |      7287385 |     15247534 |     15247534 |     15247534 |     15247534 |
dtlb.replacements                                0 |            0 |            0 |            0 |            0 |            0 |            0 |            0 |            0 |            0 |            0 |            0 |            0 |            0 |            0 |            0 |           33 |           33 |           33 |           33 |        10227 |        10227 |        10227 |        10227 |       526313 |       526313 |       526313 |       526313 |      1358747 |      1358747 |      1358747 |      1358747 |      3258560 |      3258560 |      3258560 |      3258560 |      7287257 |      7287257 |      7287257 |      7287257 |     15247406 |     15247406 |     15247406 |     15247406 |
dtlb.writebacks                                  0 |            0 |            0 |            0 |            0 |            0 |            0 |            0 |            0 |            0 |            0 |            0 |            0 |            0 |            0 |            0 |           24 |           24 |           24 |           24 |         9697 |         9697 |         9697 |         9697 |       525031 |       525031 |       525031 |       525031 |      1356201 |      1356201 |      1356201 |      1356201 |      3253533 |      3253533 |      3253533 |      3253533 |      7277110 |      7277110 |      7277110 |      7277110 |     15227024 |     15227024 |     15227024 |     15227024 |
dtlb.invalidations                               0 |            0 |            0 |            0 |            0 |            0 |            0 |            0 |            0 |            0 |            0 |            0 |            0 |            0 |            0 |            0 |            0 |            0 |            0 |            0 |            0 |            0 |            0 |            0 |            0 |            0 |            0 |            0 |            0 |            0 |            0 |            0 |            0 |            0 |            0 |            0 |            0 |            0 |            0 |            0 |            0 |            0 |            0 |            0 |
dtlb.miss_rate                              0.0001 |       0.0001 |       0.0001 |       0.0001 |       0.0001 |       0.0001 |       0.0001 |       0.0001 |       0.0001 |       0.0001 |       0.0001 |       0.0001 |       0.0001 |       0.0001 |       0.0001 |       0.0001 |       0.0001 |       0.0001 |       0.0001 |       0.0001 |       0.0022 |       0.0022 |       0.0022 |       0.0022 |       0.0557 |       0.0557 |       0.0557 |       0.0557 |       0.0719 |       0.0719 |       0.0719 |       0.0719 |       0.0863 |       0.0863 |       0.0863 |       0.0863 |       0.0965 |       0.0965 |       0.0965 |       0.0965 |       0.1010 |       0.1010 |       0.1010 |       0.1010 |
dtlb.repl_rate                              0.0000 |       0.0000 |       0.0000 |       0.0000 |       0.0000 |       0.0000 |       0.0000 |       0.0000 |       0.0000 |       0.0000 |       0.0000 |       0.0000 |       0.0000 |       0.0000 |       0.0000 |       0.0000 |       0.0000 |       0.0000 |       0.0000 |       0.0000 |       0.0022 |       0.0022 |       0.0022 |       0.0022 |       0.0557 |       0.0557 |       0.0557 |       0.0557 |       0.0719 |       0.0719 |       0.0719 |       0.0719 |       0.0863 |       0.0863 |       0.0863 |       0.0863 |       0.0965 |       0.0965 |       0.0965 |       0.0965 |       0.1010 |       0.1010 |       0.1010 |       0.1010 |
dtlb.wb_rate                                0.0000 |       0.0000 |       0.0000 |       0.0000 |       0.0000 |       0.0000 |       0.0000 |       0.0000 |       0.0000 |       0.0000 |       0.0000 |       0.0000 |       0.0000 |       0.0000 |       0.0000 |       0.0000 |       0.0000 |       0.0000 |       0.0000 |       0.0000 |       0.0021 |       0.0021 |       0.0021 |       0.0021 |       0.0556 |       0.0556 |       0.0556 |       0.0556 |       0.0718 |       0.0718 |       0.0718 |       0.0718 |       0.0861 |       0.0861 |       0.0861 |       0.0861 |       0.0964 |       0.0964 |       0.0964 |       0.0964 |       0.1008 |       0.1008 |       0.1008 |       0.1008 |
dtlb.inv_rate                               0.0000 |       0.0000 |       0.0000 |       0.0000 |       0.0000 |       0.0000 |       0.0000 |       0.0000 |       0.0000 |       0.0000 |       0.0000 |       0.0000 |       0.0000 |       0.0000 |       0.0000 |       0.0000 |       0.0000 |       0.0000 |       0.0000 |       0.0000 |       0.0000 |       0.0000 |       0.0000 |       0.0000 |       0.0000 |       0.0000 |       0.0000 |       0.0000 |       0.0000 |       0.0000 |       0.0000 |       0.0000 |       0.0000 |       0.0000 |       0.0000 |       0.0000 |       0.0000 |       0.0000 |       0.0000 |       0.0000 |       0.0000 |       0.0000 |       0.0000 |       0.0000 |
ld_text_base                            0x00400000 |   0x00400000 |   0x00400000 |   0x00400000 |   0x00400000 |   0x00400000 |   0x00400000 |   0x00400000 |   0x00400000 |   0x00400000 |   0x00400000 |   0x00400000 |   0x00400000 |   0x00400000 |   0x00400000 |   0x00400000 |   0x00400000 |   0x00400000 |   0x00400000 |   0x00400000 |   0x00400000 |   0x00400000 |   0x00400000 |   0x00400000 |   0x00400000 |   0x00400000 |   0x00400000 |   0x00400000 |   0x00400000 |   0x00400000 |   0x00400000 |   0x00400000 |   0x00400000 |   0x00400000 |   0x00400000 |   0x00400000 |   0x00400000 |   0x00400000 |   0x00400000 |   0x00400000 |   0x00400000 |   0x00400000 |   0x00400000 |   0x00400000 |
ld_text_size                                 74416 |        74416 |        74416 |        74416 |        74448 |        74448 |        74448 |        74448 |        74464 |        74464 |        74464 |        74464 |        74480 |        74480 |        74480 |        74480 |        74480 |        74480 |        74480 |        74480 |        74480 |        74480 |        74480 |        74480 |        74480 |        74480 |        74480 |        74480 |        74480 |        74480 |        74480 |        74480 |        74480 |        74480 |        74480 |        74480 |        74480 |        74480 |        74480 |        74480 |        74480 |        74480 |        74480 |        74480 |
ld_data_base                            0x10000000 |   0x10000000 |   0x10000000 |   0x10000000 |   0x10000000 |   0x10000000 |   0x10000000 |   0x10000000 |   0x10000000 |   0x10000000 |   0x10000000 |   0x10000000 |   0x10000000 |   0x10000000 |   0x10000000 |   0x10000000 |   0x10000000 |   0x10000000 |   0x10000000 |   0x10000000 |   0x10000000 |   0x10000000 |   0x10000000 |   0x10000000 |   0x10000000 |   0x10000000 |   0x10000000 |   0x10000000 |   0x10000000 |   0x10000000 |   0x10000000 |   0x10000000 |   0x10000000 |   0x10000000 |   0x10000000 |   0x10000000 |   0x10000000 |   0x10000000 |   0x10000000 |   0x10000000 |   0x10000000 |   0x10000000 |   0x10000000 |   0x10000000 |
ld_data_size                                  8192 |         8192 |         8192 |         8192 |         8192 |         8192 |         8192 |         8192 |         8192 |         8192 |         8192 |         8192 |         8192 |         8192 |         8192 |         8192 |         8192 |         8192 |         8192 |         8192 |         8192 |         8192 |         8192 |         8192 |         8192 |         8192 |         8192 |         8192 |         8192 |         8192 |         8192 |         8192 |         8192 |         8192 |         8192 |         8192 |         8192 |         8192 |         8192 |         8192 |         8192 |         8192 |         8192 |         8192 |
ld_stack_base                           0x7fffc000 |   0x7fffc000 |   0x7fffc000 |   0x7fffc000 |   0x7fffc000 |   0x7fffc000 |   0x7fffc000 |   0x7fffc000 |   0x7fffc000 |   0x7fffc000 |   0x7fffc000 |   0x7fffc000 |   0x7fffc000 |   0x7fffc000 |   0x7fffc000 |   0x7fffc000 |   0x7fffc000 |   0x7fffc000 |   0x7fffc000 |   0x7fffc000 |   0x7fffc000 |   0x7fffc000 |   0x7fffc000 |   0x7fffc000 |   0x7fffc000 |   0x7fffc000 |   0x7fffc000 |   0x7fffc000 |   0x7fffc000 |   0x7fffc000 |   0x7fffc000 |   0x7fffc000 |   0x7fffc000 |   0x7fffc000 |   0x7fffc000 |   0x7fffc000 |   0x7fffc000 |   0x7fffc000 |   0x7fffc000 |   0x7fffc000 |   0x7fffc000 |   0x7fffc000 |   0x7fffc000 |   0x7fffc000 |
ld_stack_size                                16384 |        16384 |        16384 |        16384 |        16384 |        16384 |        16384 |        16384 |        16384 |        16384 |        16384 |        16384 |        16384 |        16384 |        16384 |        16384 |        16384 |        16384 |        16384 |        16384 |        16384 |        16384 |        16384 |        16384 |        16384 |        16384 |        16384 |        16384 |        16384 |        16384 |        16384 |        16384 |        16384 |        16384 |        16384 |        16384 |        16384 |        16384 |        16384 |        16384 |        16384 |        16384 |        16384 |        16384 |
ld_prog_entry                           0x00400140 |   0x00400140 |   0x00400140 |   0x00400140 |   0x00400140 |   0x00400140 |   0x00400140 |   0x00400140 |   0x00400140 |   0x00400140 |   0x00400140 |   0x00400140 |   0x00400140 |   0x00400140 |   0x00400140 |   0x00400140 |   0x00400140 |   0x00400140 |   0x00400140 |   0x00400140 |   0x00400140 |   0x00400140 |   0x00400140 |   0x00400140 |   0x00400140 |   0x00400140 |   0x00400140 |   0x00400140 |   0x00400140 |   0x00400140 |   0x00400140 |   0x00400140 |   0x00400140 |   0x00400140 |   0x00400140 |   0x00400140 |   0x00400140 |   0x00400140 |   0x00400140 |   0x00400140 |   0x00400140 |   0x00400140 |   0x00400140 |   0x00400140 |
ld_environ_base                         0x7fff8000 |   0x7fff8000 |   0x7fff8000 |   0x7fff8000 |   0x7fff8000 |   0x7fff8000 |   0x7fff8000 |   0x7fff8000 |   0x7fff8000 |   0x7fff8000 |   0x7fff8000 |   0x7fff8000 |   0x7fff8000 |   0x7fff8000 |   0x7fff8000 |   0x7fff8000 |   0x7fff8000 |   0x7fff8000 |   0x7fff8000 |   0x7fff8000 |   0x7fff8000 |   0x7fff8000 |   0x7fff8000 |   0x7fff8000 |   0x7fff8000 |   0x7fff8000 |   0x7fff8000 |   0x7fff8000 |   0x7fff8000 |   0x7fff8000 |   0x7fff8000 |   0x7fff8000 |   0x7fff8000 |   0x7fff8000 |   0x7fff8000 |   0x7fff8000 |   0x7fff8000 |   0x7fff8000 |   0x7fff8000 |   0x7fff8000 |   0x7fff8000 |   0x7fff8000 |   0x7fff8000 |   0x7fff8000 |
ld_target_big_endian                             0 |            0 |            0 |            0 |            0 |            0 |            0 |            0 |            0 |            0 |            0 |            0 |            0 |            0 |            0 |            0 |            0 |            0 |            0 |            0 |            0 |            0 |            0 |            0 |            0 |            0 |            0 |            0 |            0 |            0 |            0 |            0 |            0 |            0 |            0 |            0 |            0 |            0 |            0 |            0 |            0 |            0 |            0 |            0 |
mem.page_count                                  35 |           35 |           35 |           35 |           43 |           43 |           43 |           43 |           59 |           59 |           59 |           59 |           91 |           91 |           91 |           91 |          155 |          155 |          155 |          155 |          283 |          283 |          283 |          283 |          539 |          539 |          539 |          539 |         1057 |         1057 |         1057 |         1057 |         2081 |         2081 |         2081 |         2081 |         4135 |         4135 |         4135 |         4135 |         8243 |         8243 |         8243 |         8243 |
mem.page_mem                                  140k |         140k |         140k |         140k |         172k |         172k |         172k |         172k |         236k |         236k |         236k |         236k |         364k |         364k |         364k |         364k |         620k |         620k |         620k |         620k |        1132k |        1132k |        1132k |        1132k |        2156k |        2156k |        2156k |        2156k |        4228k |        4228k |        4228k |        4228k |        8324k |        8324k |        8324k |        8324k |       16540k |       16540k |       16540k |       16540k |       32972k |       32972k |       32972k |       32972k |
mem.ptab_misses                                 35 |           35 |           35 |           35 |           43 |           43 |           43 |           43 |           59 |           59 |           59 |           59 |           91 |           91 |           91 |           91 |          155 |          155 |          155 |          155 |          283 |          283 |          283 |          283 |          539 |          539 |          539 |          539 |         1060 |         1060 |         1060 |         1060 |        16424 |        16424 |        16424 |        16424 |        18478 |        18478 |        18478 |        18478 |        22586 |        22586 |        22586 |        22586 |
mem.ptab_accesses                          2287356 |      2287356 |      2287356 |      2287356 |      4044748 |      4044748 |      4044748 |      4044748 |      7559220 |      7559220 |      7559220 |      7559220 |     14588056 |     14588056 |     14588056 |     14588056 |     28645528 |     28645528 |     28645528 |     28645528 |     56760476 |     56760476 |     56760476 |     56760476 |    112990364 |    112990364 |    112990364 |    112990364 |    225518568 |    225518568 |    225518568 |    225518568 |    450438120 |    450438120 |    450438120 |    450438120 |    900326408 |    900326408 |    900326408 |    900326408 |   1800102952 |   1800102952 |   1800102952 |   1800102952 |
mem.ptab_miss_rate                          0.0000 |       0.0000 |       0.0000 |       0.0000 |       0.0000 |       0.0000 |       0.0000 |       0.0000 |       0.0000 |       0.0000 |       0.0000 |       0.0000 |       0.0000 |       0.0000 |       0.0000 |       0.0000 |       0.0000 |       0.0000 |       0.0000 |       0.0000 |       0.0000 |       0.0000 |       0.0000 |       0.0000 |       0.0000 |       0.0000 |       0.0000 |       0.0000 |       0.0000 |       0.0000 |       0.0000 |       0.0000 |       0.0000 |       0.0000 |       0.0000 |       0.0000 |       0.0000 |       0.0000 |       0.0000 |       0.0000 |       0.0000 |       0.0000 |       0.0000 |       0.0000 |
-------------------------------------------------------------------------------------------------
sim-bpred                                     4096 |         4096 |         4096 |         4096 |         4096 |         4096 |         4096 |         8192 |         8192 |         8192 |         8192 |         8192 |         8192 |         8192 |        16384 |        16384 |        16384 |        16384 |        16384 |        16384 |        16384 |        32768 |        32768 |        32768 |        32768 |        32768 |        32768 |        32768 |        65536 |        65536 |        65536 |        65536 |        65536 |        65536 |        65536 |       131072 |       131072 |       131072 |       131072 |       131072 |       131072 |       131072 |       262144 |       262144 |       262144 |       262144 |       262144 |       262144 |       262144 |       524288 |       524288 |       524288 |       524288 |       524288 |       524288 |       524288 |      1048576 |      1048576 |      1048576 |      1048576 |      1048576 |      1048576 |      1048576 |      2097152 |      2097152 |      2097152 |      2097152 |      2097152 |      2097152 |      2097152 |      4194304 |      4194304 |      4194304 |      4194304 |      4194304 |      4194304 |      4194304 |
-bpred bimod -bpred:bimod 512
-bpred bimod -bpred:bimod 1024
-bpred bimod -bpred:bimod 2048
-bpred 2lev -bpred:2lev 1 512 10 1
-bpred 2lev -bpred:2lev 1 1024 10 1
-bpred 2lev -bpred:2lev 1 2048 10 1
-bpred 2lev -bpred:2lev 1 4096 10 1
-------------------------------------------------------------------------------------------------
sim_num_insn                                378851 |       378851 |       378851 |       378851 |       378851 |       378851 |       378851 |       744423 |       744423 |       744423 |       744423 |       744423 |       744423 |       744423 |      1475561 |      1475561 |      1475561 |      1475561 |      1475561 |      1475561 |      1475561 |      2937834 |      2937834 |      2937834 |      2937834 |      2937834 |      2937834 |      2937834 |      5862378 |      5862378 |      5862378 |      5862378 |      5862378 |      5862378 |      5862378 |     11711467 |     11711467 |     11711467 |     11711467 |     11711467 |     11711467 |     11711467 |     23409643 |     23409643 |     23409643 |     23409643 |     23409643 |     23409643 |     23409643 |     46818471 |     46818471 |     46818471 |     46818471 |     46818471 |     46818471 |     46818471 |     93611175 |     93611175 |     93611175 |     93611175 |     93611175 |     93611175 |     93611175 |    187205807 |    187205807 |    187205807 |    187205807 |    187205807 |    187205807 |    187205807 |    374395063 |    374395063 |    374395063 |    374395063 |    374395063 |    374395063 |    374395063 |
sim_num_refs                                138964 |       138964 |       138964 |       138964 |       138964 |       138964 |       138964 |       270036 |       270036 |       270036 |       270036 |       270036 |       270036 |       270036 |       532180 |       532180 |       532180 |       532180 |       532180 |       532180 |       532180 |      1056468 |      1056468 |      1056468 |      1056468 |      1056468 |      1056468 |      1056468 |      2105044 |      2105044 |      2105044 |      2105044 |      2105044 |      2105044 |      2105044 |      4202196 |      4202196 |      4202196 |      4202196 |      4202196 |      4202196 |      4202196 |      8396500 |      8396500 |      8396500 |      8396500 |      8396500 |      8396500 |      8396500 |     16794370 |     16794370 |     16794370 |     16794370 |     16794370 |     16794370 |     16794370 |     33571586 |     33571586 |     33571586 |     33571586 |     33571586 |     33571586 |     33571586 |     67132162 |     67132162 |     67132162 |     67132162 |     67132162 |     67132162 |     67132162 |    134253314 |    134253314 |    134253314 |    134253314 |    134253314 |    134253314 |    134253314 |
sim_elapsed_time                                 1 |            1 |            1 |            1 |            1 |            1 |            1 |            1 |            1 |            1 |            1 |            1 |            1 |            1 |            1 |            1 |            1 |            1 |            1 |            1 |            1 |            1 |            1 |            1 |            1 |            1 |            1 |            1 |            1 |            1 |            1 |            1 |            1 |            1 |            1 |            1 |            1 |            1 |            1 |            1 |            1 |            2 |            2 |            2 |            2 |            3 |            2 |            2 |            3 |            5 |            5 |            4 |            5 |            4 |            5 |            4 |            9 |            9 |            9 |            9 |            9 |            9 |            9 |           18 |           18 |           18 |           18 |           18 |           18 |           19 |           36 |           36 |           36 |           36 |           37 |           36 |           37 |
sim_inst_rate                          378851.0000 |  378851.0000 |  378851.0000 |  378851.0000 |  378851.0000 |  378851.0000 |  378851.0000 |  744423.0000 |  744423.0000 |  744423.0000 |  744423.0000 |  744423.0000 |  744423.0000 |  744423.0000 | 1475561.0000 | 1475561.0000 | 1475561.0000 | 1475561.0000 | 1475561.0000 | 1475561.0000 | 1475561.0000 | 2937834.0000 | 2937834.0000 | 2937834.0000 | 2937834.0000 | 2937834.0000 | 2937834.0000 | 2937834.0000 | 5862378.0000 | 5862378.0000 | 5862378.0000 | 5862378.0000 | 5862378.0000 | 5862378.0000 | 5862378.0000 |11711467.0000 |11711467.0000 |11711467.0000 |11711467.0000 |11711467.0000 |11711467.0000 | 5855733.5000 |11704821.5000 |11704821.5000 |11704821.5000 | 7803214.3333 |11704821.5000 |11704821.5000 | 7803214.3333 | 9363694.2000 | 9363694.2000 |11704617.7500 | 9363694.2000 |11704617.7500 | 9363694.2000 |11704617.7500 |10401241.6667 |10401241.6667 |10401241.6667 |10401241.6667 |10401241.6667 |10401241.6667 |10401241.6667 |10400322.6111 |10400322.6111 |10400322.6111 |10400322.6111 |10400322.6111 |10400322.6111 | 9852937.2105 |10399862.8611 |10399862.8611 |10399862.8611 |10399862.8611 |10118785.4865 |10399862.8611 |10118785.4865 |
sim_num_branches                              9292 |         9292 |         9292 |         9292 |         9292 |         9292 |         9292 |        17484 |        17484 |        17484 |        17484 |        17484 |        17484 |        17484 |        33868 |        33868 |        33868 |        33868 |        33868 |        33868 |        33868 |        66636 |        66636 |        66636 |        66636 |        66636 |        66636 |        66636 |       132172 |       132172 |       132172 |       132172 |       132172 |       132172 |       132172 |       263244 |       263244 |       263244 |       263244 |       263244 |       263244 |       263244 |       525388 |       525388 |       525388 |       525388 |       525388 |       525388 |       525388 |      1050469 |      1050469 |      1050469 |      1050469 |      1050469 |      1050469 |      1050469 |      2099045 |      2099045 |      2099045 |      2099045 |      2099045 |      2099045 |      2099045 |      4196968 |      4196968 |      4196968 |      4196968 |      4196968 |      4196968 |      4196968 |      8392811 |      8392811 |      8392811 |      8392811 |      8392811 |      8392811 |      8392811 |
sim_IPB                                    40.7717 |      40.7717 |      40.7717 |      40.7717 |      40.7717 |      40.7717 |      40.7717 |      42.5774 |      42.5774 |      42.5774 |      42.5774 |      42.5774 |      42.5774 |      42.5774 |      43.5680 |      43.5680 |      43.5680 |      43.5680 |      43.5680 |      43.5680 |      43.5680 |      44.0878 |      44.0878 |      44.0878 |      44.0878 |      44.0878 |      44.0878 |      44.0878 |      44.3542 |      44.3542 |      44.3542 |      44.3542 |      44.3542 |      44.3542 |      44.3542 |      44.4890 |      44.4890 |      44.4890 |      44.4890 |      44.4890 |      44.4890 |      44.4890 |      44.5569 |      44.5569 |      44.5569 |      44.5569 |      44.5569 |      44.5569 |      44.5569 |      44.5691 |      44.5691 |      44.5691 |      44.5691 |      44.5691 |      44.5691 |      44.5691 |      44.5970 |      44.5970 |      44.5970 |      44.5970 |      44.5970 |      44.5970 |      44.5970 |      44.6050 |      44.6050 |      44.6050 |      44.6050 |      44.6050 |      44.6050 |      44.6050 |      44.6090 |      44.6090 |      44.6090 |      44.6090 |      44.6090 |      44.6090 |      44.6090 |
bpred_bimod.lookups                           9292 |         9292 |         9292 |xxxxxxxxxxxxx |xxxxxxxxxxxxx |xxxxxxxxxxxxx |xxxxxxxxxxxxx |        17484 |        17484 |        17484 |xxxxxxxxxxxxx |xxxxxxxxxxxxx |xxxxxxxxxxxxx |xxxxxxxxxxxxx |        33868 |        33868 |        33868 |xxxxxxxxxxxxx |xxxxxxxxxxxxx |xxxxxxxxxxxxx |xxxxxxxxxxxxx |        66636 |        66636 |        66636 |xxxxxxxxxxxxx |xxxxxxxxxxxxx |xxxxxxxxxxxxx |xxxxxxxxxxxxx |       132172 |       132172 |       132172 |xxxxxxxxxxxxx |xxxxxxxxxxxxx |xxxxxxxxxxxxx |xxxxxxxxxxxxx |       263244 |       263244 |       263244 |xxxxxxxxxxxxx |xxxxxxxxxxxxx |xxxxxxxxxxxxx |xxxxxxxxxxxxx |       525388 |       525388 |       525388 |xxxxxxxxxxxxx |xxxxxxxxxxxxx |xxxxxxxxxxxxx |xxxxxxxxxxxxx |      1050469 |      1050469 |      1050469 |xxxxxxxxxxxxx |xxxxxxxxxxxxx |xxxxxxxxxxxxx |xxxxxxxxxxxxx |      2099045 |      2099045 |      2099045 |xxxxxxxxxxxxx |xxxxxxxxxxxxx |xxxxxxxxxxxxx |xxxxxxxxxxxxx |      4196968 |      4196968 |      4196968 |xxxxxxxxxxxxx |xxxxxxxxxxxxx |xxxxxxxxxxxxx |xxxxxxxxxxxxx |      8392811 |      8392811 |      8392811 |
bpred_bimod.updates                           9292 |         9292 |         9292 |xxxxxxxxxxxxx |xxxxxxxxxxxxx |xxxxxxxxxxxxx |xxxxxxxxxxxxx |        17484 |        17484 |        17484 |xxxxxxxxxxxxx |xxxxxxxxxxxxx |xxxxxxxxxxxxx |xxxxxxxxxxxxx |        33868 |        33868 |        33868 |xxxxxxxxxxxxx |xxxxxxxxxxxxx |xxxxxxxxxxxxx |xxxxxxxxxxxxx |        66636 |        66636 |        66636 |xxxxxxxxxxxxx |xxxxxxxxxxxxx |xxxxxxxxxxxxx |xxxxxxxxxxxxx |       132172 |       132172 |       132172 |xxxxxxxxxxxxx |xxxxxxxxxxxxx |xxxxxxxxxxxxx |xxxxxxxxxxxxx |       263244 |       263244 |       263244 |xxxxxxxxxxxxx |xxxxxxxxxxxxx |xxxxxxxxxxxxx |xxxxxxxxxxxxx |       525388 |       525388 |       525388 |xxxxxxxxxxxxx |xxxxxxxxxxxxx |xxxxxxxxxxxxx |xxxxxxxxxxxxx |      1050469 |      1050469 |      1050469 |xxxxxxxxxxxxx |xxxxxxxxxxxxx |xxxxxxxxxxxxx |xxxxxxxxxxxxx |      2099045 |      2099045 |      2099045 |xxxxxxxxxxxxx |xxxxxxxxxxxxx |xxxxxxxxxxxxx |xxxxxxxxxxxxx |      4196968 |      4196968 |      4196968 |xxxxxxxxxxxxx |xxxxxxxxxxxxx |xxxxxxxxxxxxx |xxxxxxxxxxxxx |      8392811 |      8392811 |      8392811 |
bpred_bimod.addr_hits                         9076 |         9079 |         9080 |xxxxxxxxxxxxx |xxxxxxxxxxxxx |xxxxxxxxxxxxx |xxxxxxxxxxxxx |        17267 |        17271 |        17272 |xxxxxxxxxxxxx |xxxxxxxxxxxxx |xxxxxxxxxxxxx |xxxxxxxxxxxxx |        33654 |        33656 |        33657 |xxxxxxxxxxxxx |xxxxxxxxxxxxx |xxxxxxxxxxxxx |xxxxxxxxxxxxx |        66421 |        66424 |        66425 |xxxxxxxxxxxxx |xxxxxxxxxxxxx |xxxxxxxxxxxxx |xxxxxxxxxxxxx |       131957 |       131960 |       131961 |xxxxxxxxxxxxx |xxxxxxxxxxxxx |xxxxxxxxxxxxx |xxxxxxxxxxxxx |       263029 |       263032 |       263033 |xxxxxxxxxxxxx |xxxxxxxxxxxxx |xxxxxxxxxxxxx |xxxxxxxxxxxxx |       525173 |       525176 |       525177 |xxxxxxxxxxxxx |xxxxxxxxxxxxx |xxxxxxxxxxxxx |xxxxxxxxxxxxx |      1050228 |      1050231 |      1050231 |xxxxxxxxxxxxx |xxxxxxxxxxxxx |xxxxxxxxxxxxx |xxxxxxxxxxxxx |      2098804 |      2098807 |      2098807 |xxxxxxxxxxxxx |xxxxxxxxxxxxx |xxxxxxxxxxxxx |xxxxxxxxxxxxx |      4196727 |      4196730 |      4196730 |xxxxxxxxxxxxx |xxxxxxxxxxxxx |xxxxxxxxxxxxx |xxxxxxxxxxxxx |      8392570 |      8392573 |      8392573 |
bpred_bimod.dir_hits                          9186 |         9185 |         9185 |xxxxxxxxxxxxx |xxxxxxxxxxxxx |xxxxxxxxxxxxx |xxxxxxxxxxxxx |        17372 |        17377 |        17377 |xxxxxxxxxxxxx |xxxxxxxxxxxxx |xxxxxxxxxxxxx |xxxxxxxxxxxxx |        33761 |        33761 |        33762 |xxxxxxxxxxxxx |xxxxxxxxxxxxx |xxxxxxxxxxxxx |xxxxxxxxxxxxx |        66526 |        66527 |        66529 |xxxxxxxxxxxxx |xxxxxxxxxxxxx |xxxxxxxxxxxxx |xxxxxxxxxxxxx |       132062 |       132063 |       132065 |xxxxxxxxxxxxx |xxxxxxxxxxxxx |xxxxxxxxxxxxx |xxxxxxxxxxxxx |       263135 |       263136 |       263138 |xxxxxxxxxxxxx |xxxxxxxxxxxxx |xxxxxxxxxxxxx |xxxxxxxxxxxxx |       525279 |       525280 |       525282 |xxxxxxxxxxxxx |xxxxxxxxxxxxx |xxxxxxxxxxxxx |xxxxxxxxxxxxx |      1050345 |      1050346 |      1050347 |xxxxxxxxxxxxx |xxxxxxxxxxxxx |xxxxxxxxxxxxx |xxxxxxxxxxxxx |      2098921 |      2098922 |      2098923 |xxxxxxxxxxxxx |xxxxxxxxxxxxx |xxxxxxxxxxxxx |xxxxxxxxxxxxx |      4196844 |      4196845 |      4196846 |xxxxxxxxxxxxx |xxxxxxxxxxxxx |xxxxxxxxxxxxx |xxxxxxxxxxxxx |      8392687 |      8392688 |      8392689 |
bpred_bimod.misses                             106 |          107 |          107 |xxxxxxxxxxxxx |xxxxxxxxxxxxx |xxxxxxxxxxxxx |xxxxxxxxxxxxx |          112 |          107 |          107 |xxxxxxxxxxxxx |xxxxxxxxxxxxx |xxxxxxxxxxxxx |xxxxxxxxxxxxx |          107 |          107 |          106 |xxxxxxxxxxxxx |xxxxxxxxxxxxx |xxxxxxxxxxxxx |xxxxxxxxxxxxx |          110 |          109 |          107 |xxxxxxxxxxxxx |xxxxxxxxxxxxx |xxxxxxxxxxxxx |xxxxxxxxxxxxx |          110 |          109 |          107 |xxxxxxxxxxxxx |xxxxxxxxxxxxx |xxxxxxxxxxxxx |xxxxxxxxxxxxx |          109 |          108 |          106 |xxxxxxxxxxxxx |xxxxxxxxxxxxx |xxxxxxxxxxxxx |xxxxxxxxxxxxx |          109 |          108 |          106 |xxxxxxxxxxxxx |xxxxxxxxxxxxx |xxxxxxxxxxxxx |xxxxxxxxxxxxx |          124 |          123 |          122 |xxxxxxxxxxxxx |xxxxxxxxxxxxx |xxxxxxxxxxxxx |xxxxxxxxxxxxx |          124 |          123 |          122 |xxxxxxxxxxxxx |xxxxxxxxxxxxx |xxxxxxxxxxxxx |xxxxxxxxxxxxx |          124 |          123 |          122 |xxxxxxxxxxxxx |xxxxxxxxxxxxx |xxxxxxxxxxxxx |xxxxxxxxxxxxx |          124 |          123 |          122 |
bpred_bimod.jr_hits                             70 |           70 |           70 |xxxxxxxxxxxxx |xxxxxxxxxxxxx |xxxxxxxxxxxxx |xxxxxxxxxxxxx |           70 |           70 |           70 |xxxxxxxxxxxxx |xxxxxxxxxxxxx |xxxxxxxxxxxxx |xxxxxxxxxxxxx |           70 |           70 |           70 |xxxxxxxxxxxxx |xxxxxxxxxxxxx |xxxxxxxxxxxxx |xxxxxxxxxxxxx |           70 |           70 |           70 |xxxxxxxxxxxxx |xxxxxxxxxxxxx |xxxxxxxxxxxxx |xxxxxxxxxxxxx |           70 |           70 |           70 |xxxxxxxxxxxxx |xxxxxxxxxxxxx |xxxxxxxxxxxxx |xxxxxxxxxxxxx |           70 |           70 |           70 |xxxxxxxxxxxxx |xxxxxxxxxxxxx |xxxxxxxxxxxxx |xxxxxxxxxxxxx |           70 |           70 |           70 |xxxxxxxxxxxxx |xxxxxxxxxxxxx |xxxxxxxxxxxxx |xxxxxxxxxxxxx |           73 |           73 |           73 |xxxxxxxxxxxxx |xxxxxxxxxxxxx |xxxxxxxxxxxxx |xxxxxxxxxxxxx |           73 |           73 |           73 |xxxxxxxxxxxxx |xxxxxxxxxxxxx |xxxxxxxxxxxxx |xxxxxxxxxxxxx |           73 |           73 |           73 |xxxxxxxxxxxxx |xxxxxxxxxxxxx |xxxxxxxxxxxxx |xxxxxxxxxxxxx |           73 |           73 |           73 |
bpred_bimod.jr_seen                             71 |           71 |           71 |xxxxxxxxxxxxx |xxxxxxxxxxxxx |xxxxxxxxxxxxx |xxxxxxxxxxxxx |           71 |           71 |           71 |xxxxxxxxxxxxx |xxxxxxxxxxxxx |xxxxxxxxxxxxx |xxxxxxxxxxxxx |           71 |           71 |           71 |xxxxxxxxxxxxx |xxxxxxxxxxxxx |xxxxxxxxxxxxx |xxxxxxxxxxxxx |           71 |           71 |           71 |xxxxxxxxxxxxx |xxxxxxxxxxxxx |xxxxxxxxxxxxx |xxxxxxxxxxxxx |           71 |           71 |           71 |xxxxxxxxxxxxx |xxxxxxxxxxxxx |xxxxxxxxxxxxx |xxxxxxxxxxxxx |           71 |           71 |           71 |xxxxxxxxxxxxx |xxxxxxxxxxxxx |xxxxxxxxxxxxx |xxxxxxxxxxxxx |           71 |           71 |           71 |xxxxxxxxxxxxx |xxxxxxxxxxxxx |xxxxxxxxxxxxx |xxxxxxxxxxxxx |           74 |           74 |           74 |xxxxxxxxxxxxx |xxxxxxxxxxxxx |xxxxxxxxxxxxx |xxxxxxxxxxxxx |           74 |           74 |           74 |xxxxxxxxxxxxx |xxxxxxxxxxxxx |xxxxxxxxxxxxx |xxxxxxxxxxxxx |           74 |           74 |           74 |xxxxxxxxxxxxx |xxxxxxxxxxxxx |xxxxxxxxxxxxx |xxxxxxxxxxxxx |           74 |           74 |           74 |
bpred_bimod.jr_non_ras_hits.PP                   0 |            0 |            0 |xxxxxxxxxxxxx |xxxxxxxxxxxxx |xxxxxxxxxxxxx |xxxxxxxxxxxxx |            0 |            0 |            0 |xxxxxxxxxxxxx |xxxxxxxxxxxxx |xxxxxxxxxxxxx |xxxxxxxxxxxxx |            0 |            0 |            0 |xxxxxxxxxxxxx |xxxxxxxxxxxxx |xxxxxxxxxxxxx |xxxxxxxxxxxxx |            0 |            0 |            0 |xxxxxxxxxxxxx |xxxxxxxxxxxxx |xxxxxxxxxxxxx |xxxxxxxxxxxxx |            0 |            0 |            0 |xxxxxxxxxxxxx |xxxxxxxxxxxxx |xxxxxxxxxxxxx |xxxxxxxxxxxxx |            0 |            0 |            0 |xxxxxxxxxxxxx |xxxxxxxxxxxxx |xxxxxxxxxxxxx |xxxxxxxxxxxxx |            0 |            0 |            0 |xxxxxxxxxxxxx |xxxxxxxxxxxxx |xxxxxxxxxxxxx |xxxxxxxxxxxxx |            0 |            0 |            0 |xxxxxxxxxxxxx |xxxxxxxxxxxxx |xxxxxxxxxxxxx |xxxxxxxxxxxxx |            0 |            0 |            0 |xxxxxxxxxxxxx |xxxxxxxxxxxxx |xxxxxxxxxxxxx |xxxxxxxxxxxxx |            0 |            0 |            0 |xxxxxxxxxxxxx |xxxxxxxxxxxxx |xxxxxxxxxxxxx |xxxxxxxxxxxxx |            0 |            0 |            0 |
bpred_bimod.jr_non_ras_seen.PP                   0 |            0 |            0 |xxxxxxxxxxxxx |xxxxxxxxxxxxx |xxxxxxxxxxxxx |xxxxxxxxxxxxx |            0 |            0 |            0 |xxxxxxxxxxxxx |xxxxxxxxxxxxx |xxxxxxxxxxxxx |xxxxxxxxxxxxx |            0 |            0 |            0 |xxxxxxxxxxxxx |xxxxxxxxxxxxx |xxxxxxxxxxxxx |xxxxxxxxxxxxx |            0 |            0 |            0 |xxxxxxxxxxxxx |xxxxxxxxxxxxx |xxxxxxxxxxxxx |xxxxxxxxxxxxx |            0 |            0 |            0 |xxxxxxxxxxxxx |xxxxxxxxxxxxx |xxxxxxxxxxxxx |xxxxxxxxxxxxx |            0 |            0 |            0 |xxxxxxxxxxxxx |xxxxxxxxxxxxx |xxxxxxxxxxxxx |xxxxxxxxxxxxx |            0 |            0 |            0 |xxxxxxxxxxxxx |xxxxxxxxxxxxx |xxxxxxxxxxxxx |xxxxxxxxxxxxx |            1 |            1 |            1 |xxxxxxxxxxxxx |xxxxxxxxxxxxx |xxxxxxxxxxxxx |xxxxxxxxxxxxx |            1 |            1 |            1 |xxxxxxxxxxxxx |xxxxxxxxxxxxx |xxxxxxxxxxxxx |xxxxxxxxxxxxx |            1 |            1 |            1 |xxxxxxxxxxxxx |xxxxxxxxxxxxx |xxxxxxxxxxxxx |xxxxxxxxxxxxx |            1 |            1 |            1 |
bpred_bimod.bpred_addr_rate                 0.9768 |       0.9771 |       0.9772 |xxxxxxxxxxxxx |xxxxxxxxxxxxx |xxxxxxxxxxxxx |xxxxxxxxxxxxx |       0.9876 |       0.9878 |       0.9879 |xxxxxxxxxxxxx |xxxxxxxxxxxxx |xxxxxxxxxxxxx |xxxxxxxxxxxxx |       0.9937 |       0.9937 |       0.9938 |xxxxxxxxxxxxx |xxxxxxxxxxxxx |xxxxxxxxxxxxx |xxxxxxxxxxxxx |       0.9968 |       0.9968 |       0.9968 |xxxxxxxxxxxxx |xxxxxxxxxxxxx |xxxxxxxxxxxxx |xxxxxxxxxxxxx |       0.9984 |       0.9984 |       0.9984 |xxxxxxxxxxxxx |xxxxxxxxxxxxx |xxxxxxxxxxxxx |xxxxxxxxxxxxx |       0.9992 |       0.9992 |       0.9992 |xxxxxxxxxxxxx |xxxxxxxxxxxxx |xxxxxxxxxxxxx |xxxxxxxxxxxxx |       0.9996 |       0.9996 |       0.9996 |xxxxxxxxxxxxx |xxxxxxxxxxxxx |xxxxxxxxxxxxx |xxxxxxxxxxxxx |       0.9998 |       0.9998 |       0.9998 |xxxxxxxxxxxxx |xxxxxxxxxxxxx |xxxxxxxxxxxxx |xxxxxxxxxxxxx |       0.9999 |       0.9999 |       0.9999 |xxxxxxxxxxxxx |xxxxxxxxxxxxx |xxxxxxxxxxxxx |xxxxxxxxxxxxx |       0.9999 |       0.9999 |       0.9999 |xxxxxxxxxxxxx |xxxxxxxxxxxxx |xxxxxxxxxxxxx |xxxxxxxxxxxxx |       1.0000 |       1.0000 |       1.0000 |
bpred_bimod.bpred_dir_rate                  0.9886 |       0.9885 |       0.9885 |xxxxxxxxxxxxx |xxxxxxxxxxxxx |xxxxxxxxxxxxx |xxxxxxxxxxxxx |       0.9936 |       0.9939 |       0.9939 |xxxxxxxxxxxxx |xxxxxxxxxxxxx |xxxxxxxxxxxxx |xxxxxxxxxxxxx |       0.9968 |       0.9968 |       0.9969 |xxxxxxxxxxxxx |xxxxxxxxxxxxx |xxxxxxxxxxxxx |xxxxxxxxxxxxx |       0.9983 |       0.9984 |       0.9984 |xxxxxxxxxxxxx |xxxxxxxxxxxxx |xxxxxxxxxxxxx |xxxxxxxxxxxxx |       0.9992 |       0.9992 |       0.9992 |xxxxxxxxxxxxx |xxxxxxxxxxxxx |xxxxxxxxxxxxx |xxxxxxxxxxxxx |       0.9996 |       0.9996 |       0.9996 |xxxxxxxxxxxxx |xxxxxxxxxxxxx |xxxxxxxxxxxxx |xxxxxxxxxxxxx |       0.9998 |       0.9998 |       0.9998 |xxxxxxxxxxxxx |xxxxxxxxxxxxx |xxxxxxxxxxxxx |xxxxxxxxxxxxx |       0.9999 |       0.9999 |       0.9999 |xxxxxxxxxxxxx |xxxxxxxxxxxxx |xxxxxxxxxxxxx |xxxxxxxxxxxxx |       0.9999 |       0.9999 |       0.9999 |xxxxxxxxxxxxx |xxxxxxxxxxxxx |xxxxxxxxxxxxx |xxxxxxxxxxxxx |       1.0000 |       1.0000 |       1.0000 |xxxxxxxxxxxxx |xxxxxxxxxxxxx |xxxxxxxxxxxxx |xxxxxxxxxxxxx |       1.0000 |       1.0000 |       1.0000 |
bpred_bimod.bpred_jr_rate                   0.9859 |       0.9859 |       0.9859 |xxxxxxxxxxxxx |xxxxxxxxxxxxx |xxxxxxxxxxxxx |xxxxxxxxxxxxx |       0.9859 |       0.9859 |       0.9859 |xxxxxxxxxxxxx |xxxxxxxxxxxxx |xxxxxxxxxxxxx |xxxxxxxxxxxxx |       0.9859 |       0.9859 |       0.9859 |xxxxxxxxxxxxx |xxxxxxxxxxxxx |xxxxxxxxxxxxx |xxxxxxxxxxxxx |       0.9859 |       0.9859 |       0.9859 |xxxxxxxxxxxxx |xxxxxxxxxxxxx |xxxxxxxxxxxxx |xxxxxxxxxxxxx |       0.9859 |       0.9859 |       0.9859 |xxxxxxxxxxxxx |xxxxxxxxxxxxx |xxxxxxxxxxxxx |xxxxxxxxxxxxx |       0.9859 |       0.9859 |       0.9859 |xxxxxxxxxxxxx |xxxxxxxxxxxxx |xxxxxxxxxxxxx |xxxxxxxxxxxxx |       0.9859 |       0.9859 |       0.9859 |xxxxxxxxxxxxx |xxxxxxxxxxxxx |xxxxxxxxxxxxx |xxxxxxxxxxxxx |       0.9865 |       0.9865 |       0.9865 |xxxxxxxxxxxxx |xxxxxxxxxxxxx |xxxxxxxxxxxxx |xxxxxxxxxxxxx |       0.9865 |       0.9865 |       0.9865 |xxxxxxxxxxxxx |xxxxxxxxxxxxx |xxxxxxxxxxxxx |xxxxxxxxxxxxx |       0.9865 |       0.9865 |       0.9865 |xxxxxxxxxxxxx |xxxxxxxxxxxxx |xxxxxxxxxxxxx |xxxxxxxxxxxxx |       0.9865 |       0.9865 |       0.9865 |
bpred_bimod.bpred_jr_non_ras_rate.PP       <error: |      <error: |      <error: |xxxxxxxxxxxxx |xxxxxxxxxxxxx |xxxxxxxxxxxxx |xxxxxxxxxxxxx |      <error: |      <error: |      <error: |xxxxxxxxxxxxx |xxxxxxxxxxxxx |xxxxxxxxxxxxx |xxxxxxxxxxxxx |      <error: |      <error: |      <error: |xxxxxxxxxxxxx |xxxxxxxxxxxxx |xxxxxxxxxxxxx |xxxxxxxxxxxxx |      <error: |      <error: |      <error: |xxxxxxxxxxxxx |xxxxxxxxxxxxx |xxxxxxxxxxxxx |xxxxxxxxxxxxx |      <error: |      <error: |      <error: |xxxxxxxxxxxxx |xxxxxxxxxxxxx |xxxxxxxxxxxxx |xxxxxxxxxxxxx |      <error: |      <error: |      <error: |xxxxxxxxxxxxx |xxxxxxxxxxxxx |xxxxxxxxxxxxx |xxxxxxxxxxxxx |      <error: |      <error: |      <error: |xxxxxxxxxxxxx |xxxxxxxxxxxxx |xxxxxxxxxxxxx |xxxxxxxxxxxxx |       0.0000 |       0.0000 |       0.0000 |xxxxxxxxxxxxx |xxxxxxxxxxxxx |xxxxxxxxxxxxx |xxxxxxxxxxxxx |       0.0000 |       0.0000 |       0.0000 |xxxxxxxxxxxxx |xxxxxxxxxxxxx |xxxxxxxxxxxxx |xxxxxxxxxxxxx |       0.0000 |       0.0000 |       0.0000 |xxxxxxxxxxxxx |xxxxxxxxxxxxx |xxxxxxxxxxxxx |xxxxxxxxxxxxx |       0.0000 |       0.0000 |       0.0000 |
bpred_bimod.retstack_pushes                     73 |           73 |           73 |xxxxxxxxxxxxx |xxxxxxxxxxxxx |xxxxxxxxxxxxx |xxxxxxxxxxxxx |           73 |           73 |           73 |xxxxxxxxxxxxx |xxxxxxxxxxxxx |xxxxxxxxxxxxx |xxxxxxxxxxxxx |           73 |           73 |           73 |xxxxxxxxxxxxx |xxxxxxxxxxxxx |xxxxxxxxxxxxx |xxxxxxxxxxxxx |           73 |           73 |           73 |xxxxxxxxxxxxx |xxxxxxxxxxxxx |xxxxxxxxxxxxx |xxxxxxxxxxxxx |           73 |           73 |           73 |xxxxxxxxxxxxx |xxxxxxxxxxxxx |xxxxxxxxxxxxx |xxxxxxxxxxxxx |           73 |           73 |           73 |xxxxxxxxxxxxx |xxxxxxxxxxxxx |xxxxxxxxxxxxx |xxxxxxxxxxxxx |           73 |           73 |           73 |xxxxxxxxxxxxx |xxxxxxxxxxxxx |xxxxxxxxxxxxx |xxxxxxxxxxxxx |           75 |           75 |           75 |xxxxxxxxxxxxx |xxxxxxxxxxxxx |xxxxxxxxxxxxx |xxxxxxxxxxxxx |           75 |           75 |           75 |xxxxxxxxxxxxx |xxxxxxxxxxxxx |xxxxxxxxxxxxx |xxxxxxxxxxxxx |           75 |           75 |           75 |xxxxxxxxxxxxx |xxxxxxxxxxxxx |xxxxxxxxxxxxx |xxxxxxxxxxxxx |           75 |           75 |           75 |
bpred_bimod.retstack_pops                       71 |           71 |           71 |xxxxxxxxxxxxx |xxxxxxxxxxxxx |xxxxxxxxxxxxx |xxxxxxxxxxxxx |           71 |           71 |           71 |xxxxxxxxxxxxx |xxxxxxxxxxxxx |xxxxxxxxxxxxx |xxxxxxxxxxxxx |           71 |           71 |           71 |xxxxxxxxxxxxx |xxxxxxxxxxxxx |xxxxxxxxxxxxx |xxxxxxxxxxxxx |           71 |           71 |           71 |xxxxxxxxxxxxx |xxxxxxxxxxxxx |xxxxxxxxxxxxx |xxxxxxxxxxxxx |           71 |           71 |           71 |xxxxxxxxxxxxx |xxxxxxxxxxxxx |xxxxxxxxxxxxx |xxxxxxxxxxxxx |           71 |           71 |           71 |xxxxxxxxxxxxx |xxxxxxxxxxxxx |xxxxxxxxxxxxx |xxxxxxxxxxxxx |           71 |           71 |           71 |xxxxxxxxxxxxx |xxxxxxxxxxxxx |xxxxxxxxxxxxx |xxxxxxxxxxxxx |           73 |           73 |           73 |xxxxxxxxxxxxx |xxxxxxxxxxxxx |xxxxxxxxxxxxx |xxxxxxxxxxxxx |           73 |           73 |           73 |xxxxxxxxxxxxx |xxxxxxxxxxxxx |xxxxxxxxxxxxx |xxxxxxxxxxxxx |           73 |           73 |           73 |xxxxxxxxxxxxx |xxxxxxxxxxxxx |xxxxxxxxxxxxx |xxxxxxxxxxxxx |           73 |           73 |           73 |
bpred_bimod.used_ras.PP                         71 |           71 |           71 |xxxxxxxxxxxxx |xxxxxxxxxxxxx |xxxxxxxxxxxxx |xxxxxxxxxxxxx |           71 |           71 |           71 |xxxxxxxxxxxxx |xxxxxxxxxxxxx |xxxxxxxxxxxxx |xxxxxxxxxxxxx |           71 |           71 |           71 |xxxxxxxxxxxxx |xxxxxxxxxxxxx |xxxxxxxxxxxxx |xxxxxxxxxxxxx |           71 |           71 |           71 |xxxxxxxxxxxxx |xxxxxxxxxxxxx |xxxxxxxxxxxxx |xxxxxxxxxxxxx |           71 |           71 |           71 |xxxxxxxxxxxxx |xxxxxxxxxxxxx |xxxxxxxxxxxxx |xxxxxxxxxxxxx |           71 |           71 |           71 |xxxxxxxxxxxxx |xxxxxxxxxxxxx |xxxxxxxxxxxxx |xxxxxxxxxxxxx |           71 |           71 |           71 |xxxxxxxxxxxxx |xxxxxxxxxxxxx |xxxxxxxxxxxxx |xxxxxxxxxxxxx |           73 |           73 |           73 |xxxxxxxxxxxxx |xxxxxxxxxxxxx |xxxxxxxxxxxxx |xxxxxxxxxxxxx |           73 |           73 |           73 |xxxxxxxxxxxxx |xxxxxxxxxxxxx |xxxxxxxxxxxxx |xxxxxxxxxxxxx |           73 |           73 |           73 |xxxxxxxxxxxxx |xxxxxxxxxxxxx |xxxxxxxxxxxxx |xxxxxxxxxxxxx |           73 |           73 |           73 |
bpred_bimod.ras_hits.PP                         70 |           70 |           70 |xxxxxxxxxxxxx |xxxxxxxxxxxxx |xxxxxxxxxxxxx |xxxxxxxxxxxxx |           70 |           70 |           70 |xxxxxxxxxxxxx |xxxxxxxxxxxxx |xxxxxxxxxxxxx |xxxxxxxxxxxxx |           70 |           70 |           70 |xxxxxxxxxxxxx |xxxxxxxxxxxxx |xxxxxxxxxxxxx |xxxxxxxxxxxxx |           70 |           70 |           70 |xxxxxxxxxxxxx |xxxxxxxxxxxxx |xxxxxxxxxxxxx |xxxxxxxxxxxxx |           70 |           70 |           70 |xxxxxxxxxxxxx |xxxxxxxxxxxxx |xxxxxxxxxxxxx |xxxxxxxxxxxxx |           70 |           70 |           70 |xxxxxxxxxxxxx |xxxxxxxxxxxxx |xxxxxxxxxxxxx |xxxxxxxxxxxxx |           70 |           70 |           70 |xxxxxxxxxxxxx |xxxxxxxxxxxxx |xxxxxxxxxxxxx |xxxxxxxxxxxxx |           73 |           73 |           73 |xxxxxxxxxxxxx |xxxxxxxxxxxxx |xxxxxxxxxxxxx |xxxxxxxxxxxxx |           73 |           73 |           73 |xxxxxxxxxxxxx |xxxxxxxxxxxxx |xxxxxxxxxxxxx |xxxxxxxxxxxxx |           73 |           73 |           73 |xxxxxxxxxxxxx |xxxxxxxxxxxxx |xxxxxxxxxxxxx |xxxxxxxxxxxxx |           73 |           73 |           73 |
bpred_bimod.ras_rate.PP                     0.9859 |       0.9859 |       0.9859 |xxxxxxxxxxxxx |xxxxxxxxxxxxx |xxxxxxxxxxxxx |xxxxxxxxxxxxx |       0.9859 |       0.9859 |       0.9859 |xxxxxxxxxxxxx |xxxxxxxxxxxxx |xxxxxxxxxxxxx |xxxxxxxxxxxxx |       0.9859 |       0.9859 |       0.9859 |xxxxxxxxxxxxx |xxxxxxxxxxxxx |xxxxxxxxxxxxx |xxxxxxxxxxxxx |       0.9859 |       0.9859 |       0.9859 |xxxxxxxxxxxxx |xxxxxxxxxxxxx |xxxxxxxxxxxxx |xxxxxxxxxxxxx |       0.9859 |       0.9859 |       0.9859 |xxxxxxxxxxxxx |xxxxxxxxxxxxx |xxxxxxxxxxxxx |xxxxxxxxxxxxx |       0.9859 |       0.9859 |       0.9859 |xxxxxxxxxxxxx |xxxxxxxxxxxxx |xxxxxxxxxxxxx |xxxxxxxxxxxxx |       0.9859 |       0.9859 |       0.9859 |xxxxxxxxxxxxx |xxxxxxxxxxxxx |xxxxxxxxxxxxx |xxxxxxxxxxxxx |       1.0000 |       1.0000 |       1.0000 |xxxxxxxxxxxxx |xxxxxxxxxxxxx |xxxxxxxxxxxxx |xxxxxxxxxxxxx |       1.0000 |       1.0000 |       1.0000 |xxxxxxxxxxxxx |xxxxxxxxxxxxx |xxxxxxxxxxxxx |xxxxxxxxxxxxx |       1.0000 |       1.0000 |       1.0000 |xxxxxxxxxxxxx |xxxxxxxxxxxxx |xxxxxxxxxxxxx |xxxxxxxxxxxxx |       1.0000 |       1.0000 |       1.0000 |
bpred_2lev.lookups                   xxxxxxxxxxxxx |xxxxxxxxxxxxx |xxxxxxxxxxxxx |         9292 |         9292 |         9292 |         9292 |xxxxxxxxxxxxx |xxxxxxxxxxxxx |xxxxxxxxxxxxx |        17484 |        17484 |        17484 |        17484 |xxxxxxxxxxxxx |xxxxxxxxxxxxx |xxxxxxxxxxxxx |        33868 |        33868 |        33868 |        33868 |xxxxxxxxxxxxx |xxxxxxxxxxxxx |xxxxxxxxxxxxx |        66636 |        66636 |        66636 |        66636 |xxxxxxxxxxxxx |xxxxxxxxxxxxx |xxxxxxxxxxxxx |       132172 |       132172 |       132172 |       132172 |xxxxxxxxxxxxx |xxxxxxxxxxxxx |xxxxxxxxxxxxx |       263244 |       263244 |       263244 |       263244 |xxxxxxxxxxxxx |xxxxxxxxxxxxx |xxxxxxxxxxxxx |       525388 |       525388 |       525388 |       525388 |xxxxxxxxxxxxx |xxxxxxxxxxxxx |xxxxxxxxxxxxx |      1050469 |      1050469 |      1050469 |      1050469 |xxxxxxxxxxxxx |xxxxxxxxxxxxx |xxxxxxxxxxxxx |      2099045 |      2099045 |      2099045 |      2099045 |xxxxxxxxxxxxx |xxxxxxxxxxxxx |xxxxxxxxxxxxx |      4196968 |      4196968 |      4196968 |      4196968 |xxxxxxxxxxxxx |xxxxxxxxxxxxx |xxxxxxxxxxxxx |      8392811 |      8392811 |      8392811 |      8392811 |
[...]
bpred_2lev.retstack_pops             xxxxxxxxxxxxx |xxxxxxxxxxxxx |xxxxxxxxxxxxx |           71 |           71 |           71 |           71 |xxxxxxxxxxxxx |xxxxxxxxxxxxx |xxxxxxxxxxxxx |           71 |           71 |           71 |           71 |xxxxxxxxxxxxx |xxxxxxxxxxxxx |xxxxxxxxxxxxx |           71 |           71 |           71 |           71 |xxxxxxxxxxxxx |xxxxxxxxxxxxx |xxxxxxxxxxxxx |           71 |           71 |           71 |           71 |xxxxxxxxxxxxx |xxxxxxxxxxxxx |xxxxxxxxxxxxx |           71 |           71 |           71 |           71 |xxxxxxxxxxxxx |xxxxxxxxxxxxx |xxxxxxxxxxxxx |           71 |           71 |           71 |           71 |xxxxxxxxxxxxx |xxxxxxxxxxxxx |xxxxxxxxxxxxx |           71 |           71 |           71 |           71 |xxxxxxxxxxxxx |xxxxxxxxxxxxx |xxxxxxxxxxxxx |           73 |           73 |           73 |           73 |xxxxxxxxxxxxx |xxxxxxxxxxxxx |xxxxxxxxxxxxx |           73 |           73 |           73 |           73 |xxxxxxxxxxxxx |xxxxxxxxxxxxx |xxxxxxxxxxxxx |           73 |           73 |           73 |           73 |xxxxxxxxxxxxx |xxxxxxxxxxxxx |xxxxxxxxxxxxx |           73 |           73 |           73 |           73 |
bpred_2lev.used_ras.PP               xxxxxxxxxxxxx |xxxxxxxxxxxxx |xxxxxxxxxxxxx |           71 |           71 |           71 |           71 |xxxxxxxxxxxxx |xxxxxxxxxxxxx |xxxxxxxxxxxxx |           71 |           71 |           71 |           71 |xxxxxxxxxxxxx |xxxxxxxxxxxxx |xxxxxxxxxxxxx |           71 |           71 |           71 |           71 |xxxxxxxxxxxxx |xxxxxxxxxxxxx |xxxxxxxxxxxxx |           71 |           71 |           71 |           71 |xxxxxxxxxxxxx |xxxxxxxxxxxxx |xxxxxxxxxxxxx |           71 |           71 |           71 |           71 |xxxxxxxxxxxxx |xxxxxxxxxxxxx |xxxxxxxxxxxxx |           71 |           71 |           71 |           71 |xxxxxxxxxxxxx |xxxxxxxxxxxxx |xxxxxxxxxxxxx |           71 |           71 |           71 |           71 |xxxxxxxxxxxxx |xxxxxxxxxxxxx |xxxxxxxxxxxxx |           73 |           73 |           73 |           73 |xxxxxxxxxxxxx |xxxxxxxxxxxxx |xxxxxxxxxxxxx |           73 |           73 |           73 |           73 |xxxxxxxxxxxxx |xxxxxxxxxxxxx |xxxxxxxxxxxxx |           73 |           73 |           73 |           73 |xxxxxxxxxxxxx |xxxxxxxxxxxxx |xxxxxxxxxxxxx |           73 |           73 |           73 |           73 |
bpred_2lev.ras_hits.PP               xxxxxxxxxxxxx |xxxxxxxxxxxxx |xxxxxxxxxxxxx |           70 |           70 |           70 |           70 |xxxxxxxxxxxxx |xxxxxxxxxxxxx |xxxxxxxxxxxxx |           70 |           70 |           70 |           70 |xxxxxxxxxxxxx |xxxxxxxxxxxxx |xxxxxxxxxxxxx |           70 |           70 |           70 |           70 |xxxxxxxxxxxxx |xxxxxxxxxxxxx |xxxxxxxxxxxxx |           70 |           70 |           70 |           70 |xxxxxxxxxxxxx |xxxxxxxxxxxxx |xxxxxxxxxxxxx |           70 |           70 |           70 |           70 |xxxxxxxxxxxxx |xxxxxxxxxxxxx |xxxxxxxxxxxxx |           70 |           70 |           70 |           70 |xxxxxxxxxxxxx |xxxxxxxxxxxxx |xxxxxxxxxxxxx |           70 |           70 |           70 |           70 |xxxxxxxxxxxxx |xxxxxxxxxxxxx |xxxxxxxxxxxxx |           73 |           73 |           73 |           73 |xxxxxxxxxxxxx |xxxxxxxxxxxxx |xxxxxxxxxxxxx |           73 |           73 |           73 |           73 |xxxxxxxxxxxxx |xxxxxxxxxxxxx |xxxxxxxxxxxxx |           73 |           73 |           73 |           73 |xxxxxxxxxxxxx |xxxxxxxxxxxxx |xxxxxxxxxxxxx |           73 |           73 |           73 |           73 |
bpred_2lev.ras_rate.PP               xxxxxxxxxxxxx |xxxxxxxxxxxxx |xxxxxxxxxxxxx |       0.9859 |       0.9859 |       0.9859 |       0.9859 |xxxxxxxxxxxxx |xxxxxxxxxxxxx |xxxxxxxxxxxxx |       0.9859 |       0.9859 |       0.9859 |       0.9859 |xxxxxxxxxxxxx |xxxxxxxxxxxxx |xxxxxxxxxxxxx |       0.9859 |       0.9859 |       0.9859 |       0.9859 |xxxxxxxxxxxxx |xxxxxxxxxxxxx |xxxxxxxxxxxxx |       0.9859 |       0.9859 |       0.9859 |       0.9859 |xxxxxxxxxxxxx |xxxxxxxxxxxxx |xxxxxxxxxxxxx |       0.9859 |       0.9859 |       0.9859 |       0.9859 |xxxxxxxxxxxxx |xxxxxxxxxxxxx |xxxxxxxxxxxxx |       0.9859 |       0.9859 |       0.9859 |       0.9859 |xxxxxxxxxxxxx |xxxxxxxxxxxxx |xxxxxxxxxxxxx |       0.9859 |       0.9859 |       0.9859 |       0.9859 |xxxxxxxxxxxxx |xxxxxxxxxxxxx |xxxxxxxxxxxxx |       1.0000 |       1.0000 |       1.0000 |       1.0000 |xxxxxxxxxxxxx |xxxxxxxxxxxxx |xxxxxxxxxxxxx |       1.0000 |       1.0000 |       1.0000 |       1.0000 |xxxxxxxxxxxxx |xxxxxxxxxxxxx |xxxxxxxxxxxxx |       1.0000 |       1.0000 |       1.0000 |       1.0000 |xxxxxxxxxxxxx |xxxxxxxxxxxxx |xxxxxxxxxxxxx |       1.0000 |       1.0000 |       1.0000 |       1.0000 |

Command list: 
	sslittle-na-sstrix-gcc -Wall -O3 -funroll-loops -finline-functions  -DRANDOM_SIZE=4096 -DOFFSET=7 -DSORT=aligned_cache_radixsort sorts/aligned_cache_radixsort479277337.c simpleMain.c -o aligned_cache_radixsort1782069958
	sim-cache -cache:dl1 dl1:256:32:1:l -cache:dl2 dl2:131072:32:1:l -cache:il1 il1:256:32:1:l -cache:il2 dl2 aligned_cache_radixsort1782069958
	sim-cache -cache:dl1 dl1:256:32:1:l -cache:dl2 dl2:65536:32:1:l -cache:il1 il1:256:32:1:l -cache:il2 dl2 aligned_cache_radixsort1782069958
	sim-cache -cache:dl1 dl1:1:32:256:l -cache:dl2 dl2:1:32:131072:l -cache:il1 il1:1:32:256:l -cache:il2 dl2 aligned_cache_radixsort1782069958
	sim-cache -cache:dl1 dl1:1:32:256:l -cache:dl2 dl2:1:32:65536:l -cache:il1 il1:1:32:256:l -cache:il2 dl2 aligned_cache_radixsort1782069958
	sim-bpred -bpred bimod -bpred:bimod 512 aligned_cache_radixsort1782069958
	sim-bpred -bpred bimod -bpred:bimod 1024 aligned_cache_radixsort1782069958
	sim-bpred -bpred bimod -bpred:bimod 2048 aligned_cache_radixsort1782069958
	sim-bpred -bpred 2lev -bpred:2lev 1 512 10 1 aligned_cache_radixsort1782069958
	sim-bpred -bpred 2lev -bpred:2lev 1 1024 10 1 aligned_cache_radixsort1782069958
	sim-bpred -bpred 2lev -bpred:2lev 1 2048 10 1 aligned_cache_radixsort1782069958
	sim-bpred -bpred 2lev -bpred:2lev 1 4096 10 1 aligned_cache_radixsort1782069958
	sslittle-na-sstrix-gcc -Wall -O3 -funroll-loops -finline-functions  -DRANDOM_SIZE=8192 -DOFFSET=7 -DSORT=aligned_cache_radixsort sorts/aligned_cache_radixsort479277337.c simpleMain.c -o aligned_cache_radixsort1782069958
	sim-cache -cache:dl1 dl1:256:32:1:l -cache:dl2 dl2:131072:32:1:l -cache:il1 il1:256:32:1:l -cache:il2 dl2 aligned_cache_radixsort1782069958
	sim-cache -cache:dl1 dl1:256:32:1:l -cache:dl2 dl2:65536:32:1:l -cache:il1 il1:256:32:1:l -cache:il2 dl2 aligned_cache_radixsort1782069958
	sim-cache -cache:dl1 dl1:1:32:256:l -cache:dl2 dl2:1:32:131072:l -cache:il1 il1:1:32:256:l -cache:il2 dl2 aligned_cache_radixsort1782069958
	sim-cache -cache:dl1 dl1:1:32:256:l -cache:dl2 dl2:1:32:65536:l -cache:il1 il1:1:32:256:l -cache:il2 dl2 aligned_cache_radixsort1782069958
	sim-bpred -bpred bimod -bpred:bimod 512 aligned_cache_radixsort1782069958
	sim-bpred -bpred bimod -bpred:bimod 1024 aligned_cache_radixsort1782069958
	sim-bpred -bpred bimod -bpred:bimod 2048 aligned_cache_radixsort1782069958
	sim-bpred -bpred 2lev -bpred:2lev 1 512 10 1 aligned_cache_radixsort1782069958
	sim-bpred -bpred 2lev -bpred:2lev 1 1024 10 1 aligned_cache_radixsort1782069958
	sim-bpred -bpred 2lev -bpred:2lev 1 2048 10 1 aligned_cache_radixsort1782069958
	sim-bpred -bpred 2lev -bpred:2lev 1 4096 10 1 aligned_cache_radixsort1782069958
	sslittle-na-sstrix-gcc -Wall -O3 -funroll-loops -finline-functions  -DRANDOM_SIZE=16384 -DOFFSET=7 -DSORT=aligned_cache_radixsort sorts/aligned_cache_radixsort479277337.c simpleMain.c -o aligned_cache_radixsort1782069958
	sim-cache -cache:dl1 dl1:256:32:1:l -cache:dl2 dl2:131072:32:1:l -cache:il1 il1:256:32:1:l -cache:il2 dl2 aligned_cache_radixsort1782069958
	sim-cache -cache:dl1 dl1:256:32:1:l -cache:dl2 dl2:65536:32:1:l -cache:il1 il1:256:32:1:l -cache:il2 dl2 aligned_cache_radixsort1782069958
	sim-cache -cache:dl1 dl1:1:32:256:l -cache:dl2 dl2:1:32:131072:l -cache:il1 il1:1:32:256:l -cache:il2 dl2 aligned_cache_radixsort1782069958
	sim-cache -cache:dl1 dl1:1:32:256:l -cache:dl2 dl2:1:32:65536:l -cache:il1 il1:1:32:256:l -cache:il2 dl2 aligned_cache_radixsort1782069958
	sim-bpred -bpred bimod -bpred:bimod 512 aligned_cache_radixsort1782069958
	sim-bpred -bpred bimod -bpred:bimod 1024 aligned_cache_radixsort1782069958
	sim-bpred -bpred bimod -bpred:bimod 2048 aligned_cache_radixsort1782069958
	sim-bpred -bpred 2lev -bpred:2lev 1 512 10 1 aligned_cache_radixsort1782069958
	sim-bpred -bpred 2lev -bpred:2lev 1 1024 10 1 aligned_cache_radixsort1782069958
	sim-bpred -bpred 2lev -bpred:2lev 1 2048 10 1 aligned_cache_radixsort1782069958
	sim-bpred -bpred 2lev -bpred:2lev 1 4096 10 1 aligned_cache_radixsort1782069958
	sslittle-na-sstrix-gcc -Wall -O3 -funroll-loops -finline-functions  -DRANDOM_SIZE=32768 -DOFFSET=7 -DSORT=aligned_cache_radixsort sorts/aligned_cache_radixsort479277337.c simpleMain.c -o aligned_cache_radixsort1782069958
	sim-cache -cache:dl1 dl1:256:32:1:l -cache:dl2 dl2:131072:32:1:l -cache:il1 il1:256:32:1:l -cache:il2 dl2 aligned_cache_radixsort1782069958
	sim-cache -cache:dl1 dl1:256:32:1:l -cache:dl2 dl2:65536:32:1:l -cache:il1 il1:256:32:1:l -cache:il2 dl2 aligned_cache_radixsort1782069958
	sim-cache -cache:dl1 dl1:1:32:256:l -cache:dl2 dl2:1:32:131072:l -cache:il1 il1:1:32:256:l -cache:il2 dl2 aligned_cache_radixsort1782069958
	sim-cache -cache:dl1 dl1:1:32:256:l -cache:dl2 dl2:1:32:65536:l -cache:il1 il1:1:32:256:l -cache:il2 dl2 aligned_cache_radixsort1782069958
	sim-bpred -bpred bimod -bpred:bimod 512 aligned_cache_radixsort1782069958
	sim-bpred -bpred bimod -bpred:bimod 1024 aligned_cache_radixsort1782069958
	sim-bpred -bpred bimod -bpred:bimod 2048 aligned_cache_radixsort1782069958
	sim-bpred -bpred 2lev -bpred:2lev 1 512 10 1 aligned_cache_radixsort1782069958
	sim-bpred -bpred 2lev -bpred:2lev 1 1024 10 1 aligned_cache_radixsort1782069958
	sim-bpred -bpred 2lev -bpred:2lev 1 2048 10 1 aligned_cache_radixsort1782069958
	sim-bpred -bpred 2lev -bpred:2lev 1 4096 10 1 aligned_cache_radixsort1782069958
	sslittle-na-sstrix-gcc -Wall -O3 -funroll-loops -finline-functions  -DRANDOM_SIZE=65536 -DOFFSET=7 -DSORT=aligned_cache_radixsort sorts/aligned_cache_radixsort479277337.c simpleMain.c -o aligned_cache_radixsort1782069958
	sim-cache -cache:dl1 dl1:256:32:1:l -cache:dl2 dl2:131072:32:1:l -cache:il1 il1:256:32:1:l -cache:il2 dl2 aligned_cache_radixsort1782069958
	sim-cache -cache:dl1 dl1:256:32:1:l -cache:dl2 dl2:65536:32:1:l -cache:il1 il1:256:32:1:l -cache:il2 dl2 aligned_cache_radixsort1782069958
	sim-cache -cache:dl1 dl1:1:32:256:l -cache:dl2 dl2:1:32:131072:l -cache:il1 il1:1:32:256:l -cache:il2 dl2 aligned_cache_radixsort1782069958
	sim-cache -cache:dl1 dl1:1:32:256:l -cache:dl2 dl2:1:32:65536:l -cache:il1 il1:1:32:256:l -cache:il2 dl2 aligned_cache_radixsort1782069958
	sim-bpred -bpred bimod -bpred:bimod 512 aligned_cache_radixsort1782069958
	sim-bpred -bpred bimod -bpred:bimod 1024 aligned_cache_radixsort1782069958
	sim-bpred -bpred bimod -bpred:bimod 2048 aligned_cache_radixsort1782069958
	sim-bpred -bpred 2lev -bpred:2lev 1 512 10 1 aligned_cache_radixsort1782069958
	sim-bpred -bpred 2lev -bpred:2lev 1 1024 10 1 aligned_cache_radixsort1782069958
	sim-bpred -bpred 2lev -bpred:2lev 1 2048 10 1 aligned_cache_radixsort1782069958
	sim-bpred -bpred 2lev -bpred:2lev 1 4096 10 1 aligned_cache_radixsort1782069958
	sslittle-na-sstrix-gcc -Wall -O3 -funroll-loops -finline-functions  -DRANDOM_SIZE=131072 -DOFFSET=7 -DSORT=aligned_cache_radixsort sorts/aligned_cache_radixsort479277337.c simpleMain.c -o aligned_cache_radixsort1782069958
	sim-cache -cache:dl1 dl1:256:32:1:l -cache:dl2 dl2:131072:32:1:l -cache:il1 il1:256:32:1:l -cache:il2 dl2 aligned_cache_radixsort1782069958
	sim-cache -cache:dl1 dl1:256:32:1:l -cache:dl2 dl2:65536:32:1:l -cache:il1 il1:256:32:1:l -cache:il2 dl2 aligned_cache_radixsort1782069958
	sim-cache -cache:dl1 dl1:1:32:256:l -cache:dl2 dl2:1:32:131072:l -cache:il1 il1:1:32:256:l -cache:il2 dl2 aligned_cache_radixsort1782069958
	sim-cache -cache:dl1 dl1:1:32:256:l -cache:dl2 dl2:1:32:65536:l -cache:il1 il1:1:32:256:l -cache:il2 dl2 aligned_cache_radixsort1782069958
	sim-bpred -bpred bimod -bpred:bimod 512 aligned_cache_radixsort1782069958
	sim-bpred -bpred bimod -bpred:bimod 1024 aligned_cache_radixsort1782069958
	sim-bpred -bpred bimod -bpred:bimod 2048 aligned_cache_radixsort1782069958
	sim-bpred -bpred 2lev -bpred:2lev 1 512 10 1 aligned_cache_radixsort1782069958
	sim-bpred -bpred 2lev -bpred:2lev 1 1024 10 1 aligned_cache_radixsort1782069958
	sim-bpred -bpred 2lev -bpred:2lev 1 2048 10 1 aligned_cache_radixsort1782069958
	sim-bpred -bpred 2lev -bpred:2lev 1 4096 10 1 aligned_cache_radixsort1782069958
	sslittle-na-sstrix-gcc -Wall -O3 -funroll-loops -finline-functions  -DRANDOM_SIZE=262144 -DOFFSET=7 -DSORT=aligned_cache_radixsort sorts/aligned_cache_radixsort479277337.c simpleMain.c -o aligned_cache_radixsort1782069958
	sim-cache -cache:dl1 dl1:256:32:1:l -cache:dl2 dl2:131072:32:1:l -cache:il1 il1:256:32:1:l -cache:il2 dl2 aligned_cache_radixsort1782069958
	sim-cache -cache:dl1 dl1:256:32:1:l -cache:dl2 dl2:65536:32:1:l -cache:il1 il1:256:32:1:l -cache:il2 dl2 aligned_cache_radixsort1782069958
	sim-cache -cache:dl1 dl1:1:32:256:l -cache:dl2 dl2:1:32:131072:l -cache:il1 il1:1:32:256:l -cache:il2 dl2 aligned_cache_radixsort1782069958
	sim-cache -cache:dl1 dl1:1:32:256:l -cache:dl2 dl2:1:32:65536:l -cache:il1 il1:1:32:256:l -cache:il2 dl2 aligned_cache_radixsort1782069958
	sim-bpred -bpred bimod -bpred:bimod 512 aligned_cache_radixsort1782069958
	sim-bpred -bpred bimod -bpred:bimod 1024 aligned_cache_radixsort1782069958
	sim-bpred -bpred bimod -bpred:bimod 2048 aligned_cache_radixsort1782069958
	sim-bpred -bpred 2lev -bpred:2lev 1 512 10 1 aligned_cache_radixsort1782069958
	sim-bpred -bpred 2lev -bpred:2lev 1 1024 10 1 aligned_cache_radixsort1782069958
	sim-bpred -bpred 2lev -bpred:2lev 1 2048 10 1 aligned_cache_radixsort1782069958
	sim-bpred -bpred 2lev -bpred:2lev 1 4096 10 1 aligned_cache_radixsort1782069958
	sslittle-na-sstrix-gcc -Wall -O3 -funroll-loops -finline-functions  -DRANDOM_SIZE=524288 -DOFFSET=7 -DSORT=aligned_cache_radixsort sorts/aligned_cache_radixsort479277337.c simpleMain.c -o aligned_cache_radixsort1782069958
	sim-cache -cache:dl1 dl1:256:32:1:l -cache:dl2 dl2:131072:32:1:l -cache:il1 il1:256:32:1:l -cache:il2 dl2 aligned_cache_radixsort1782069958
	sim-cache -cache:dl1 dl1:256:32:1:l -cache:dl2 dl2:65536:32:1:l -cache:il1 il1:256:32:1:l -cache:il2 dl2 aligned_cache_radixsort1782069958
	sim-cache -cache:dl1 dl1:1:32:256:l -cache:dl2 dl2:1:32:131072:l -cache:il1 il1:1:32:256:l -cache:il2 dl2 aligned_cache_radixsort1782069958
	sim-cache -cache:dl1 dl1:1:32:256:l -cache:dl2 dl2:1:32:65536:l -cache:il1 il1:1:32:256:l -cache:il2 dl2 aligned_cache_radixsort1782069958
	sim-bpred -bpred bimod -bpred:bimod 512 aligned_cache_radixsort1782069958
	sim-bpred -bpred bimod -bpred:bimod 1024 aligned_cache_radixsort1782069958
	sim-bpred -bpred bimod -bpred:bimod 2048 aligned_cache_radixsort1782069958
	sim-bpred -bpred 2lev -bpred:2lev 1 512 10 1 aligned_cache_radixsort1782069958
	sim-bpred -bpred 2lev -bpred:2lev 1 1024 10 1 aligned_cache_radixsort1782069958
	sim-bpred -bpred 2lev -bpred:2lev 1 2048 10 1 aligned_cache_radixsort1782069958
	sim-bpred -bpred 2lev -bpred:2lev 1 4096 10 1 aligned_cache_radixsort1782069958
	sslittle-na-sstrix-gcc -Wall -O3 -funroll-loops -finline-functions  -DRANDOM_SIZE=1048576 -DOFFSET=7 -DSORT=aligned_cache_radixsort sorts/aligned_cache_radixsort479277337.c simpleMain.c -o aligned_cache_radixsort1782069958
	sim-cache -cache:dl1 dl1:256:32:1:l -cache:dl2 dl2:131072:32:1:l -cache:il1 il1:256:32:1:l -cache:il2 dl2 aligned_cache_radixsort1782069958
	sim-cache -cache:dl1 dl1:256:32:1:l -cache:dl2 dl2:65536:32:1:l -cache:il1 il1:256:32:1:l -cache:il2 dl2 aligned_cache_radixsort1782069958
	sim-cache -cache:dl1 dl1:1:32:256:l -cache:dl2 dl2:1:32:131072:l -cache:il1 il1:1:32:256:l -cache:il2 dl2 aligned_cache_radixsort1782069958
	sim-cache -cache:dl1 dl1:1:32:256:l -cache:dl2 dl2:1:32:65536:l -cache:il1 il1:1:32:256:l -cache:il2 dl2 aligned_cache_radixsort1782069958
	sim-bpred -bpred bimod -bpred:bimod 512 aligned_cache_radixsort1782069958
	sim-bpred -bpred bimod -bpred:bimod 1024 aligned_cache_radixsort1782069958
	sim-bpred -bpred bimod -bpred:bimod 2048 aligned_cache_radixsort1782069958
	sim-bpred -bpred 2lev -bpred:2lev 1 512 10 1 aligned_cache_radixsort1782069958
	sim-bpred -bpred 2lev -bpred:2lev 1 1024 10 1 aligned_cache_radixsort1782069958
	sim-bpred -bpred 2lev -bpred:2lev 1 2048 10 1 aligned_cache_radixsort1782069958
	sim-bpred -bpred 2lev -bpred:2lev 1 4096 10 1 aligned_cache_radixsort1782069958
	sslittle-na-sstrix-gcc -Wall -O3 -funroll-loops -finline-functions  -DRANDOM_SIZE=2097152 -DOFFSET=7 -DSORT=aligned_cache_radixsort sorts/aligned_cache_radixsort479277337.c simpleMain.c -o aligned_cache_radixsort1782069958
	sim-cache -cache:dl1 dl1:256:32:1:l -cache:dl2 dl2:131072:32:1:l -cache:il1 il1:256:32:1:l -cache:il2 dl2 aligned_cache_radixsort1782069958
	sim-cache -cache:dl1 dl1:256:32:1:l -cache:dl2 dl2:65536:32:1:l -cache:il1 il1:256:32:1:l -cache:il2 dl2 aligned_cache_radixsort1782069958
	sim-cache -cache:dl1 dl1:1:32:256:l -cache:dl2 dl2:1:32:131072:l -cache:il1 il1:1:32:256:l -cache:il2 dl2 aligned_cache_radixsort1782069958
	sim-cache -cache:dl1 dl1:1:32:256:l -cache:dl2 dl2:1:32:65536:l -cache:il1 il1:1:32:256:l -cache:il2 dl2 aligned_cache_radixsort1782069958
	sim-bpred -bpred bimod -bpred:bimod 512 aligned_cache_radixsort1782069958
	sim-bpred -bpred bimod -bpred:bimod 1024 aligned_cache_radixsort1782069958
	sim-bpred -bpred bimod -bpred:bimod 2048 aligned_cache_radixsort1782069958
	sim-bpred -bpred 2lev -bpred:2lev 1 512 10 1 aligned_cache_radixsort1782069958
	sim-bpred -bpred 2lev -bpred:2lev 1 1024 10 1 aligned_cache_radixsort1782069958
	sim-bpred -bpred 2lev -bpred:2lev 1 2048 10 1 aligned_cache_radixsort1782069958
	sim-bpred -bpred 2lev -bpred:2lev 1 4096 10 1 aligned_cache_radixsort1782069958
	sslittle-na-sstrix-gcc -Wall -O3 -funroll-loops -finline-functions  -DRANDOM_SIZE=4194304 -DOFFSET=7 -DSORT=aligned_cache_radixsort sorts/aligned_cache_radixsort479277337.c simpleMain.c -o aligned_cache_radixsort1782069958
	sim-cache -cache:dl1 dl1:256:32:1:l -cache:dl2 dl2:131072:32:1:l -cache:il1 il1:256:32:1:l -cache:il2 dl2 aligned_cache_radixsort1782069958
	sim-cache -cache:dl1 dl1:256:32:1:l -cache:dl2 dl2:65536:32:1:l -cache:il1 il1:256:32:1:l -cache:il2 dl2 aligned_cache_radixsort1782069958
	sim-cache -cache:dl1 dl1:1:32:256:l -cache:dl2 dl2:1:32:131072:l -cache:il1 il1:1:32:256:l -cache:il2 dl2 aligned_cache_radixsort1782069958
	sim-cache -cache:dl1 dl1:1:32:256:l -cache:dl2 dl2:1:32:65536:l -cache:il1 il1:1:32:256:l -cache:il2 dl2 aligned_cache_radixsort1782069958
	sim-bpred -bpred bimod -bpred:bimod 512 aligned_cache_radixsort1782069958
	sim-bpred -bpred bimod -bpred:bimod 1024 aligned_cache_radixsort1782069958
	sim-bpred -bpred bimod -bpred:bimod 2048 aligned_cache_radixsort1782069958
	sim-bpred -bpred 2lev -bpred:2lev 1 512 10 1 aligned_cache_radixsort1782069958
	sim-bpred -bpred 2lev -bpred:2lev 1 1024 10 1 aligned_cache_radixsort1782069958
	sim-bpred -bpred 2lev -bpred:2lev 1 2048 10 1 aligned_cache_radixsort1782069958
	sim-bpred -bpred 2lev -bpred:2lev 1 4096 10 1 aligned_cache_radixsort1782069958
