Fri Jul 29 19:38:13 2005
Run as: "./do_simple -c random.org8 -o 8 aligned_memory_tuned_radixsort"
-------------------------------------------------------------------------------------------------
sim-cache                                     4096 |         4096 |         4096 |         4096 |         8192 |         8192 |         8192 |         8192 |        16384 |        16384 |        16384 |        16384 |        32768 |        32768 |        32768 |        32768 |        65536 |        65536 |        65536 |        65536 |       131072 |       131072 |       131072 |       131072 |       262144 |       262144 |       262144 |       262144 |       524288 |       524288 |       524288 |       524288 |      1048576 |      1048576 |      1048576 |      1048576 |      2097152 |      2097152 |      2097152 |      2097152 |      4194304 |      4194304 |      4194304 |      4194304 |
-cache:dl1 dl1:256:32:1:l -cache:dl2 dl2:131072:32:1:l -cache:il1 il1:256:32:1:l -cache:il2 dl2
-cache:dl1 dl1:256:32:1:l -cache:dl2 dl2:65536:32:1:l -cache:il1 il1:256:32:1:l -cache:il2 dl2
-cache:dl1 dl1:1:32:256:l -cache:dl2 dl2:1:32:131072:l -cache:il1 il1:1:32:256:l -cache:il2 dl2
-cache:dl1 dl1:1:32:256:l -cache:dl2 dl2:1:32:65536:l -cache:il1 il1:1:32:256:l -cache:il2 dl2
-------------------------------------------------------------------------------------------------
sim_num_insn                                378847 |       378847 |       378847 |       378847 |       744419 |       744419 |       744419 |       744419 |      1475557 |      1475557 |      1475557 |      1475557 |      2937830 |      2937830 |      2937830 |      2937830 |      5862374 |      5862374 |      5862374 |      5862374 |     11711463 |     11711463 |     11711463 |     11711463 |     23409639 |     23409639 |     23409639 |     23409639 |     46818467 |     46818467 |     46818467 |     46818467 |     93611171 |     93611171 |     93611171 |     93611171 |    187205803 |    187205803 |    187205803 |    187205803 |    374395059 |    374395059 |    374395059 |    374395059 |
sim_num_refs                                138963 |       138963 |       138963 |       138963 |       270035 |       270035 |       270035 |       270035 |       532179 |       532179 |       532179 |       532179 |      1056467 |      1056467 |      1056467 |      1056467 |      2105043 |      2105043 |      2105043 |      2105043 |      4202195 |      4202195 |      4202195 |      4202195 |      8396499 |      8396499 |      8396499 |      8396499 |     16794369 |     16794369 |     16794369 |     16794369 |     33571585 |     33571585 |     33571585 |     33571585 |     67132161 |     67132161 |     67132161 |     67132161 |    134253313 |    134253313 |    134253313 |    134253313 |
sim_elapsed_time                                 1 |            1 |           10 |            5 |            1 |            1 |           15 |            8 |            1 |            1 |           26 |           13 |            1 |            1 |           47 |           23 |            2 |            2 |           86 |           41 |            4 |            4 |          156 |           70 |            8 |            7 |          267 |           94 |           15 |           15 |          358 |          102 |           31 |           30 |          374 |          119 |           61 |           61 |          410 |          153 |          122 |          122 |          478 |          223 |
sim_inst_rate                          378847.0000 |  378847.0000 |   37884.7000 |   75769.4000 |  744419.0000 |  744419.0000 |   49627.9333 |   93052.3750 | 1475557.0000 | 1475557.0000 |   56752.1923 |  113504.3846 | 2937830.0000 | 2937830.0000 |   62507.0213 |  127731.7391 | 2931187.0000 | 2931187.0000 |   68167.1395 |  142984.7317 | 2927865.7500 | 2927865.7500 |   75073.4808 |  167306.6143 | 2926204.8750 | 3344234.1429 |   87676.5506 |  249038.7128 | 3121231.1333 | 3121231.1333 |  130777.8408 |  459004.5784 | 3019715.1935 | 3120372.3667 |  250297.2487 |  786648.4958 | 3068947.5902 | 3068947.5902 |  456599.5195 | 1223567.3399 | 3068811.9590 | 3068811.9590 |  783253.2615 | 1678901.6099 |
il1.accesses                                378847 |       378847 |       378847 |       378847 |       744419 |       744419 |       744419 |       744419 |      1475557 |      1475557 |      1475557 |      1475557 |      2937830 |      2937830 |      2937830 |      2937830 |      5862374 |      5862374 |      5862374 |      5862374 |     11711463 |     11711463 |     11711463 |     11711463 |     23409639 |     23409639 |     23409639 |     23409639 |     46818467 |     46818467 |     46818467 |     46818467 |     93611171 |     93611171 |     93611171 |     93611171 |    187205803 |    187205803 |    187205803 |    187205803 |    374395059 |    374395059 |    374395059 |    374395059 |
il1.hits                                    378317 |       378317 |       378414 |       378414 |       743888 |       743888 |       743986 |       743986 |      1475017 |      1475017 |      1475123 |      1475123 |      2937295 |      2937295 |      2937394 |      2937394 |      5861839 |      5861839 |      5861938 |      5861938 |     11710928 |     11710928 |     11711027 |     11711027 |     23409104 |     23409104 |     23409203 |     23409203 |     46817889 |     46817889 |     46817996 |     46817996 |     93610593 |     93610593 |     93610700 |     93610700 |    187205225 |    187205225 |    187205332 |    187205332 |    374394481 |    374394481 |    374394588 |    374394588 |
il1.misses                                     530 |          530 |          433 |          433 |          531 |          531 |          433 |          433 |          540 |          540 |          434 |          434 |          535 |          535 |          436 |          436 |          535 |          535 |          436 |          436 |          535 |          535 |          436 |          436 |          535 |          535 |          436 |          436 |          578 |          578 |          471 |          471 |          578 |          578 |          471 |          471 |          578 |          578 |          471 |          471 |          578 |          578 |          471 |          471 |
il1.replacements                               311 |          311 |          177 |          177 |          313 |          313 |          177 |          177 |          318 |          318 |          178 |          178 |          318 |          318 |          180 |          180 |          318 |          318 |          180 |          180 |          318 |          318 |          180 |          180 |          318 |          318 |          180 |          180 |          350 |          350 |          215 |          215 |          350 |          350 |          215 |          215 |          350 |          350 |          215 |          215 |          350 |          350 |          215 |          215 |
il1.writebacks                                   0 |            0 |            0 |            0 |            0 |            0 |            0 |            0 |            0 |            0 |            0 |            0 |            0 |            0 |            0 |            0 |            0 |            0 |            0 |            0 |            0 |            0 |            0 |            0 |            0 |            0 |            0 |            0 |            0 |            0 |            0 |            0 |            0 |            0 |            0 |            0 |            0 |            0 |            0 |            0 |            0 |            0 |            0 |            0 |
il1.invalidations                                0 |            0 |            0 |            0 |            0 |            0 |            0 |            0 |            0 |            0 |            0 |            0 |            0 |            0 |            0 |            0 |            0 |            0 |            0 |            0 |            0 |            0 |            0 |            0 |            0 |            0 |            0 |            0 |            0 |            0 |            0 |            0 |            0 |            0 |            0 |            0 |            0 |            0 |            0 |            0 |            0 |            0 |            0 |            0 |
il1.miss_rate                               0.0014 |       0.0014 |       0.0011 |       0.0011 |       0.0007 |       0.0007 |       0.0006 |       0.0006 |       0.0004 |       0.0004 |       0.0003 |       0.0003 |       0.0002 |       0.0002 |       0.0001 |       0.0001 |       0.0001 |       0.0001 |       0.0001 |       0.0001 |       0.0000 |       0.0000 |       0.0000 |       0.0000 |       0.0000 |       0.0000 |       0.0000 |       0.0000 |       0.0000 |       0.0000 |       0.0000 |       0.0000 |       0.0000 |       0.0000 |       0.0000 |       0.0000 |       0.0000 |       0.0000 |       0.0000 |       0.0000 |       0.0000 |       0.0000 |       0.0000 |       0.0000 |
il1.repl_rate                               0.0008 |       0.0008 |       0.0005 |       0.0005 |       0.0004 |       0.0004 |       0.0002 |       0.0002 |       0.0002 |       0.0002 |       0.0001 |       0.0001 |       0.0001 |       0.0001 |       0.0001 |       0.0001 |       0.0001 |       0.0001 |       0.0000 |       0.0000 |       0.0000 |       0.0000 |       0.0000 |       0.0000 |       0.0000 |       0.0000 |       0.0000 |       0.0000 |       0.0000 |       0.0000 |       0.0000 |       0.0000 |       0.0000 |       0.0000 |       0.0000 |       0.0000 |       0.0000 |       0.0000 |       0.0000 |       0.0000 |       0.0000 |       0.0000 |       0.0000 |       0.0000 |
il1.wb_rate                                 0.0000 |       0.0000 |       0.0000 |       0.0000 |       0.0000 |       0.0000 |       0.0000 |       0.0000 |       0.0000 |       0.0000 |       0.0000 |       0.0000 |       0.0000 |       0.0000 |       0.0000 |       0.0000 |       0.0000 |       0.0000 |       0.0000 |       0.0000 |       0.0000 |       0.0000 |       0.0000 |       0.0000 |       0.0000 |       0.0000 |       0.0000 |       0.0000 |       0.0000 |       0.0000 |       0.0000 |       0.0000 |       0.0000 |       0.0000 |       0.0000 |       0.0000 |       0.0000 |       0.0000 |       0.0000 |       0.0000 |       0.0000 |       0.0000 |       0.0000 |       0.0000 |
il1.inv_rate                                0.0000 |       0.0000 |       0.0000 |       0.0000 |       0.0000 |       0.0000 |       0.0000 |       0.0000 |       0.0000 |       0.0000 |       0.0000 |       0.0000 |       0.0000 |       0.0000 |       0.0000 |       0.0000 |       0.0000 |       0.0000 |       0.0000 |       0.0000 |       0.0000 |       0.0000 |       0.0000 |       0.0000 |       0.0000 |       0.0000 |       0.0000 |       0.0000 |       0.0000 |       0.0000 |       0.0000 |       0.0000 |       0.0000 |       0.0000 |       0.0000 |       0.0000 |       0.0000 |       0.0000 |       0.0000 |       0.0000 |       0.0000 |       0.0000 |       0.0000 |       0.0000 |
dl1.accesses                                155429 |       155429 |       155429 |       155429 |       302885 |       302885 |       302885 |       302885 |       597797 |       597797 |       597797 |       597797 |      1187621 |      1187621 |      1187621 |      1187621 |      2367269 |      2367269 |      2367269 |      2367269 |      4726565 |      4726565 |      4726565 |      4726565 |      9445157 |      9445157 |      9445157 |      9445157 |     18891603 |     18891603 |     18891603 |     18891603 |     37765971 |     37765971 |     37765971 |     37765971 |     75520851 |     75520851 |     75520851 |     75520851 |    151030611 |    151030611 |    151030611 |    151030611 |
dl1.hits                                    139063 |       139063 |       144082 |       144082 |       269728 |       269728 |       280798 |       280798 |       530907 |       530907 |       554298 |       554298 |      1053816 |      1053816 |      1101247 |      1101247 |      2095598 |      2095598 |      2195084 |      2195084 |      4174311 |      4174311 |      4383563 |      4383563 |      8247955 |      8247955 |      8758908 |      8758908 |     16417938 |     16417938 |     17518417 |     17518417 |     32991501 |     32991501 |     35021996 |     35021996 |     66391103 |     66391103 |     70037582 |     70037582 |    133527764 |    133527764 |    140066720 |    140066720 |
dl1.misses                                   16366 |        16366 |        11347 |        11347 |        33157 |        33157 |        22087 |        22087 |        66890 |        66890 |        43499 |        43499 |       133805 |       133805 |        86374 |        86374 |       271671 |       271671 |       172185 |       172185 |       552254 |       552254 |       343002 |       343002 |      1197202 |      1197202 |       686249 |       686249 |      2473665 |      2473665 |      1373186 |      1373186 |      4774470 |      4774470 |      2743975 |      2743975 |      9129748 |      9129748 |      5483269 |      5483269 |     17502847 |     17502847 |     10963891 |     10963891 |
dl1.replacements                             16110 |        16110 |        11091 |        11091 |        32901 |        32901 |        21831 |        21831 |        66634 |        66634 |        43243 |        43243 |       133549 |       133549 |        86118 |        86118 |       271415 |       271415 |       171929 |       171929 |       551998 |       551998 |       342746 |       342746 |      1196946 |      1196946 |       685993 |       685993 |      2473409 |      2473409 |      1372930 |      1372930 |      4774214 |      4774214 |      2743719 |      2743719 |      9129492 |      9129492 |      5483013 |      5483013 |     17502591 |     17502591 |     10963635 |     10963635 |
dl1.writebacks                               13483 |        13483 |         8564 |         8564 |        27488 |        27488 |        16740 |        16740 |        55735 |        55735 |        33023 |        33023 |       111662 |       111662 |        65657 |        65657 |       227614 |       227614 |       130982 |       130982 |       464307 |       464307 |       260839 |       260839 |      1021570 |      1021570 |       522167 |       522167 |      2122109 |      2122109 |      1044877 |      1044877 |      4071995 |      4071995 |      2087985 |      2087985 |      7724631 |      7724631 |      4171919 |      4171919 |     14694662 |     14694662 |      8341823 |      8341823 |
dl1.invalidations                                0 |            0 |            0 |            0 |            0 |            0 |            0 |            0 |            0 |            0 |            0 |            0 |            0 |            0 |            0 |            0 |            0 |            0 |            0 |            0 |            0 |            0 |            0 |            0 |            0 |            0 |            0 |            0 |            0 |            0 |            0 |            0 |            0 |            0 |            0 |            0 |            0 |            0 |            0 |            0 |            0 |            0 |            0 |            0 |
dl1.miss_rate                               0.1053 |       0.1053 |       0.0730 |       0.0730 |       0.1095 |       0.1095 |       0.0729 |       0.0729 |       0.1119 |       0.1119 |       0.0728 |       0.0728 |       0.1127 |       0.1127 |       0.0727 |       0.0727 |       0.1148 |       0.1148 |       0.0727 |       0.0727 |       0.1168 |       0.1168 |       0.0726 |       0.0726 |       0.1268 |       0.1268 |       0.0727 |       0.0727 |       0.1309 |       0.1309 |       0.0727 |       0.0727 |       0.1264 |       0.1264 |       0.0727 |       0.0727 |       0.1209 |       0.1209 |       0.0726 |       0.0726 |       0.1159 |       0.1159 |       0.0726 |       0.0726 |
dl1.repl_rate                               0.1036 |       0.1036 |       0.0714 |       0.0714 |       0.1086 |       0.1086 |       0.0721 |       0.0721 |       0.1115 |       0.1115 |       0.0723 |       0.0723 |       0.1125 |       0.1125 |       0.0725 |       0.0725 |       0.1147 |       0.1147 |       0.0726 |       0.0726 |       0.1168 |       0.1168 |       0.0725 |       0.0725 |       0.1267 |       0.1267 |       0.0726 |       0.0726 |       0.1309 |       0.1309 |       0.0727 |       0.0727 |       0.1264 |       0.1264 |       0.0727 |       0.0727 |       0.1209 |       0.1209 |       0.0726 |       0.0726 |       0.1159 |       0.1159 |       0.0726 |       0.0726 |
dl1.wb_rate                                 0.0867 |       0.0867 |       0.0551 |       0.0551 |       0.0908 |       0.0908 |       0.0553 |       0.0553 |       0.0932 |       0.0932 |       0.0552 |       0.0552 |       0.0940 |       0.0940 |       0.0553 |       0.0553 |       0.0962 |       0.0962 |       0.0553 |       0.0553 |       0.0982 |       0.0982 |       0.0552 |       0.0552 |       0.1082 |       0.1082 |       0.0553 |       0.0553 |       0.1123 |       0.1123 |       0.0553 |       0.0553 |       0.1078 |       0.1078 |       0.0553 |       0.0553 |       0.1023 |       0.1023 |       0.0552 |       0.0552 |       0.0973 |       0.0973 |       0.0552 |       0.0552 |
dl1.inv_rate                                0.0000 |       0.0000 |       0.0000 |       0.0000 |       0.0000 |       0.0000 |       0.0000 |       0.0000 |       0.0000 |       0.0000 |       0.0000 |       0.0000 |       0.0000 |       0.0000 |       0.0000 |       0.0000 |       0.0000 |       0.0000 |       0.0000 |       0.0000 |       0.0000 |       0.0000 |       0.0000 |       0.0000 |       0.0000 |       0.0000 |       0.0000 |       0.0000 |       0.0000 |       0.0000 |       0.0000 |       0.0000 |       0.0000 |       0.0000 |       0.0000 |       0.0000 |       0.0000 |       0.0000 |       0.0000 |       0.0000 |       0.0000 |       0.0000 |       0.0000 |       0.0000 |
dl2.accesses                                 30379 |        30379 |        20344 |        20344 |        61176 |        61176 |        39260 |        39260 |       123165 |       123165 |        76956 |        76956 |       246002 |       246002 |       152467 |       152467 |       499820 |       499820 |       303603 |       303603 |      1017096 |      1017096 |       604277 |       604277 |      2219307 |      2219307 |      1208852 |      1208852 |      4596352 |      4596352 |      2418534 |      2418534 |      8847043 |      8847043 |      4832431 |      4832431 |     16854957 |     16854957 |      9655659 |      9655659 |     32198087 |     32198087 |     19306185 |     19306185 |
dl2.hits                                     28462 |        28462 |        18444 |        18444 |        58234 |        58234 |        36336 |        36336 |       118174 |       118174 |        71982 |        71982 |       236910 |       236910 |       143397 |       143397 |       482536 |       482536 |       286341 |       286341 |       983428 |       983428 |       570631 |       570631 |      2152871 |      2151887 |      1142438 |      1140065 |      4304685 |      4111270 |      2282866 |      1820203 |      7898175 |      7545394 |      3638744 |      3545512 |     14274588 |     14164379 |      7083843 |      7043179 |     26889470 |     26708876 |     14083178 |     14063986 |
dl2.misses                                    1917 |         1917 |         1900 |         1900 |         2942 |         2942 |         2924 |         2924 |         4991 |         4991 |         4974 |         4974 |         9092 |         9092 |         9070 |         9070 |        17284 |        17284 |        17262 |        17262 |        33668 |        33668 |        33646 |        33646 |        66436 |        67420 |        66414 |        68787 |       291667 |       485082 |       135668 |       598331 |       948868 |      1301649 |      1193687 |      1286919 |      2580369 |      2690578 |      2571816 |      2612480 |      5308617 |      5489211 |      5223007 |      5242199 |
dl2.replacements                               130 |          130 |            0 |            0 |          129 |          129 |            0 |            0 |          128 |          128 |            0 |            0 |          133 |          133 |            0 |            0 |          133 |          133 |            0 |            0 |          133 |          133 |            0 |            0 |          133 |         1941 |            0 |         3251 |       191854 |       419546 |         4596 |       532795 |       817796 |      1236113 |      1062615 |      1221383 |      2449297 |      2625042 |      2440744 |      2546944 |      5177545 |      5423675 |      5091935 |      5176663 |
dl2.writebacks                                  66 |           66 |            0 |            0 |           64 |           64 |            0 |            0 |           64 |           64 |            0 |            0 |           64 |           64 |            0 |            0 |           64 |           64 |            0 |            0 |           64 |           64 |            0 |            0 |           64 |         1172 |            0 |         3013 |       158125 |       301202 |         4287 |       297023 |       596189 |       659308 |       591925 |       624743 |      1297560 |      1383265 |      1248060 |      1280915 |      2697187 |      2860949 |      2560379 |      2593318 |
dl2.invalidations                                0 |            0 |            0 |            0 |            0 |            0 |            0 |            0 |            0 |            0 |            0 |            0 |            0 |            0 |            0 |            0 |            0 |            0 |            0 |            0 |            0 |            0 |            0 |            0 |            0 |            0 |            0 |            0 |            0 |            0 |            0 |            0 |            0 |            0 |            0 |            0 |            0 |            0 |            0 |            0 |            0 |            0 |            0 |            0 |
dl2.miss_rate                               0.0631 |       0.0631 |       0.0934 |       0.0934 |       0.0481 |       0.0481 |       0.0745 |       0.0745 |       0.0405 |       0.0405 |       0.0646 |       0.0646 |       0.0370 |       0.0370 |       0.0595 |       0.0595 |       0.0346 |       0.0346 |       0.0569 |       0.0569 |       0.0331 |       0.0331 |       0.0557 |       0.0557 |       0.0299 |       0.0304 |       0.0549 |       0.0569 |       0.0635 |       0.1055 |       0.0561 |       0.2474 |       0.1073 |       0.1471 |       0.2470 |       0.2663 |       0.1531 |       0.1596 |       0.2664 |       0.2706 |       0.1649 |       0.1705 |       0.2705 |       0.2715 |
dl2.repl_rate                               0.0043 |       0.0043 |       0.0000 |       0.0000 |       0.0021 |       0.0021 |       0.0000 |       0.0000 |       0.0010 |       0.0010 |       0.0000 |       0.0000 |       0.0005 |       0.0005 |       0.0000 |       0.0000 |       0.0003 |       0.0003 |       0.0000 |       0.0000 |       0.0001 |       0.0001 |       0.0000 |       0.0000 |       0.0001 |       0.0009 |       0.0000 |       0.0027 |       0.0417 |       0.0913 |       0.0019 |       0.2203 |       0.0924 |       0.1397 |       0.2199 |       0.2527 |       0.1453 |       0.1557 |       0.2528 |       0.2638 |       0.1608 |       0.1684 |       0.2637 |       0.2681 |
dl2.wb_rate                                 0.0022 |       0.0022 |       0.0000 |       0.0000 |       0.0010 |       0.0010 |       0.0000 |       0.0000 |       0.0005 |       0.0005 |       0.0000 |       0.0000 |       0.0003 |       0.0003 |       0.0000 |       0.0000 |       0.0001 |       0.0001 |       0.0000 |       0.0000 |       0.0001 |       0.0001 |       0.0000 |       0.0000 |       0.0000 |       0.0005 |       0.0000 |       0.0025 |       0.0344 |       0.0655 |       0.0018 |       0.1228 |       0.0674 |       0.0745 |       0.1225 |       0.1293 |       0.0770 |       0.0821 |       0.1293 |       0.1327 |       0.0838 |       0.0889 |       0.1326 |       0.1343 |
dl2.inv_rate                                0.0000 |       0.0000 |       0.0000 |       0.0000 |       0.0000 |       0.0000 |       0.0000 |       0.0000 |       0.0000 |       0.0000 |       0.0000 |       0.0000 |       0.0000 |       0.0000 |       0.0000 |       0.0000 |       0.0000 |       0.0000 |       0.0000 |       0.0000 |       0.0000 |       0.0000 |       0.0000 |       0.0000 |       0.0000 |       0.0000 |       0.0000 |       0.0000 |       0.0000 |       0.0000 |       0.0000 |       0.0000 |       0.0000 |       0.0000 |       0.0000 |       0.0000 |       0.0000 |       0.0000 |       0.0000 |       0.0000 |       0.0000 |       0.0000 |       0.0000 |       0.0000 |
itlb.accesses                               378847 |       378847 |       378847 |       378847 |       744419 |       744419 |       744419 |       744419 |      1475557 |      1475557 |      1475557 |      1475557 |      2937830 |      2937830 |      2937830 |      2937830 |      5862374 |      5862374 |      5862374 |      5862374 |     11711463 |     11711463 |     11711463 |     11711463 |     23409639 |     23409639 |     23409639 |     23409639 |     46818467 |     46818467 |     46818467 |     46818467 |     93611171 |     93611171 |     93611171 |     93611171 |    187205803 |    187205803 |    187205803 |    187205803 |    374395059 |    374395059 |    374395059 |    374395059 |
itlb.hits                                   378838 |       378838 |       378838 |       378838 |       744410 |       744410 |       744410 |       744410 |      1475548 |      1475548 |      1475548 |      1475548 |      2937821 |      2937821 |      2937821 |      2937821 |      5862365 |      5862365 |      5862365 |      5862365 |     11711454 |     11711454 |     11711454 |     11711454 |     23409630 |     23409630 |     23409630 |     23409630 |     46818458 |     46818458 |     46818458 |     46818458 |     93611162 |     93611162 |     93611162 |     93611162 |    187205794 |    187205794 |    187205794 |    187205794 |    374395050 |    374395050 |    374395050 |    374395050 |
itlb.misses                                      9 |            9 |            9 |            9 |            9 |            9 |            9 |            9 |            9 |            9 |            9 |            9 |            9 |            9 |            9 |            9 |            9 |            9 |            9 |            9 |            9 |            9 |            9 |            9 |            9 |            9 |            9 |            9 |            9 |            9 |            9 |            9 |            9 |            9 |            9 |            9 |            9 |            9 |            9 |            9 |            9 |            9 |            9 |            9 |
itlb.replacements                                0 |            0 |            0 |            0 |            0 |            0 |            0 |            0 |            0 |            0 |            0 |            0 |            0 |            0 |            0 |            0 |            0 |            0 |            0 |            0 |            0 |            0 |            0 |            0 |            0 |            0 |            0 |            0 |            0 |            0 |            0 |            0 |            0 |            0 |            0 |            0 |            0 |            0 |            0 |            0 |            0 |            0 |            0 |            0 |
itlb.writebacks                                  0 |            0 |            0 |            0 |            0 |            0 |            0 |            0 |            0 |            0 |            0 |            0 |            0 |            0 |            0 |            0 |            0 |            0 |            0 |            0 |            0 |            0 |            0 |            0 |            0 |            0 |            0 |            0 |            0 |            0 |            0 |            0 |            0 |            0 |            0 |            0 |            0 |            0 |            0 |            0 |            0 |            0 |            0 |            0 |
itlb.invalidations                               0 |            0 |            0 |            0 |            0 |            0 |            0 |            0 |            0 |            0 |            0 |            0 |            0 |            0 |            0 |            0 |            0 |            0 |            0 |            0 |            0 |            0 |            0 |            0 |            0 |            0 |            0 |            0 |            0 |            0 |            0 |            0 |            0 |            0 |            0 |            0 |            0 |            0 |            0 |            0 |            0 |            0 |            0 |            0 |
itlb.miss_rate                              0.0000 |       0.0000 |       0.0000 |       0.0000 |       0.0000 |       0.0000 |       0.0000 |       0.0000 |       0.0000 |       0.0000 |       0.0000 |       0.0000 |       0.0000 |       0.0000 |       0.0000 |       0.0000 |       0.0000 |       0.0000 |       0.0000 |       0.0000 |       0.0000 |       0.0000 |       0.0000 |       0.0000 |       0.0000 |       0.0000 |       0.0000 |       0.0000 |       0.0000 |       0.0000 |       0.0000 |       0.0000 |       0.0000 |       0.0000 |       0.0000 |       0.0000 |       0.0000 |       0.0000 |       0.0000 |       0.0000 |       0.0000 |       0.0000 |       0.0000 |       0.0000 |
itlb.repl_rate                              0.0000 |       0.0000 |       0.0000 |       0.0000 |       0.0000 |       0.0000 |       0.0000 |       0.0000 |       0.0000 |       0.0000 |       0.0000 |       0.0000 |       0.0000 |       0.0000 |       0.0000 |       0.0000 |       0.0000 |       0.0000 |       0.0000 |       0.0000 |       0.0000 |       0.0000 |       0.0000 |       0.0000 |       0.0000 |       0.0000 |       0.0000 |       0.0000 |       0.0000 |       0.0000 |       0.0000 |       0.0000 |       0.0000 |       0.0000 |       0.0000 |       0.0000 |       0.0000 |       0.0000 |       0.0000 |       0.0000 |       0.0000 |       0.0000 |       0.0000 |       0.0000 |
itlb.wb_rate                                0.0000 |       0.0000 |       0.0000 |       0.0000 |       0.0000 |       0.0000 |       0.0000 |       0.0000 |       0.0000 |       0.0000 |       0.0000 |       0.0000 |       0.0000 |       0.0000 |       0.0000 |       0.0000 |       0.0000 |       0.0000 |       0.0000 |       0.0000 |       0.0000 |       0.0000 |       0.0000 |       0.0000 |       0.0000 |       0.0000 |       0.0000 |       0.0000 |       0.0000 |       0.0000 |       0.0000 |       0.0000 |       0.0000 |       0.0000 |       0.0000 |       0.0000 |       0.0000 |       0.0000 |       0.0000 |       0.0000 |       0.0000 |       0.0000 |       0.0000 |       0.0000 |
itlb.inv_rate                               0.0000 |       0.0000 |       0.0000 |       0.0000 |       0.0000 |       0.0000 |       0.0000 |       0.0000 |       0.0000 |       0.0000 |       0.0000 |       0.0000 |       0.0000 |       0.0000 |       0.0000 |       0.0000 |       0.0000 |       0.0000 |       0.0000 |       0.0000 |       0.0000 |       0.0000 |       0.0000 |       0.0000 |       0.0000 |       0.0000 |       0.0000 |       0.0000 |       0.0000 |       0.0000 |       0.0000 |       0.0000 |       0.0000 |       0.0000 |       0.0000 |       0.0000 |       0.0000 |       0.0000 |       0.0000 |       0.0000 |       0.0000 |       0.0000 |       0.0000 |       0.0000 |
dtlb.accesses                               155429 |       155429 |       155429 |       155429 |       302885 |       302885 |       302885 |       302885 |       597797 |       597797 |       597797 |       597797 |      1187621 |      1187621 |      1187621 |      1187621 |      2367269 |      2367269 |      2367269 |      2367269 |      4726565 |      4726565 |      4726565 |      4726565 |      9445157 |      9445157 |      9445157 |      9445157 |     18891603 |     18891603 |     18891603 |     18891603 |     37765971 |     37765971 |     37765971 |     37765971 |     75520851 |     75520851 |     75520851 |     75520851 |    151030611 |    151030611 |    151030611 |    151030611 |
dtlb.hits                                   155413 |       155413 |       155413 |       155413 |       302861 |       302861 |       302861 |       302861 |       597757 |       597757 |       597757 |       597757 |      1187549 |      1187549 |      1187549 |      1187549 |      2367109 |      2367109 |      2367109 |      2367109 |      4716133 |      4716133 |      4716133 |      4716133 |      8918867 |      8918867 |      8918867 |      8918867 |     17517060 |     17517060 |     17517060 |     17517060 |     34453159 |     34453159 |     34453159 |     34453159 |     68283858 |     68283858 |     68283858 |     68283858 |    135799729 |    135799729 |    135799729 |    135799729 |
dtlb.misses                                     16 |           16 |           16 |           16 |           24 |           24 |           24 |           24 |           40 |           40 |           40 |           40 |           72 |           72 |           72 |           72 |          160 |          160 |          160 |          160 |        10432 |        10432 |        10432 |        10432 |       526290 |       526290 |       526290 |       526290 |      1374543 |      1374543 |      1374543 |      1374543 |      3312812 |      3312812 |      3312812 |      3312812 |      7236993 |      7236993 |      7236993 |      7236993 |     15230882 |     15230882 |     15230882 |     15230882 |
dtlb.replacements                                0 |            0 |            0 |            0 |            0 |            0 |            0 |            0 |            0 |            0 |            0 |            0 |            0 |            0 |            0 |            0 |           32 |           32 |           32 |           32 |        10304 |        10304 |        10304 |        10304 |       526162 |       526162 |       526162 |       526162 |      1374415 |      1374415 |      1374415 |      1374415 |      3312684 |      3312684 |      3312684 |      3312684 |      7236865 |      7236865 |      7236865 |      7236865 |     15230754 |     15230754 |     15230754 |     15230754 |
dtlb.writebacks                                  0 |            0 |            0 |            0 |            0 |            0 |            0 |            0 |            0 |            0 |            0 |            0 |            0 |            0 |            0 |            0 |           25 |           25 |           25 |           25 |         9773 |         9773 |         9773 |         9773 |       524879 |       524879 |       524879 |       524879 |      1371890 |      1371890 |      1371890 |      1371890 |      3307638 |      3307638 |      3307638 |      3307638 |      7226707 |      7226707 |      7226707 |      7226707 |     15210368 |     15210368 |     15210368 |     15210368 |
dtlb.invalidations                               0 |            0 |            0 |            0 |            0 |            0 |            0 |            0 |            0 |            0 |            0 |            0 |            0 |            0 |            0 |            0 |            0 |            0 |            0 |            0 |            0 |            0 |            0 |            0 |            0 |            0 |            0 |            0 |            0 |            0 |            0 |            0 |            0 |            0 |            0 |            0 |            0 |            0 |            0 |            0 |            0 |            0 |            0 |            0 |
dtlb.miss_rate                              0.0001 |       0.0001 |       0.0001 |       0.0001 |       0.0001 |       0.0001 |       0.0001 |       0.0001 |       0.0001 |       0.0001 |       0.0001 |       0.0001 |       0.0001 |       0.0001 |       0.0001 |       0.0001 |       0.0001 |       0.0001 |       0.0001 |       0.0001 |       0.0022 |       0.0022 |       0.0022 |       0.0022 |       0.0557 |       0.0557 |       0.0557 |       0.0557 |       0.0728 |       0.0728 |       0.0728 |       0.0728 |       0.0877 |       0.0877 |       0.0877 |       0.0877 |       0.0958 |       0.0958 |       0.0958 |       0.0958 |       0.1008 |       0.1008 |       0.1008 |       0.1008 |
dtlb.repl_rate                              0.0000 |       0.0000 |       0.0000 |       0.0000 |       0.0000 |       0.0000 |       0.0000 |       0.0000 |       0.0000 |       0.0000 |       0.0000 |       0.0000 |       0.0000 |       0.0000 |       0.0000 |       0.0000 |       0.0000 |       0.0000 |       0.0000 |       0.0000 |       0.0022 |       0.0022 |       0.0022 |       0.0022 |       0.0557 |       0.0557 |       0.0557 |       0.0557 |       0.0728 |       0.0728 |       0.0728 |       0.0728 |       0.0877 |       0.0877 |       0.0877 |       0.0877 |       0.0958 |       0.0958 |       0.0958 |       0.0958 |       0.1008 |       0.1008 |       0.1008 |       0.1008 |
dtlb.wb_rate                                0.0000 |       0.0000 |       0.0000 |       0.0000 |       0.0000 |       0.0000 |       0.0000 |       0.0000 |       0.0000 |       0.0000 |       0.0000 |       0.0000 |       0.0000 |       0.0000 |       0.0000 |       0.0000 |       0.0000 |       0.0000 |       0.0000 |       0.0000 |       0.0021 |       0.0021 |       0.0021 |       0.0021 |       0.0556 |       0.0556 |       0.0556 |       0.0556 |       0.0726 |       0.0726 |       0.0726 |       0.0726 |       0.0876 |       0.0876 |       0.0876 |       0.0876 |       0.0957 |       0.0957 |       0.0957 |       0.0957 |       0.1007 |       0.1007 |       0.1007 |       0.1007 |
dtlb.inv_rate                               0.0000 |       0.0000 |       0.0000 |       0.0000 |       0.0000 |       0.0000 |       0.0000 |       0.0000 |       0.0000 |       0.0000 |       0.0000 |       0.0000 |       0.0000 |       0.0000 |       0.0000 |       0.0000 |       0.0000 |       0.0000 |       0.0000 |       0.0000 |       0.0000 |       0.0000 |       0.0000 |       0.0000 |       0.0000 |       0.0000 |       0.0000 |       0.0000 |       0.0000 |       0.0000 |       0.0000 |       0.0000 |       0.0000 |       0.0000 |       0.0000 |       0.0000 |       0.0000 |       0.0000 |       0.0000 |       0.0000 |       0.0000 |       0.0000 |       0.0000 |       0.0000 |
ld_text_base                            0x00400000 |   0x00400000 |   0x00400000 |   0x00400000 |   0x00400000 |   0x00400000 |   0x00400000 |   0x00400000 |   0x00400000 |   0x00400000 |   0x00400000 |   0x00400000 |   0x00400000 |   0x00400000 |   0x00400000 |   0x00400000 |   0x00400000 |   0x00400000 |   0x00400000 |   0x00400000 |   0x00400000 |   0x00400000 |   0x00400000 |   0x00400000 |   0x00400000 |   0x00400000 |   0x00400000 |   0x00400000 |   0x00400000 |   0x00400000 |   0x00400000 |   0x00400000 |   0x00400000 |   0x00400000 |   0x00400000 |   0x00400000 |   0x00400000 |   0x00400000 |   0x00400000 |   0x00400000 |   0x00400000 |   0x00400000 |   0x00400000 |   0x00400000 |
ld_text_size                                 74416 |        74416 |        74416 |        74416 |        74448 |        74448 |        74448 |        74448 |        74464 |        74464 |        74464 |        74464 |        74480 |        74480 |        74480 |        74480 |        74480 |        74480 |        74480 |        74480 |        74480 |        74480 |        74480 |        74480 |        74480 |        74480 |        74480 |        74480 |        74480 |        74480 |        74480 |        74480 |        74480 |        74480 |        74480 |        74480 |        74480 |        74480 |        74480 |        74480 |        74480 |        74480 |        74480 |        74480 |
ld_data_base                            0x10000000 |   0x10000000 |   0x10000000 |   0x10000000 |   0x10000000 |   0x10000000 |   0x10000000 |   0x10000000 |   0x10000000 |   0x10000000 |   0x10000000 |   0x10000000 |   0x10000000 |   0x10000000 |   0x10000000 |   0x10000000 |   0x10000000 |   0x10000000 |   0x10000000 |   0x10000000 |   0x10000000 |   0x10000000 |   0x10000000 |   0x10000000 |   0x10000000 |   0x10000000 |   0x10000000 |   0x10000000 |   0x10000000 |   0x10000000 |   0x10000000 |   0x10000000 |   0x10000000 |   0x10000000 |   0x10000000 |   0x10000000 |   0x10000000 |   0x10000000 |   0x10000000 |   0x10000000 |   0x10000000 |   0x10000000 |   0x10000000 |   0x10000000 |
ld_data_size                                  8192 |         8192 |         8192 |         8192 |         8192 |         8192 |         8192 |         8192 |         8192 |         8192 |         8192 |         8192 |         8192 |         8192 |         8192 |         8192 |         8192 |         8192 |         8192 |         8192 |         8192 |         8192 |         8192 |         8192 |         8192 |         8192 |         8192 |         8192 |         8192 |         8192 |         8192 |         8192 |         8192 |         8192 |         8192 |         8192 |         8192 |         8192 |         8192 |         8192 |         8192 |         8192 |         8192 |         8192 |
ld_stack_base                           0x7fffc000 |   0x7fffc000 |   0x7fffc000 |   0x7fffc000 |   0x7fffc000 |   0x7fffc000 |   0x7fffc000 |   0x7fffc000 |   0x7fffc000 |   0x7fffc000 |   0x7fffc000 |   0x7fffc000 |   0x7fffc000 |   0x7fffc000 |   0x7fffc000 |   0x7fffc000 |   0x7fffc000 |   0x7fffc000 |   0x7fffc000 |   0x7fffc000 |   0x7fffc000 |   0x7fffc000 |   0x7fffc000 |   0x7fffc000 |   0x7fffc000 |   0x7fffc000 |   0x7fffc000 |   0x7fffc000 |   0x7fffc000 |   0x7fffc000 |   0x7fffc000 |   0x7fffc000 |   0x7fffc000 |   0x7fffc000 |   0x7fffc000 |   0x7fffc000 |   0x7fffc000 |   0x7fffc000 |   0x7fffc000 |   0x7fffc000 |   0x7fffc000 |   0x7fffc000 |   0x7fffc000 |   0x7fffc000 |
ld_stack_size                                16384 |        16384 |        16384 |        16384 |        16384 |        16384 |        16384 |        16384 |        16384 |        16384 |        16384 |        16384 |        16384 |        16384 |        16384 |        16384 |        16384 |        16384 |        16384 |        16384 |        16384 |        16384 |        16384 |        16384 |        16384 |        16384 |        16384 |        16384 |        16384 |        16384 |        16384 |        16384 |        16384 |        16384 |        16384 |        16384 |        16384 |        16384 |        16384 |        16384 |        16384 |        16384 |        16384 |        16384 |
ld_prog_entry                           0x00400140 |   0x00400140 |   0x00400140 |   0x00400140 |   0x00400140 |   0x00400140 |   0x00400140 |   0x00400140 |   0x00400140 |   0x00400140 |   0x00400140 |   0x00400140 |   0x00400140 |   0x00400140 |   0x00400140 |   0x00400140 |   0x00400140 |   0x00400140 |   0x00400140 |   0x00400140 |   0x00400140 |   0x00400140 |   0x00400140 |   0x00400140 |   0x00400140 |   0x00400140 |   0x00400140 |   0x00400140 |   0x00400140 |   0x00400140 |   0x00400140 |   0x00400140 |   0x00400140 |   0x00400140 |   0x00400140 |   0x00400140 |   0x00400140 |   0x00400140 |   0x00400140 |   0x00400140 |   0x00400140 |   0x00400140 |   0x00400140 |   0x00400140 |
ld_environ_base                         0x7fff8000 |   0x7fff8000 |   0x7fff8000 |   0x7fff8000 |   0x7fff8000 |   0x7fff8000 |   0x7fff8000 |   0x7fff8000 |   0x7fff8000 |   0x7fff8000 |   0x7fff8000 |   0x7fff8000 |   0x7fff8000 |   0x7fff8000 |   0x7fff8000 |   0x7fff8000 |   0x7fff8000 |   0x7fff8000 |   0x7fff8000 |   0x7fff8000 |   0x7fff8000 |   0x7fff8000 |   0x7fff8000 |   0x7fff8000 |   0x7fff8000 |   0x7fff8000 |   0x7fff8000 |   0x7fff8000 |   0x7fff8000 |   0x7fff8000 |   0x7fff8000 |   0x7fff8000 |   0x7fff8000 |   0x7fff8000 |   0x7fff8000 |   0x7fff8000 |   0x7fff8000 |   0x7fff8000 |   0x7fff8000 |   0x7fff8000 |   0x7fff8000 |   0x7fff8000 |   0x7fff8000 |   0x7fff8000 |
ld_target_big_endian                             0 |            0 |            0 |            0 |            0 |            0 |            0 |            0 |            0 |            0 |            0 |            0 |            0 |            0 |            0 |            0 |            0 |            0 |            0 |            0 |            0 |            0 |            0 |            0 |            0 |            0 |            0 |            0 |            0 |            0 |            0 |            0 |            0 |            0 |            0 |            0 |            0 |            0 |            0 |            0 |            0 |            0 |            0 |            0 |
mem.page_count                                  35 |           35 |           35 |           35 |           43 |           43 |           43 |           43 |           59 |           59 |           59 |           59 |           91 |           91 |           91 |           91 |          155 |          155 |          155 |          155 |          283 |          283 |          283 |          283 |          539 |          539 |          539 |          539 |         1057 |         1057 |         1057 |         1057 |         2081 |         2081 |         2081 |         2081 |         4135 |         4135 |         4135 |         4135 |         8243 |         8243 |         8243 |         8243 |
mem.page_mem                                  140k |         140k |         140k |         140k |         172k |         172k |         172k |         172k |         236k |         236k |         236k |         236k |         364k |         364k |         364k |         364k |         620k |         620k |         620k |         620k |        1132k |        1132k |        1132k |        1132k |        2156k |        2156k |        2156k |        2156k |        4228k |        4228k |        4228k |        4228k |        8324k |        8324k |        8324k |        8324k |       16540k |       16540k |       16540k |       16540k |       32972k |       32972k |       32972k |       32972k |
mem.ptab_misses                                 35 |           35 |           35 |           35 |           43 |           43 |           43 |           43 |           59 |           59 |           59 |           59 |           91 |           91 |           91 |           91 |          155 |          155 |          155 |          155 |          283 |          283 |          283 |          283 |          539 |          539 |          539 |          539 |         1060 |         1060 |         1060 |         1060 |        16424 |        16424 |        16424 |        16424 |        18478 |        18478 |        18478 |        18478 |        22586 |        22586 |        22586 |        22586 |
mem.ptab_accesses                          2287336 |      2287336 |      2287336 |      2287336 |      4044728 |      4044728 |      4044728 |      4044728 |      7559200 |      7559200 |      7559200 |      7559200 |     14588036 |     14588036 |     14588036 |     14588036 |     28645508 |     28645508 |     28645508 |     28645508 |     56760456 |     56760456 |     56760456 |     56760456 |    112990344 |    112990344 |    112990344 |    112990344 |    225518548 |    225518548 |    225518548 |    225518548 |    450438100 |    450438100 |    450438100 |    450438100 |    900326388 |    900326388 |    900326388 |    900326388 |   1800102932 |   1800102932 |   1800102932 |   1800102932 |
mem.ptab_miss_rate                          0.0000 |       0.0000 |       0.0000 |       0.0000 |       0.0000 |       0.0000 |       0.0000 |       0.0000 |       0.0000 |       0.0000 |       0.0000 |       0.0000 |       0.0000 |       0.0000 |       0.0000 |       0.0000 |       0.0000 |       0.0000 |       0.0000 |       0.0000 |       0.0000 |       0.0000 |       0.0000 |       0.0000 |       0.0000 |       0.0000 |       0.0000 |       0.0000 |       0.0000 |       0.0000 |       0.0000 |       0.0000 |       0.0000 |       0.0000 |       0.0000 |       0.0000 |       0.0000 |       0.0000 |       0.0000 |       0.0000 |       0.0000 |       0.0000 |       0.0000 |       0.0000 |
-------------------------------------------------------------------------------------------------
sim-bpred                                     4096 |         4096 |         4096 |         4096 |         4096 |         4096 |         4096 |         8192 |         8192 |         8192 |         8192 |         8192 |         8192 |         8192 |        16384 |        16384 |        16384 |        16384 |        16384 |        16384 |        16384 |        32768 |        32768 |        32768 |        32768 |        32768 |        32768 |        32768 |        65536 |        65536 |        65536 |        65536 |        65536 |        65536 |        65536 |       131072 |       131072 |       131072 |       131072 |       131072 |       131072 |       131072 |       262144 |       262144 |       262144 |       262144 |       262144 |       262144 |       262144 |       524288 |       524288 |       524288 |       524288 |       524288 |       524288 |       524288 |      1048576 |      1048576 |      1048576 |      1048576 |      1048576 |      1048576 |      1048576 |      2097152 |      2097152 |      2097152 |      2097152 |      2097152 |      2097152 |      2097152 |      4194304 |      4194304 |      4194304 |      4194304 |      4194304 |      4194304 |      4194304 |
-bpred bimod -bpred:bimod 512
-bpred bimod -bpred:bimod 1024
-bpred bimod -bpred:bimod 2048
-bpred 2lev -bpred:2lev 1 512 10 1
-bpred 2lev -bpred:2lev 1 1024 10 1
-bpred 2lev -bpred:2lev 1 2048 10 1
-bpred 2lev -bpred:2lev 1 4096 10 1
-------------------------------------------------------------------------------------------------
sim_num_insn                                378847 |       378847 |       378847 |       378847 |       378847 |       378847 |       378847 |       744419 |       744419 |       744419 |       744419 |       744419 |       744419 |       744419 |      1475557 |      1475557 |      1475557 |      1475557 |      1475557 |      1475557 |      1475557 |      2937830 |      2937830 |      2937830 |      2937830 |      2937830 |      2937830 |      2937830 |      5862374 |      5862374 |      5862374 |      5862374 |      5862374 |      5862374 |      5862374 |     11711463 |     11711463 |     11711463 |     11711463 |     11711463 |     11711463 |     11711463 |     23409639 |     23409639 |     23409639 |     23409639 |     23409639 |     23409639 |     23409639 |     46818467 |     46818467 |     46818467 |     46818467 |     46818467 |     46818467 |     46818467 |     93611171 |     93611171 |     93611171 |     93611171 |     93611171 |     93611171 |     93611171 |    187205803 |    187205803 |    187205803 |    187205803 |    187205803 |    187205803 |    187205803 |    374395059 |    374395059 |    374395059 |    374395059 |    374395059 |    374395059 |    374395059 |
sim_num_refs                                138963 |       138963 |       138963 |       138963 |       138963 |       138963 |       138963 |       270035 |       270035 |       270035 |       270035 |       270035 |       270035 |       270035 |       532179 |       532179 |       532179 |       532179 |       532179 |       532179 |       532179 |      1056467 |      1056467 |      1056467 |      1056467 |      1056467 |      1056467 |      1056467 |      2105043 |      2105043 |      2105043 |      2105043 |      2105043 |      2105043 |      2105043 |      4202195 |      4202195 |      4202195 |      4202195 |      4202195 |      4202195 |      4202195 |      8396499 |      8396499 |      8396499 |      8396499 |      8396499 |      8396499 |      8396499 |     16794369 |     16794369 |     16794369 |     16794369 |     16794369 |     16794369 |     16794369 |     33571585 |     33571585 |     33571585 |     33571585 |     33571585 |     33571585 |     33571585 |     67132161 |     67132161 |     67132161 |     67132161 |     67132161 |     67132161 |     67132161 |    134253313 |    134253313 |    134253313 |    134253313 |    134253313 |    134253313 |    134253313 |
sim_elapsed_time                                 1 |            1 |            1 |            1 |            1 |            1 |            1 |            1 |            1 |            1 |            1 |            1 |            1 |            1 |            1 |            1 |            1 |            1 |            1 |            1 |            1 |            1 |            1 |            1 |            1 |            1 |            1 |            1 |            1 |            1 |            1 |            1 |            1 |            1 |            1 |            1 |            1 |            1 |            1 |            2 |            1 |            1 |            3 |            2 |            2 |            2 |            2 |            2 |            2 |            5 |            4 |            5 |            4 |            5 |            4 |            5 |            9 |            9 |            9 |            9 |           10 |            9 |            9 |           19 |           18 |           18 |           19 |           18 |           18 |           19 |           36 |           37 |           36 |           37 |           37 |           37 |           37 |
sim_inst_rate                          378847.0000 |  378847.0000 |  378847.0000 |  378847.0000 |  378847.0000 |  378847.0000 |  378847.0000 |  744419.0000 |  744419.0000 |  744419.0000 |  744419.0000 |  744419.0000 |  744419.0000 |  744419.0000 | 1475557.0000 | 1475557.0000 | 1475557.0000 | 1475557.0000 | 1475557.0000 | 1475557.0000 | 1475557.0000 | 2937830.0000 | 2937830.0000 | 2937830.0000 | 2937830.0000 | 2937830.0000 | 2937830.0000 | 2937830.0000 | 5862374.0000 | 5862374.0000 | 5862374.0000 | 5862374.0000 | 5862374.0000 | 5862374.0000 | 5862374.0000 |11711463.0000 |11711463.0000 |11711463.0000 |11711463.0000 | 5855731.5000 |11711463.0000 |11711463.0000 | 7803213.0000 |11704819.5000 |11704819.5000 |11704819.5000 |11704819.5000 |11704819.5000 |11704819.5000 | 9363693.4000 |11704616.7500 | 9363693.4000 |11704616.7500 | 9363693.4000 |11704616.7500 | 9363693.4000 |10401241.2222 |10401241.2222 |10401241.2222 |10401241.2222 | 9361117.1000 |10401241.2222 |10401241.2222 | 9852937.0000 |10400322.3889 |10400322.3889 | 9852937.0000 |10400322.3889 |10400322.3889 | 9852937.0000 |10399862.7500 |10118785.3784 |10399862.7500 |10118785.3784 |10118785.3784 |10118785.3784 |10118785.3784 |
sim_num_branches                              9290 |         9290 |         9290 |         9290 |         9290 |         9290 |         9290 |        17482 |        17482 |        17482 |        17482 |        17482 |        17482 |        17482 |        33866 |        33866 |        33866 |        33866 |        33866 |        33866 |        33866 |        66634 |        66634 |        66634 |        66634 |        66634 |        66634 |        66634 |       132170 |       132170 |       132170 |       132170 |       132170 |       132170 |       132170 |       263242 |       263242 |       263242 |       263242 |       263242 |       263242 |       263242 |       525386 |       525386 |       525386 |       525386 |       525386 |       525386 |       525386 |      1050467 |      1050467 |      1050467 |      1050467 |      1050467 |      1050467 |      1050467 |      2099043 |      2099043 |      2099043 |      2099043 |      2099043 |      2099043 |      2099043 |      4196966 |      4196966 |      4196966 |      4196966 |      4196966 |      4196966 |      4196966 |      8392809 |      8392809 |      8392809 |      8392809 |      8392809 |      8392809 |      8392809 |
sim_IPB                                    40.7801 |      40.7801 |      40.7801 |      40.7801 |      40.7801 |      40.7801 |      40.7801 |      42.5820 |      42.5820 |      42.5820 |      42.5820 |      42.5820 |      42.5820 |      42.5820 |      43.5705 |      43.5705 |      43.5705 |      43.5705 |      43.5705 |      43.5705 |      43.5705 |      44.0891 |      44.0891 |      44.0891 |      44.0891 |      44.0891 |      44.0891 |      44.0891 |      44.3548 |      44.3548 |      44.3548 |      44.3548 |      44.3548 |      44.3548 |      44.3548 |      44.4893 |      44.4893 |      44.4893 |      44.4893 |      44.4893 |      44.4893 |      44.4893 |      44.5570 |      44.5570 |      44.5570 |      44.5570 |      44.5570 |      44.5570 |      44.5570 |      44.5692 |      44.5692 |      44.5692 |      44.5692 |      44.5692 |      44.5692 |      44.5692 |      44.5971 |      44.5971 |      44.5971 |      44.5971 |      44.5971 |      44.5971 |      44.5971 |      44.6050 |      44.6050 |      44.6050 |      44.6050 |      44.6050 |      44.6050 |      44.6050 |      44.6090 |      44.6090 |      44.6090 |      44.6090 |      44.6090 |      44.6090 |      44.6090 |
bpred_bimod.lookups                           9290 |         9290 |         9290 |xxxxxxxxxxxxx |xxxxxxxxxxxxx |xxxxxxxxxxxxx |xxxxxxxxxxxxx |        17482 |        17482 |        17482 |xxxxxxxxxxxxx |xxxxxxxxxxxxx |xxxxxxxxxxxxx |xxxxxxxxxxxxx |        33866 |        33866 |        33866 |xxxxxxxxxxxxx |xxxxxxxxxxxxx |xxxxxxxxxxxxx |xxxxxxxxxxxxx |        66634 |        66634 |        66634 |xxxxxxxxxxxxx |xxxxxxxxxxxxx |xxxxxxxxxxxxx |xxxxxxxxxxxxx |       132170 |       132170 |       132170 |xxxxxxxxxxxxx |xxxxxxxxxxxxx |xxxxxxxxxxxxx |xxxxxxxxxxxxx |       263242 |       263242 |       263242 |xxxxxxxxxxxxx |xxxxxxxxxxxxx |xxxxxxxxxxxxx |xxxxxxxxxxxxx |       525386 |       525386 |       525386 |xxxxxxxxxxxxx |xxxxxxxxxxxxx |xxxxxxxxxxxxx |xxxxxxxxxxxxx |      1050467 |      1050467 |      1050467 |xxxxxxxxxxxxx |xxxxxxxxxxxxx |xxxxxxxxxxxxx |xxxxxxxxxxxxx |      2099043 |      2099043 |      2099043 |xxxxxxxxxxxxx |xxxxxxxxxxxxx |xxxxxxxxxxxxx |xxxxxxxxxxxxx |      4196966 |      4196966 |      4196966 |xxxxxxxxxxxxx |xxxxxxxxxxxxx |xxxxxxxxxxxxx |xxxxxxxxxxxxx |      8392809 |      8392809 |      8392809 |
bpred_bimod.updates                           9290 |         9290 |         9290 |xxxxxxxxxxxxx |xxxxxxxxxxxxx |xxxxxxxxxxxxx |xxxxxxxxxxxxx |        17482 |        17482 |        17482 |xxxxxxxxxxxxx |xxxxxxxxxxxxx |xxxxxxxxxxxxx |xxxxxxxxxxxxx |        33866 |        33866 |        33866 |xxxxxxxxxxxxx |xxxxxxxxxxxxx |xxxxxxxxxxxxx |xxxxxxxxxxxxx |        66634 |        66634 |        66634 |xxxxxxxxxxxxx |xxxxxxxxxxxxx |xxxxxxxxxxxxx |xxxxxxxxxxxxx |       132170 |       132170 |       132170 |xxxxxxxxxxxxx |xxxxxxxxxxxxx |xxxxxxxxxxxxx |xxxxxxxxxxxxx |       263242 |       263242 |       263242 |xxxxxxxxxxxxx |xxxxxxxxxxxxx |xxxxxxxxxxxxx |xxxxxxxxxxxxx |       525386 |       525386 |       525386 |xxxxxxxxxxxxx |xxxxxxxxxxxxx |xxxxxxxxxxxxx |xxxxxxxxxxxxx |      1050467 |      1050467 |      1050467 |xxxxxxxxxxxxx |xxxxxxxxxxxxx |xxxxxxxxxxxxx |xxxxxxxxxxxxx |      2099043 |      2099043 |      2099043 |xxxxxxxxxxxxx |xxxxxxxxxxxxx |xxxxxxxxxxxxx |xxxxxxxxxxxxx |      4196966 |      4196966 |      4196966 |xxxxxxxxxxxxx |xxxxxxxxxxxxx |xxxxxxxxxxxxx |xxxxxxxxxxxxx |      8392809 |      8392809 |      8392809 |
bpred_bimod.addr_hits                         9075 |         9078 |         9079 |xxxxxxxxxxxxx |xxxxxxxxxxxxx |xxxxxxxxxxxxx |xxxxxxxxxxxxx |        17266 |        17270 |        17271 |xxxxxxxxxxxxx |xxxxxxxxxxxxx |xxxxxxxxxxxxx |xxxxxxxxxxxxx |        33653 |        33655 |        33656 |xxxxxxxxxxxxx |xxxxxxxxxxxxx |xxxxxxxxxxxxx |xxxxxxxxxxxxx |        66420 |        66423 |        66424 |xxxxxxxxxxxxx |xxxxxxxxxxxxx |xxxxxxxxxxxxx |xxxxxxxxxxxxx |       131956 |       131959 |       131960 |xxxxxxxxxxxxx |xxxxxxxxxxxxx |xxxxxxxxxxxxx |xxxxxxxxxxxxx |       263028 |       263031 |       263032 |xxxxxxxxxxxxx |xxxxxxxxxxxxx |xxxxxxxxxxxxx |xxxxxxxxxxxxx |       525172 |       525175 |       525176 |xxxxxxxxxxxxx |xxxxxxxxxxxxx |xxxxxxxxxxxxx |xxxxxxxxxxxxx |      1050227 |      1050230 |      1050230 |xxxxxxxxxxxxx |xxxxxxxxxxxxx |xxxxxxxxxxxxx |xxxxxxxxxxxxx |      2098803 |      2098806 |      2098806 |xxxxxxxxxxxxx |xxxxxxxxxxxxx |xxxxxxxxxxxxx |xxxxxxxxxxxxx |      4196726 |      4196729 |      4196729 |xxxxxxxxxxxxx |xxxxxxxxxxxxx |xxxxxxxxxxxxx |xxxxxxxxxxxxx |      8392569 |      8392572 |      8392572 |
bpred_bimod.dir_hits                          9184 |         9183 |         9184 |xxxxxxxxxxxxx |xxxxxxxxxxxxx |xxxxxxxxxxxxx |xxxxxxxxxxxxx |        17371 |        17376 |        17376 |xxxxxxxxxxxxx |xxxxxxxxxxxxx |xxxxxxxxxxxxx |xxxxxxxxxxxxx |        33760 |        33760 |        33761 |xxxxxxxxxxxxx |xxxxxxxxxxxxx |xxxxxxxxxxxxx |xxxxxxxxxxxxx |        66525 |        66526 |        66528 |xxxxxxxxxxxxx |xxxxxxxxxxxxx |xxxxxxxxxxxxx |xxxxxxxxxxxxx |       132061 |       132062 |       132064 |xxxxxxxxxxxxx |xxxxxxxxxxxxx |xxxxxxxxxxxxx |xxxxxxxxxxxxx |       263134 |       263135 |       263137 |xxxxxxxxxxxxx |xxxxxxxxxxxxx |xxxxxxxxxxxxx |xxxxxxxxxxxxx |       525278 |       525279 |       525281 |xxxxxxxxxxxxx |xxxxxxxxxxxxx |xxxxxxxxxxxxx |xxxxxxxxxxxxx |      1050344 |      1050345 |      1050346 |xxxxxxxxxxxxx |xxxxxxxxxxxxx |xxxxxxxxxxxxx |xxxxxxxxxxxxx |      2098920 |      2098921 |      2098922 |xxxxxxxxxxxxx |xxxxxxxxxxxxx |xxxxxxxxxxxxx |xxxxxxxxxxxxx |      4196843 |      4196844 |      4196845 |xxxxxxxxxxxxx |xxxxxxxxxxxxx |xxxxxxxxxxxxx |xxxxxxxxxxxxx |      8392686 |      8392687 |      8392688 |
bpred_bimod.misses                             106 |          107 |          106 |xxxxxxxxxxxxx |xxxxxxxxxxxxx |xxxxxxxxxxxxx |xxxxxxxxxxxxx |          111 |          106 |          106 |xxxxxxxxxxxxx |xxxxxxxxxxxxx |xxxxxxxxxxxxx |xxxxxxxxxxxxx |          106 |          106 |          105 |xxxxxxxxxxxxx |xxxxxxxxxxxxx |xxxxxxxxxxxxx |xxxxxxxxxxxxx |          109 |          108 |          106 |xxxxxxxxxxxxx |xxxxxxxxxxxxx |xxxxxxxxxxxxx |xxxxxxxxxxxxx |          109 |          108 |          106 |xxxxxxxxxxxxx |xxxxxxxxxxxxx |xxxxxxxxxxxxx |xxxxxxxxxxxxx |          108 |          107 |          105 |xxxxxxxxxxxxx |xxxxxxxxxxxxx |xxxxxxxxxxxxx |xxxxxxxxxxxxx |          108 |          107 |          105 |xxxxxxxxxxxxx |xxxxxxxxxxxxx |xxxxxxxxxxxxx |xxxxxxxxxxxxx |          123 |          122 |          121 |xxxxxxxxxxxxx |xxxxxxxxxxxxx |xxxxxxxxxxxxx |xxxxxxxxxxxxx |          123 |          122 |          121 |xxxxxxxxxxxxx |xxxxxxxxxxxxx |xxxxxxxxxxxxx |xxxxxxxxxxxxx |          123 |          122 |          121 |xxxxxxxxxxxxx |xxxxxxxxxxxxx |xxxxxxxxxxxxx |xxxxxxxxxxxxx |          123 |          122 |          121 |
bpred_bimod.jr_hits                             70 |           70 |           70 |xxxxxxxxxxxxx |xxxxxxxxxxxxx |xxxxxxxxxxxxx |xxxxxxxxxxxxx |           70 |           70 |           70 |xxxxxxxxxxxxx |xxxxxxxxxxxxx |xxxxxxxxxxxxx |xxxxxxxxxxxxx |           70 |           70 |           70 |xxxxxxxxxxxxx |xxxxxxxxxxxxx |xxxxxxxxxxxxx |xxxxxxxxxxxxx |           70 |           70 |           70 |xxxxxxxxxxxxx |xxxxxxxxxxxxx |xxxxxxxxxxxxx |xxxxxxxxxxxxx |           70 |           70 |           70 |xxxxxxxxxxxxx |xxxxxxxxxxxxx |xxxxxxxxxxxxx |xxxxxxxxxxxxx |           70 |           70 |           70 |xxxxxxxxxxxxx |xxxxxxxxxxxxx |xxxxxxxxxxxxx |xxxxxxxxxxxxx |           70 |           70 |           70 |xxxxxxxxxxxxx |xxxxxxxxxxxxx |xxxxxxxxxxxxx |xxxxxxxxxxxxx |           73 |           73 |           73 |xxxxxxxxxxxxx |xxxxxxxxxxxxx |xxxxxxxxxxxxx |xxxxxxxxxxxxx |           73 |           73 |           73 |xxxxxxxxxxxxx |xxxxxxxxxxxxx |xxxxxxxxxxxxx |xxxxxxxxxxxxx |           73 |           73 |           73 |xxxxxxxxxxxxx |xxxxxxxxxxxxx |xxxxxxxxxxxxx |xxxxxxxxxxxxx |           73 |           73 |           73 |
bpred_bimod.jr_seen                             71 |           71 |           71 |xxxxxxxxxxxxx |xxxxxxxxxxxxx |xxxxxxxxxxxxx |xxxxxxxxxxxxx |           71 |           71 |           71 |xxxxxxxxxxxxx |xxxxxxxxxxxxx |xxxxxxxxxxxxx |xxxxxxxxxxxxx |           71 |           71 |           71 |xxxxxxxxxxxxx |xxxxxxxxxxxxx |xxxxxxxxxxxxx |xxxxxxxxxxxxx |           71 |           71 |           71 |xxxxxxxxxxxxx |xxxxxxxxxxxxx |xxxxxxxxxxxxx |xxxxxxxxxxxxx |           71 |           71 |           71 |xxxxxxxxxxxxx |xxxxxxxxxxxxx |xxxxxxxxxxxxx |xxxxxxxxxxxxx |           71 |           71 |           71 |xxxxxxxxxxxxx |xxxxxxxxxxxxx |xxxxxxxxxxxxx |xxxxxxxxxxxxx |           71 |           71 |           71 |xxxxxxxxxxxxx |xxxxxxxxxxxxx |xxxxxxxxxxxxx |xxxxxxxxxxxxx |           74 |           74 |           74 |xxxxxxxxxxxxx |xxxxxxxxxxxxx |xxxxxxxxxxxxx |xxxxxxxxxxxxx |           74 |           74 |           74 |xxxxxxxxxxxxx |xxxxxxxxxxxxx |xxxxxxxxxxxxx |xxxxxxxxxxxxx |           74 |           74 |           74 |xxxxxxxxxxxxx |xxxxxxxxxxxxx |xxxxxxxxxxxxx |xxxxxxxxxxxxx |           74 |           74 |           74 |
bpred_bimod.jr_non_ras_hits.PP                   0 |            0 |            0 |xxxxxxxxxxxxx |xxxxxxxxxxxxx |xxxxxxxxxxxxx |xxxxxxxxxxxxx |            0 |            0 |            0 |xxxxxxxxxxxxx |xxxxxxxxxxxxx |xxxxxxxxxxxxx |xxxxxxxxxxxxx |            0 |            0 |            0 |xxxxxxxxxxxxx |xxxxxxxxxxxxx |xxxxxxxxxxxxx |xxxxxxxxxxxxx |            0 |            0 |            0 |xxxxxxxxxxxxx |xxxxxxxxxxxxx |xxxxxxxxxxxxx |xxxxxxxxxxxxx |            0 |            0 |            0 |xxxxxxxxxxxxx |xxxxxxxxxxxxx |xxxxxxxxxxxxx |xxxxxxxxxxxxx |            0 |            0 |            0 |xxxxxxxxxxxxx |xxxxxxxxxxxxx |xxxxxxxxxxxxx |xxxxxxxxxxxxx |            0 |            0 |            0 |xxxxxxxxxxxxx |xxxxxxxxxxxxx |xxxxxxxxxxxxx |xxxxxxxxxxxxx |            0 |            0 |            0 |xxxxxxxxxxxxx |xxxxxxxxxxxxx |xxxxxxxxxxxxx |xxxxxxxxxxxxx |            0 |            0 |            0 |xxxxxxxxxxxxx |xxxxxxxxxxxxx |xxxxxxxxxxxxx |xxxxxxxxxxxxx |            0 |            0 |            0 |xxxxxxxxxxxxx |xxxxxxxxxxxxx |xxxxxxxxxxxxx |xxxxxxxxxxxxx |            0 |            0 |            0 |
bpred_bimod.jr_non_ras_seen.PP                   0 |            0 |            0 |xxxxxxxxxxxxx |xxxxxxxxxxxxx |xxxxxxxxxxxxx |xxxxxxxxxxxxx |            0 |            0 |            0 |xxxxxxxxxxxxx |xxxxxxxxxxxxx |xxxxxxxxxxxxx |xxxxxxxxxxxxx |            0 |            0 |            0 |xxxxxxxxxxxxx |xxxxxxxxxxxxx |xxxxxxxxxxxxx |xxxxxxxxxxxxx |            0 |            0 |            0 |xxxxxxxxxxxxx |xxxxxxxxxxxxx |xxxxxxxxxxxxx |xxxxxxxxxxxxx |            0 |            0 |            0 |xxxxxxxxxxxxx |xxxxxxxxxxxxx |xxxxxxxxxxxxx |xxxxxxxxxxxxx |            0 |            0 |            0 |xxxxxxxxxxxxx |xxxxxxxxxxxxx |xxxxxxxxxxxxx |xxxxxxxxxxxxx |            0 |            0 |            0 |xxxxxxxxxxxxx |xxxxxxxxxxxxx |xxxxxxxxxxxxx |xxxxxxxxxxxxx |            1 |            1 |            1 |xxxxxxxxxxxxx |xxxxxxxxxxxxx |xxxxxxxxxxxxx |xxxxxxxxxxxxx |            1 |            1 |            1 |xxxxxxxxxxxxx |xxxxxxxxxxxxx |xxxxxxxxxxxxx |xxxxxxxxxxxxx |            1 |            1 |            1 |xxxxxxxxxxxxx |xxxxxxxxxxxxx |xxxxxxxxxxxxx |xxxxxxxxxxxxx |            1 |            1 |            1 |
bpred_bimod.bpred_addr_rate                 0.9769 |       0.9772 |       0.9773 |xxxxxxxxxxxxx |xxxxxxxxxxxxx |xxxxxxxxxxxxx |xxxxxxxxxxxxx |       0.9876 |       0.9879 |       0.9879 |xxxxxxxxxxxxx |xxxxxxxxxxxxx |xxxxxxxxxxxxx |xxxxxxxxxxxxx |       0.9937 |       0.9938 |       0.9938 |xxxxxxxxxxxxx |xxxxxxxxxxxxx |xxxxxxxxxxxxx |xxxxxxxxxxxxx |       0.9968 |       0.9968 |       0.9968 |xxxxxxxxxxxxx |xxxxxxxxxxxxx |xxxxxxxxxxxxx |xxxxxxxxxxxxx |       0.9984 |       0.9984 |       0.9984 |xxxxxxxxxxxxx |xxxxxxxxxxxxx |xxxxxxxxxxxxx |xxxxxxxxxxxxx |       0.9992 |       0.9992 |       0.9992 |xxxxxxxxxxxxx |xxxxxxxxxxxxx |xxxxxxxxxxxxx |xxxxxxxxxxxxx |       0.9996 |       0.9996 |       0.9996 |xxxxxxxxxxxxx |xxxxxxxxxxxxx |xxxxxxxxxxxxx |xxxxxxxxxxxxx |       0.9998 |       0.9998 |       0.9998 |xxxxxxxxxxxxx |xxxxxxxxxxxxx |xxxxxxxxxxxxx |xxxxxxxxxxxxx |       0.9999 |       0.9999 |       0.9999 |xxxxxxxxxxxxx |xxxxxxxxxxxxx |xxxxxxxxxxxxx |xxxxxxxxxxxxx |       0.9999 |       0.9999 |       0.9999 |xxxxxxxxxxxxx |xxxxxxxxxxxxx |xxxxxxxxxxxxx |xxxxxxxxxxxxx |       1.0000 |       1.0000 |       1.0000 |
bpred_bimod.bpred_dir_rate                  0.9886 |       0.9885 |       0.9886 |xxxxxxxxxxxxx |xxxxxxxxxxxxx |xxxxxxxxxxxxx |xxxxxxxxxxxxx |       0.9937 |       0.9939 |       0.9939 |xxxxxxxxxxxxx |xxxxxxxxxxxxx |xxxxxxxxxxxxx |xxxxxxxxxxxxx |       0.9969 |       0.9969 |       0.9969 |xxxxxxxxxxxxx |xxxxxxxxxxxxx |xxxxxxxxxxxxx |xxxxxxxxxxxxx |       0.9984 |       0.9984 |       0.9984 |xxxxxxxxxxxxx |xxxxxxxxxxxxx |xxxxxxxxxxxxx |xxxxxxxxxxxxx |       0.9992 |       0.9992 |       0.9992 |xxxxxxxxxxxxx |xxxxxxxxxxxxx |xxxxxxxxxxxxx |xxxxxxxxxxxxx |       0.9996 |       0.9996 |       0.9996 |xxxxxxxxxxxxx |xxxxxxxxxxxxx |xxxxxxxxxxxxx |xxxxxxxxxxxxx |       0.9998 |       0.9998 |       0.9998 |xxxxxxxxxxxxx |xxxxxxxxxxxxx |xxxxxxxxxxxxx |xxxxxxxxxxxxx |       0.9999 |       0.9999 |       0.9999 |xxxxxxxxxxxxx |xxxxxxxxxxxxx |xxxxxxxxxxxxx |xxxxxxxxxxxxx |       0.9999 |       0.9999 |       0.9999 |xxxxxxxxxxxxx |xxxxxxxxxxxxx |xxxxxxxxxxxxx |xxxxxxxxxxxxx |       1.0000 |       1.0000 |       1.0000 |xxxxxxxxxxxxx |xxxxxxxxxxxxx |xxxxxxxxxxxxx |xxxxxxxxxxxxx |       1.0000 |       1.0000 |       1.0000 |
bpred_bimod.bpred_jr_rate                   0.9859 |       0.9859 |       0.9859 |xxxxxxxxxxxxx |xxxxxxxxxxxxx |xxxxxxxxxxxxx |xxxxxxxxxxxxx |       0.9859 |       0.9859 |       0.9859 |xxxxxxxxxxxxx |xxxxxxxxxxxxx |xxxxxxxxxxxxx |xxxxxxxxxxxxx |       0.9859 |       0.9859 |       0.9859 |xxxxxxxxxxxxx |xxxxxxxxxxxxx |xxxxxxxxxxxxx |xxxxxxxxxxxxx |       0.9859 |       0.9859 |       0.9859 |xxxxxxxxxxxxx |xxxxxxxxxxxxx |xxxxxxxxxxxxx |xxxxxxxxxxxxx |       0.9859 |       0.9859 |       0.9859 |xxxxxxxxxxxxx |xxxxxxxxxxxxx |xxxxxxxxxxxxx |xxxxxxxxxxxxx |       0.9859 |       0.9859 |       0.9859 |xxxxxxxxxxxxx |xxxxxxxxxxxxx |xxxxxxxxxxxxx |xxxxxxxxxxxxx |       0.9859 |       0.9859 |       0.9859 |xxxxxxxxxxxxx |xxxxxxxxxxxxx |xxxxxxxxxxxxx |xxxxxxxxxxxxx |       0.9865 |       0.9865 |       0.9865 |xxxxxxxxxxxxx |xxxxxxxxxxxxx |xxxxxxxxxxxxx |xxxxxxxxxxxxx |       0.9865 |       0.9865 |       0.9865 |xxxxxxxxxxxxx |xxxxxxxxxxxxx |xxxxxxxxxxxxx |xxxxxxxxxxxxx |       0.9865 |       0.9865 |       0.9865 |xxxxxxxxxxxxx |xxxxxxxxxxxxx |xxxxxxxxxxxxx |xxxxxxxxxxxxx |       0.9865 |       0.9865 |       0.9865 |
bpred_bimod.bpred_jr_non_ras_rate.PP       <error: |      <error: |      <error: |xxxxxxxxxxxxx |xxxxxxxxxxxxx |xxxxxxxxxxxxx |xxxxxxxxxxxxx |      <error: |      <error: |      <error: |xxxxxxxxxxxxx |xxxxxxxxxxxxx |xxxxxxxxxxxxx |xxxxxxxxxxxxx |      <error: |      <error: |      <error: |xxxxxxxxxxxxx |xxxxxxxxxxxxx |xxxxxxxxxxxxx |xxxxxxxxxxxxx |      <error: |      <error: |      <error: |xxxxxxxxxxxxx |xxxxxxxxxxxxx |xxxxxxxxxxxxx |xxxxxxxxxxxxx |      <error: |      <error: |      <error: |xxxxxxxxxxxxx |xxxxxxxxxxxxx |xxxxxxxxxxxxx |xxxxxxxxxxxxx |      <error: |      <error: |      <error: |xxxxxxxxxxxxx |xxxxxxxxxxxxx |xxxxxxxxxxxxx |xxxxxxxxxxxxx |      <error: |      <error: |      <error: |xxxxxxxxxxxxx |xxxxxxxxxxxxx |xxxxxxxxxxxxx |xxxxxxxxxxxxx |       0.0000 |       0.0000 |       0.0000 |xxxxxxxxxxxxx |xxxxxxxxxxxxx |xxxxxxxxxxxxx |xxxxxxxxxxxxx |       0.0000 |       0.0000 |       0.0000 |xxxxxxxxxxxxx |xxxxxxxxxxxxx |xxxxxxxxxxxxx |xxxxxxxxxxxxx |       0.0000 |       0.0000 |       0.0000 |xxxxxxxxxxxxx |xxxxxxxxxxxxx |xxxxxxxxxxxxx |xxxxxxxxxxxxx |       0.0000 |       0.0000 |       0.0000 |
bpred_bimod.retstack_pushes                     73 |           73 |           73 |xxxxxxxxxxxxx |xxxxxxxxxxxxx |xxxxxxxxxxxxx |xxxxxxxxxxxxx |           73 |           73 |           73 |xxxxxxxxxxxxx |xxxxxxxxxxxxx |xxxxxxxxxxxxx |xxxxxxxxxxxxx |           73 |           73 |           73 |xxxxxxxxxxxxx |xxxxxxxxxxxxx |xxxxxxxxxxxxx |xxxxxxxxxxxxx |           73 |           73 |           73 |xxxxxxxxxxxxx |xxxxxxxxxxxxx |xxxxxxxxxxxxx |xxxxxxxxxxxxx |           73 |           73 |           73 |xxxxxxxxxxxxx |xxxxxxxxxxxxx |xxxxxxxxxxxxx |xxxxxxxxxxxxx |           73 |           73 |           73 |xxxxxxxxxxxxx |xxxxxxxxxxxxx |xxxxxxxxxxxxx |xxxxxxxxxxxxx |           73 |           73 |           73 |xxxxxxxxxxxxx |xxxxxxxxxxxxx |xxxxxxxxxxxxx |xxxxxxxxxxxxx |           75 |           75 |           75 |xxxxxxxxxxxxx |xxxxxxxxxxxxx |xxxxxxxxxxxxx |xxxxxxxxxxxxx |           75 |           75 |           75 |xxxxxxxxxxxxx |xxxxxxxxxxxxx |xxxxxxxxxxxxx |xxxxxxxxxxxxx |           75 |           75 |           75 |xxxxxxxxxxxxx |xxxxxxxxxxxxx |xxxxxxxxxxxxx |xxxxxxxxxxxxx |           75 |           75 |           75 |
bpred_bimod.retstack_pops                       71 |           71 |           71 |xxxxxxxxxxxxx |xxxxxxxxxxxxx |xxxxxxxxxxxxx |xxxxxxxxxxxxx |           71 |           71 |           71 |xxxxxxxxxxxxx |xxxxxxxxxxxxx |xxxxxxxxxxxxx |xxxxxxxxxxxxx |           71 |           71 |           71 |xxxxxxxxxxxxx |xxxxxxxxxxxxx |xxxxxxxxxxxxx |xxxxxxxxxxxxx |           71 |           71 |           71 |xxxxxxxxxxxxx |xxxxxxxxxxxxx |xxxxxxxxxxxxx |xxxxxxxxxxxxx |           71 |           71 |           71 |xxxxxxxxxxxxx |xxxxxxxxxxxxx |xxxxxxxxxxxxx |xxxxxxxxxxxxx |           71 |           71 |           71 |xxxxxxxxxxxxx |xxxxxxxxxxxxx |xxxxxxxxxxxxx |xxxxxxxxxxxxx |           71 |           71 |           71 |xxxxxxxxxxxxx |xxxxxxxxxxxxx |xxxxxxxxxxxxx |xxxxxxxxxxxxx |           73 |           73 |           73 |xxxxxxxxxxxxx |xxxxxxxxxxxxx |xxxxxxxxxxxxx |xxxxxxxxxxxxx |           73 |           73 |           73 |xxxxxxxxxxxxx |xxxxxxxxxxxxx |xxxxxxxxxxxxx |xxxxxxxxxxxxx |           73 |           73 |           73 |xxxxxxxxxxxxx |xxxxxxxxxxxxx |xxxxxxxxxxxxx |xxxxxxxxxxxxx |           73 |           73 |           73 |
bpred_bimod.used_ras.PP                         71 |           71 |           71 |xxxxxxxxxxxxx |xxxxxxxxxxxxx |xxxxxxxxxxxxx |xxxxxxxxxxxxx |           71 |           71 |           71 |xxxxxxxxxxxxx |xxxxxxxxxxxxx |xxxxxxxxxxxxx |xxxxxxxxxxxxx |           71 |           71 |           71 |xxxxxxxxxxxxx |xxxxxxxxxxxxx |xxxxxxxxxxxxx |xxxxxxxxxxxxx |           71 |           71 |           71 |xxxxxxxxxxxxx |xxxxxxxxxxxxx |xxxxxxxxxxxxx |xxxxxxxxxxxxx |           71 |           71 |           71 |xxxxxxxxxxxxx |xxxxxxxxxxxxx |xxxxxxxxxxxxx |xxxxxxxxxxxxx |           71 |           71 |           71 |xxxxxxxxxxxxx |xxxxxxxxxxxxx |xxxxxxxxxxxxx |xxxxxxxxxxxxx |           71 |           71 |           71 |xxxxxxxxxxxxx |xxxxxxxxxxxxx |xxxxxxxxxxxxx |xxxxxxxxxxxxx |           73 |           73 |           73 |xxxxxxxxxxxxx |xxxxxxxxxxxxx |xxxxxxxxxxxxx |xxxxxxxxxxxxx |           73 |           73 |           73 |xxxxxxxxxxxxx |xxxxxxxxxxxxx |xxxxxxxxxxxxx |xxxxxxxxxxxxx |           73 |           73 |           73 |xxxxxxxxxxxxx |xxxxxxxxxxxxx |xxxxxxxxxxxxx |xxxxxxxxxxxxx |           73 |           73 |           73 |
bpred_bimod.ras_hits.PP                         70 |           70 |           70 |xxxxxxxxxxxxx |xxxxxxxxxxxxx |xxxxxxxxxxxxx |xxxxxxxxxxxxx |           70 |           70 |           70 |xxxxxxxxxxxxx |xxxxxxxxxxxxx |xxxxxxxxxxxxx |xxxxxxxxxxxxx |           70 |           70 |           70 |xxxxxxxxxxxxx |xxxxxxxxxxxxx |xxxxxxxxxxxxx |xxxxxxxxxxxxx |           70 |           70 |           70 |xxxxxxxxxxxxx |xxxxxxxxxxxxx |xxxxxxxxxxxxx |xxxxxxxxxxxxx |           70 |           70 |           70 |xxxxxxxxxxxxx |xxxxxxxxxxxxx |xxxxxxxxxxxxx |xxxxxxxxxxxxx |           70 |           70 |           70 |xxxxxxxxxxxxx |xxxxxxxxxxxxx |xxxxxxxxxxxxx |xxxxxxxxxxxxx |           70 |           70 |           70 |xxxxxxxxxxxxx |xxxxxxxxxxxxx |xxxxxxxxxxxxx |xxxxxxxxxxxxx |           73 |           73 |           73 |xxxxxxxxxxxxx |xxxxxxxxxxxxx |xxxxxxxxxxxxx |xxxxxxxxxxxxx |           73 |           73 |           73 |xxxxxxxxxxxxx |xxxxxxxxxxxxx |xxxxxxxxxxxxx |xxxxxxxxxxxxx |           73 |           73 |           73 |xxxxxxxxxxxxx |xxxxxxxxxxxxx |xxxxxxxxxxxxx |xxxxxxxxxxxxx |           73 |           73 |           73 |
bpred_bimod.ras_rate.PP                     0.9859 |       0.9859 |       0.9859 |xxxxxxxxxxxxx |xxxxxxxxxxxxx |xxxxxxxxxxxxx |xxxxxxxxxxxxx |       0.9859 |       0.9859 |       0.9859 |xxxxxxxxxxxxx |xxxxxxxxxxxxx |xxxxxxxxxxxxx |xxxxxxxxxxxxx |       0.9859 |       0.9859 |       0.9859 |xxxxxxxxxxxxx |xxxxxxxxxxxxx |xxxxxxxxxxxxx |xxxxxxxxxxxxx |       0.9859 |       0.9859 |       0.9859 |xxxxxxxxxxxxx |xxxxxxxxxxxxx |xxxxxxxxxxxxx |xxxxxxxxxxxxx |       0.9859 |       0.9859 |       0.9859 |xxxxxxxxxxxxx |xxxxxxxxxxxxx |xxxxxxxxxxxxx |xxxxxxxxxxxxx |       0.9859 |       0.9859 |       0.9859 |xxxxxxxxxxxxx |xxxxxxxxxxxxx |xxxxxxxxxxxxx |xxxxxxxxxxxxx |       0.9859 |       0.9859 |       0.9859 |xxxxxxxxxxxxx |xxxxxxxxxxxxx |xxxxxxxxxxxxx |xxxxxxxxxxxxx |       1.0000 |       1.0000 |       1.0000 |xxxxxxxxxxxxx |xxxxxxxxxxxxx |xxxxxxxxxxxxx |xxxxxxxxxxxxx |       1.0000 |       1.0000 |       1.0000 |xxxxxxxxxxxxx |xxxxxxxxxxxxx |xxxxxxxxxxxxx |xxxxxxxxxxxxx |       1.0000 |       1.0000 |       1.0000 |xxxxxxxxxxxxx |xxxxxxxxxxxxx |xxxxxxxxxxxxx |xxxxxxxxxxxxx |       1.0000 |       1.0000 |       1.0000 |
bpred_2lev.lookups                   xxxxxxxxxxxxx |xxxxxxxxxxxxx |xxxxxxxxxxxxx |         9290 |         9290 |         9290 |         9290 |xxxxxxxxxxxxx |xxxxxxxxxxxxx |xxxxxxxxxxxxx |        17482 |        17482 |        17482 |        17482 |xxxxxxxxxxxxx |xxxxxxxxxxxxx |xxxxxxxxxxxxx |        33866 |        33866 |        33866 |        33866 |xxxxxxxxxxxxx |xxxxxxxxxxxxx |xxxxxxxxxxxxx |        66634 |        66634 |        66634 |        66634 |xxxxxxxxxxxxx |xxxxxxxxxxxxx |xxxxxxxxxxxxx |       132170 |       132170 |       132170 |       132170 |xxxxxxxxxxxxx |xxxxxxxxxxxxx |xxxxxxxxxxxxx |       263242 |       263242 |       263242 |       263242 |xxxxxxxxxxxxx |xxxxxxxxxxxxx |xxxxxxxxxxxxx |       525386 |       525386 |       525386 |       525386 |xxxxxxxxxxxxx |xxxxxxxxxxxxx |xxxxxxxxxxxxx |      1050467 |      1050467 |      1050467 |      1050467 |xxxxxxxxxxxxx |xxxxxxxxxxxxx |xxxxxxxxxxxxx |      2099043 |      2099043 |      2099043 |      2099043 |xxxxxxxxxxxxx |xxxxxxxxxxxxx |xxxxxxxxxxxxx |      4196966 |      4196966 |      4196966 |      4196966 |xxxxxxxxxxxxx |xxxxxxxxxxxxx |xxxxxxxxxxxxx |      8392809 |      8392809 |      8392809 |      8392809 |
[...]
bpred_2lev.used_ras.PP               xxxxxxxxxxxxx |xxxxxxxxxxxxx |xxxxxxxxxxxxx |           71 |           71 |           71 |           71 |xxxxxxxxxxxxx |xxxxxxxxxxxxx |xxxxxxxxxxxxx |           71 |           71 |           71 |           71 |xxxxxxxxxxxxx |xxxxxxxxxxxxx |xxxxxxxxxxxxx |           71 |           71 |           71 |           71 |xxxxxxxxxxxxx |xxxxxxxxxxxxx |xxxxxxxxxxxxx |           71 |           71 |           71 |           71 |xxxxxxxxxxxxx |xxxxxxxxxxxxx |xxxxxxxxxxxxx |           71 |           71 |           71 |           71 |xxxxxxxxxxxxx |xxxxxxxxxxxxx |xxxxxxxxxxxxx |           71 |           71 |           71 |           71 |xxxxxxxxxxxxx |xxxxxxxxxxxxx |xxxxxxxxxxxxx |           71 |           71 |           71 |           71 |xxxxxxxxxxxxx |xxxxxxxxxxxxx |xxxxxxxxxxxxx |           73 |           73 |           73 |           73 |xxxxxxxxxxxxx |xxxxxxxxxxxxx |xxxxxxxxxxxxx |           73 |           73 |           73 |           73 |xxxxxxxxxxxxx |xxxxxxxxxxxxx |xxxxxxxxxxxxx |           73 |           73 |           73 |           73 |xxxxxxxxxxxxx |xxxxxxxxxxxxx |xxxxxxxxxxxxx |           73 |           73 |           73 |           73 |
bpred_2lev.ras_hits.PP               xxxxxxxxxxxxx |xxxxxxxxxxxxx |xxxxxxxxxxxxx |           70 |           70 |           70 |           70 |xxxxxxxxxxxxx |xxxxxxxxxxxxx |xxxxxxxxxxxxx |           70 |           70 |           70 |           70 |xxxxxxxxxxxxx |xxxxxxxxxxxxx |xxxxxxxxxxxxx |           70 |           70 |           70 |           70 |xxxxxxxxxxxxx |xxxxxxxxxxxxx |xxxxxxxxxxxxx |           70 |           70 |           70 |           70 |xxxxxxxxxxxxx |xxxxxxxxxxxxx |xxxxxxxxxxxxx |           70 |           70 |           70 |           70 |xxxxxxxxxxxxx |xxxxxxxxxxxxx |xxxxxxxxxxxxx |           70 |           70 |           70 |           70 |xxxxxxxxxxxxx |xxxxxxxxxxxxx |xxxxxxxxxxxxx |           70 |           70 |           70 |           70 |xxxxxxxxxxxxx |xxxxxxxxxxxxx |xxxxxxxxxxxxx |           73 |           73 |           73 |           73 |xxxxxxxxxxxxx |xxxxxxxxxxxxx |xxxxxxxxxxxxx |           73 |           73 |           73 |           73 |xxxxxxxxxxxxx |xxxxxxxxxxxxx |xxxxxxxxxxxxx |           73 |           73 |           73 |           73 |xxxxxxxxxxxxx |xxxxxxxxxxxxx |xxxxxxxxxxxxx |           73 |           73 |           73 |           73 |
bpred_2lev.ras_rate.PP               xxxxxxxxxxxxx |xxxxxxxxxxxxx |xxxxxxxxxxxxx |       0.9859 |       0.9859 |       0.9859 |       0.9859 |xxxxxxxxxxxxx |xxxxxxxxxxxxx |xxxxxxxxxxxxx |       0.9859 |       0.9859 |       0.9859 |       0.9859 |xxxxxxxxxxxxx |xxxxxxxxxxxxx |xxxxxxxxxxxxx |       0.9859 |       0.9859 |       0.9859 |       0.9859 |xxxxxxxxxxxxx |xxxxxxxxxxxxx |xxxxxxxxxxxxx |       0.9859 |       0.9859 |       0.9859 |       0.9859 |xxxxxxxxxxxxx |xxxxxxxxxxxxx |xxxxxxxxxxxxx |       0.9859 |       0.9859 |       0.9859 |       0.9859 |xxxxxxxxxxxxx |xxxxxxxxxxxxx |xxxxxxxxxxxxx |       0.9859 |       0.9859 |       0.9859 |       0.9859 |xxxxxxxxxxxxx |xxxxxxxxxxxxx |xxxxxxxxxxxxx |       0.9859 |       0.9859 |       0.9859 |       0.9859 |xxxxxxxxxxxxx |xxxxxxxxxxxxx |xxxxxxxxxxxxx |       1.0000 |       1.0000 |       1.0000 |       1.0000 |xxxxxxxxxxxxx |xxxxxxxxxxxxx |xxxxxxxxxxxxx |       1.0000 |       1.0000 |       1.0000 |       1.0000 |xxxxxxxxxxxxx |xxxxxxxxxxxxx |xxxxxxxxxxxxx |       1.0000 |       1.0000 |       1.0000 |       1.0000 |xxxxxxxxxxxxx |xxxxxxxxxxxxx |xxxxxxxxxxxxx |       1.0000 |       1.0000 |       1.0000 |       1.0000 |

Command list: 
	sslittle-na-sstrix-gcc -Wall -O3 -funroll-loops -finline-functions  -DRANDOM_SIZE=4096 -DOFFSET=8 -DSORT=aligned_memory_tuned_radixsort sorts/aligned_memory_tuned_radixsort414895743.c simpleMain.c -o aligned_memory_tuned_radixsort962716468
	sim-cache -cache:dl1 dl1:256:32:1:l -cache:dl2 dl2:131072:32:1:l -cache:il1 il1:256:32:1:l -cache:il2 dl2 aligned_memory_tuned_radixsort962716468
	sim-cache -cache:dl1 dl1:256:32:1:l -cache:dl2 dl2:65536:32:1:l -cache:il1 il1:256:32:1:l -cache:il2 dl2 aligned_memory_tuned_radixsort962716468
	sim-cache -cache:dl1 dl1:1:32:256:l -cache:dl2 dl2:1:32:131072:l -cache:il1 il1:1:32:256:l -cache:il2 dl2 aligned_memory_tuned_radixsort962716468
	sim-cache -cache:dl1 dl1:1:32:256:l -cache:dl2 dl2:1:32:65536:l -cache:il1 il1:1:32:256:l -cache:il2 dl2 aligned_memory_tuned_radixsort962716468
	sim-bpred -bpred bimod -bpred:bimod 512 aligned_memory_tuned_radixsort962716468
	sim-bpred -bpred bimod -bpred:bimod 1024 aligned_memory_tuned_radixsort962716468
	sim-bpred -bpred bimod -bpred:bimod 2048 aligned_memory_tuned_radixsort962716468
	sim-bpred -bpred 2lev -bpred:2lev 1 512 10 1 aligned_memory_tuned_radixsort962716468
	sim-bpred -bpred 2lev -bpred:2lev 1 1024 10 1 aligned_memory_tuned_radixsort962716468
	sim-bpred -bpred 2lev -bpred:2lev 1 2048 10 1 aligned_memory_tuned_radixsort962716468
	sim-bpred -bpred 2lev -bpred:2lev 1 4096 10 1 aligned_memory_tuned_radixsort962716468
	sslittle-na-sstrix-gcc -Wall -O3 -funroll-loops -finline-functions  -DRANDOM_SIZE=8192 -DOFFSET=8 -DSORT=aligned_memory_tuned_radixsort sorts/aligned_memory_tuned_radixsort414895743.c simpleMain.c -o aligned_memory_tuned_radixsort962716468
	sim-cache -cache:dl1 dl1:256:32:1:l -cache:dl2 dl2:131072:32:1:l -cache:il1 il1:256:32:1:l -cache:il2 dl2 aligned_memory_tuned_radixsort962716468
	sim-cache -cache:dl1 dl1:256:32:1:l -cache:dl2 dl2:65536:32:1:l -cache:il1 il1:256:32:1:l -cache:il2 dl2 aligned_memory_tuned_radixsort962716468
	sim-cache -cache:dl1 dl1:1:32:256:l -cache:dl2 dl2:1:32:131072:l -cache:il1 il1:1:32:256:l -cache:il2 dl2 aligned_memory_tuned_radixsort962716468
	sim-cache -cache:dl1 dl1:1:32:256:l -cache:dl2 dl2:1:32:65536:l -cache:il1 il1:1:32:256:l -cache:il2 dl2 aligned_memory_tuned_radixsort962716468
	sim-bpred -bpred bimod -bpred:bimod 512 aligned_memory_tuned_radixsort962716468
	sim-bpred -bpred bimod -bpred:bimod 1024 aligned_memory_tuned_radixsort962716468
	sim-bpred -bpred bimod -bpred:bimod 2048 aligned_memory_tuned_radixsort962716468
	sim-bpred -bpred 2lev -bpred:2lev 1 512 10 1 aligned_memory_tuned_radixsort962716468
	sim-bpred -bpred 2lev -bpred:2lev 1 1024 10 1 aligned_memory_tuned_radixsort962716468
	sim-bpred -bpred 2lev -bpred:2lev 1 2048 10 1 aligned_memory_tuned_radixsort962716468
	sim-bpred -bpred 2lev -bpred:2lev 1 4096 10 1 aligned_memory_tuned_radixsort962716468
	sslittle-na-sstrix-gcc -Wall -O3 -funroll-loops -finline-functions  -DRANDOM_SIZE=16384 -DOFFSET=8 -DSORT=aligned_memory_tuned_radixsort sorts/aligned_memory_tuned_radixsort414895743.c simpleMain.c -o aligned_memory_tuned_radixsort962716468
	sim-cache -cache:dl1 dl1:256:32:1:l -cache:dl2 dl2:131072:32:1:l -cache:il1 il1:256:32:1:l -cache:il2 dl2 aligned_memory_tuned_radixsort962716468
	sim-cache -cache:dl1 dl1:256:32:1:l -cache:dl2 dl2:65536:32:1:l -cache:il1 il1:256:32:1:l -cache:il2 dl2 aligned_memory_tuned_radixsort962716468
	sim-cache -cache:dl1 dl1:1:32:256:l -cache:dl2 dl2:1:32:131072:l -cache:il1 il1:1:32:256:l -cache:il2 dl2 aligned_memory_tuned_radixsort962716468
	sim-cache -cache:dl1 dl1:1:32:256:l -cache:dl2 dl2:1:32:65536:l -cache:il1 il1:1:32:256:l -cache:il2 dl2 aligned_memory_tuned_radixsort962716468
	sim-bpred -bpred bimod -bpred:bimod 512 aligned_memory_tuned_radixsort962716468
	sim-bpred -bpred bimod -bpred:bimod 1024 aligned_memory_tuned_radixsort962716468
	sim-bpred -bpred bimod -bpred:bimod 2048 aligned_memory_tuned_radixsort962716468
	sim-bpred -bpred 2lev -bpred:2lev 1 512 10 1 aligned_memory_tuned_radixsort962716468
	sim-bpred -bpred 2lev -bpred:2lev 1 1024 10 1 aligned_memory_tuned_radixsort962716468
	sim-bpred -bpred 2lev -bpred:2lev 1 2048 10 1 aligned_memory_tuned_radixsort962716468
	sim-bpred -bpred 2lev -bpred:2lev 1 4096 10 1 aligned_memory_tuned_radixsort962716468
	sslittle-na-sstrix-gcc -Wall -O3 -funroll-loops -finline-functions  -DRANDOM_SIZE=32768 -DOFFSET=8 -DSORT=aligned_memory_tuned_radixsort sorts/aligned_memory_tuned_radixsort414895743.c simpleMain.c -o aligned_memory_tuned_radixsort962716468
	sim-cache -cache:dl1 dl1:256:32:1:l -cache:dl2 dl2:131072:32:1:l -cache:il1 il1:256:32:1:l -cache:il2 dl2 aligned_memory_tuned_radixsort962716468
	sim-cache -cache:dl1 dl1:256:32:1:l -cache:dl2 dl2:65536:32:1:l -cache:il1 il1:256:32:1:l -cache:il2 dl2 aligned_memory_tuned_radixsort962716468
	sim-cache -cache:dl1 dl1:1:32:256:l -cache:dl2 dl2:1:32:131072:l -cache:il1 il1:1:32:256:l -cache:il2 dl2 aligned_memory_tuned_radixsort962716468
	sim-cache -cache:dl1 dl1:1:32:256:l -cache:dl2 dl2:1:32:65536:l -cache:il1 il1:1:32:256:l -cache:il2 dl2 aligned_memory_tuned_radixsort962716468
	sim-bpred -bpred bimod -bpred:bimod 512 aligned_memory_tuned_radixsort962716468
	sim-bpred -bpred bimod -bpred:bimod 1024 aligned_memory_tuned_radixsort962716468
	sim-bpred -bpred bimod -bpred:bimod 2048 aligned_memory_tuned_radixsort962716468
	sim-bpred -bpred 2lev -bpred:2lev 1 512 10 1 aligned_memory_tuned_radixsort962716468
	sim-bpred -bpred 2lev -bpred:2lev 1 1024 10 1 aligned_memory_tuned_radixsort962716468
	sim-bpred -bpred 2lev -bpred:2lev 1 2048 10 1 aligned_memory_tuned_radixsort962716468
	sim-bpred -bpred 2lev -bpred:2lev 1 4096 10 1 aligned_memory_tuned_radixsort962716468
	sslittle-na-sstrix-gcc -Wall -O3 -funroll-loops -finline-functions  -DRANDOM_SIZE=65536 -DOFFSET=8 -DSORT=aligned_memory_tuned_radixsort sorts/aligned_memory_tuned_radixsort414895743.c simpleMain.c -o aligned_memory_tuned_radixsort962716468
	sim-cache -cache:dl1 dl1:256:32:1:l -cache:dl2 dl2:131072:32:1:l -cache:il1 il1:256:32:1:l -cache:il2 dl2 aligned_memory_tuned_radixsort962716468
	sim-cache -cache:dl1 dl1:256:32:1:l -cache:dl2 dl2:65536:32:1:l -cache:il1 il1:256:32:1:l -cache:il2 dl2 aligned_memory_tuned_radixsort962716468
	sim-cache -cache:dl1 dl1:1:32:256:l -cache:dl2 dl2:1:32:131072:l -cache:il1 il1:1:32:256:l -cache:il2 dl2 aligned_memory_tuned_radixsort962716468
	sim-cache -cache:dl1 dl1:1:32:256:l -cache:dl2 dl2:1:32:65536:l -cache:il1 il1:1:32:256:l -cache:il2 dl2 aligned_memory_tuned_radixsort962716468
	sim-bpred -bpred bimod -bpred:bimod 512 aligned_memory_tuned_radixsort962716468
	sim-bpred -bpred bimod -bpred:bimod 1024 aligned_memory_tuned_radixsort962716468
	sim-bpred -bpred bimod -bpred:bimod 2048 aligned_memory_tuned_radixsort962716468
	sim-bpred -bpred 2lev -bpred:2lev 1 512 10 1 aligned_memory_tuned_radixsort962716468
	sim-bpred -bpred 2lev -bpred:2lev 1 1024 10 1 aligned_memory_tuned_radixsort962716468
	sim-bpred -bpred 2lev -bpred:2lev 1 2048 10 1 aligned_memory_tuned_radixsort962716468
	sim-bpred -bpred 2lev -bpred:2lev 1 4096 10 1 aligned_memory_tuned_radixsort962716468
	sslittle-na-sstrix-gcc -Wall -O3 -funroll-loops -finline-functions  -DRANDOM_SIZE=131072 -DOFFSET=8 -DSORT=aligned_memory_tuned_radixsort sorts/aligned_memory_tuned_radixsort414895743.c simpleMain.c -o aligned_memory_tuned_radixsort962716468
	sim-cache -cache:dl1 dl1:256:32:1:l -cache:dl2 dl2:131072:32:1:l -cache:il1 il1:256:32:1:l -cache:il2 dl2 aligned_memory_tuned_radixsort962716468
	sim-cache -cache:dl1 dl1:256:32:1:l -cache:dl2 dl2:65536:32:1:l -cache:il1 il1:256:32:1:l -cache:il2 dl2 aligned_memory_tuned_radixsort962716468
	sim-cache -cache:dl1 dl1:1:32:256:l -cache:dl2 dl2:1:32:131072:l -cache:il1 il1:1:32:256:l -cache:il2 dl2 aligned_memory_tuned_radixsort962716468
	sim-cache -cache:dl1 dl1:1:32:256:l -cache:dl2 dl2:1:32:65536:l -cache:il1 il1:1:32:256:l -cache:il2 dl2 aligned_memory_tuned_radixsort962716468
	sim-bpred -bpred bimod -bpred:bimod 512 aligned_memory_tuned_radixsort962716468
	sim-bpred -bpred bimod -bpred:bimod 1024 aligned_memory_tuned_radixsort962716468
	sim-bpred -bpred bimod -bpred:bimod 2048 aligned_memory_tuned_radixsort962716468
	sim-bpred -bpred 2lev -bpred:2lev 1 512 10 1 aligned_memory_tuned_radixsort962716468
	sim-bpred -bpred 2lev -bpred:2lev 1 1024 10 1 aligned_memory_tuned_radixsort962716468
	sim-bpred -bpred 2lev -bpred:2lev 1 2048 10 1 aligned_memory_tuned_radixsort962716468
	sim-bpred -bpred 2lev -bpred:2lev 1 4096 10 1 aligned_memory_tuned_radixsort962716468
	sslittle-na-sstrix-gcc -Wall -O3 -funroll-loops -finline-functions  -DRANDOM_SIZE=262144 -DOFFSET=8 -DSORT=aligned_memory_tuned_radixsort sorts/aligned_memory_tuned_radixsort414895743.c simpleMain.c -o aligned_memory_tuned_radixsort962716468
	sim-cache -cache:dl1 dl1:256:32:1:l -cache:dl2 dl2:131072:32:1:l -cache:il1 il1:256:32:1:l -cache:il2 dl2 aligned_memory_tuned_radixsort962716468
	sim-cache -cache:dl1 dl1:256:32:1:l -cache:dl2 dl2:65536:32:1:l -cache:il1 il1:256:32:1:l -cache:il2 dl2 aligned_memory_tuned_radixsort962716468
	sim-cache -cache:dl1 dl1:1:32:256:l -cache:dl2 dl2:1:32:131072:l -cache:il1 il1:1:32:256:l -cache:il2 dl2 aligned_memory_tuned_radixsort962716468
	sim-cache -cache:dl1 dl1:1:32:256:l -cache:dl2 dl2:1:32:65536:l -cache:il1 il1:1:32:256:l -cache:il2 dl2 aligned_memory_tuned_radixsort962716468
	sim-bpred -bpred bimod -bpred:bimod 512 aligned_memory_tuned_radixsort962716468
	sim-bpred -bpred bimod -bpred:bimod 1024 aligned_memory_tuned_radixsort962716468
	sim-bpred -bpred bimod -bpred:bimod 2048 aligned_memory_tuned_radixsort962716468
	sim-bpred -bpred 2lev -bpred:2lev 1 512 10 1 aligned_memory_tuned_radixsort962716468
	sim-bpred -bpred 2lev -bpred:2lev 1 1024 10 1 aligned_memory_tuned_radixsort962716468
	sim-bpred -bpred 2lev -bpred:2lev 1 2048 10 1 aligned_memory_tuned_radixsort962716468
	sim-bpred -bpred 2lev -bpred:2lev 1 4096 10 1 aligned_memory_tuned_radixsort962716468
	sslittle-na-sstrix-gcc -Wall -O3 -funroll-loops -finline-functions  -DRANDOM_SIZE=524288 -DOFFSET=8 -DSORT=aligned_memory_tuned_radixsort sorts/aligned_memory_tuned_radixsort414895743.c simpleMain.c -o aligned_memory_tuned_radixsort962716468
	sim-cache -cache:dl1 dl1:256:32:1:l -cache:dl2 dl2:131072:32:1:l -cache:il1 il1:256:32:1:l -cache:il2 dl2 aligned_memory_tuned_radixsort962716468
	sim-cache -cache:dl1 dl1:256:32:1:l -cache:dl2 dl2:65536:32:1:l -cache:il1 il1:256:32:1:l -cache:il2 dl2 aligned_memory_tuned_radixsort962716468
	sim-cache -cache:dl1 dl1:1:32:256:l -cache:dl2 dl2:1:32:131072:l -cache:il1 il1:1:32:256:l -cache:il2 dl2 aligned_memory_tuned_radixsort962716468
	sim-cache -cache:dl1 dl1:1:32:256:l -cache:dl2 dl2:1:32:65536:l -cache:il1 il1:1:32:256:l -cache:il2 dl2 aligned_memory_tuned_radixsort962716468
	sim-bpred -bpred bimod -bpred:bimod 512 aligned_memory_tuned_radixsort962716468
	sim-bpred -bpred bimod -bpred:bimod 1024 aligned_memory_tuned_radixsort962716468
	sim-bpred -bpred bimod -bpred:bimod 2048 aligned_memory_tuned_radixsort962716468
	sim-bpred -bpred 2lev -bpred:2lev 1 512 10 1 aligned_memory_tuned_radixsort962716468
	sim-bpred -bpred 2lev -bpred:2lev 1 1024 10 1 aligned_memory_tuned_radixsort962716468
	sim-bpred -bpred 2lev -bpred:2lev 1 2048 10 1 aligned_memory_tuned_radixsort962716468
	sim-bpred -bpred 2lev -bpred:2lev 1 4096 10 1 aligned_memory_tuned_radixsort962716468
	sslittle-na-sstrix-gcc -Wall -O3 -funroll-loops -finline-functions  -DRANDOM_SIZE=1048576 -DOFFSET=8 -DSORT=aligned_memory_tuned_radixsort sorts/aligned_memory_tuned_radixsort414895743.c simpleMain.c -o aligned_memory_tuned_radixsort962716468
	sim-cache -cache:dl1 dl1:256:32:1:l -cache:dl2 dl2:131072:32:1:l -cache:il1 il1:256:32:1:l -cache:il2 dl2 aligned_memory_tuned_radixsort962716468
	sim-cache -cache:dl1 dl1:256:32:1:l -cache:dl2 dl2:65536:32:1:l -cache:il1 il1:256:32:1:l -cache:il2 dl2 aligned_memory_tuned_radixsort962716468
	sim-cache -cache:dl1 dl1:1:32:256:l -cache:dl2 dl2:1:32:131072:l -cache:il1 il1:1:32:256:l -cache:il2 dl2 aligned_memory_tuned_radixsort962716468
	sim-cache -cache:dl1 dl1:1:32:256:l -cache:dl2 dl2:1:32:65536:l -cache:il1 il1:1:32:256:l -cache:il2 dl2 aligned_memory_tuned_radixsort962716468
	sim-bpred -bpred bimod -bpred:bimod 512 aligned_memory_tuned_radixsort962716468
	sim-bpred -bpred bimod -bpred:bimod 1024 aligned_memory_tuned_radixsort962716468
	sim-bpred -bpred bimod -bpred:bimod 2048 aligned_memory_tuned_radixsort962716468
	sim-bpred -bpred 2lev -bpred:2lev 1 512 10 1 aligned_memory_tuned_radixsort962716468
	sim-bpred -bpred 2lev -bpred:2lev 1 1024 10 1 aligned_memory_tuned_radixsort962716468
	sim-bpred -bpred 2lev -bpred:2lev 1 2048 10 1 aligned_memory_tuned_radixsort962716468
	sim-bpred -bpred 2lev -bpred:2lev 1 4096 10 1 aligned_memory_tuned_radixsort962716468
	sslittle-na-sstrix-gcc -Wall -O3 -funroll-loops -finline-functions  -DRANDOM_SIZE=2097152 -DOFFSET=8 -DSORT=aligned_memory_tuned_radixsort sorts/aligned_memory_tuned_radixsort414895743.c simpleMain.c -o aligned_memory_tuned_radixsort962716468
	sim-cache -cache:dl1 dl1:256:32:1:l -cache:dl2 dl2:131072:32:1:l -cache:il1 il1:256:32:1:l -cache:il2 dl2 aligned_memory_tuned_radixsort962716468
	sim-cache -cache:dl1 dl1:256:32:1:l -cache:dl2 dl2:65536:32:1:l -cache:il1 il1:256:32:1:l -cache:il2 dl2 aligned_memory_tuned_radixsort962716468
	sim-cache -cache:dl1 dl1:1:32:256:l -cache:dl2 dl2:1:32:131072:l -cache:il1 il1:1:32:256:l -cache:il2 dl2 aligned_memory_tuned_radixsort962716468
	sim-cache -cache:dl1 dl1:1:32:256:l -cache:dl2 dl2:1:32:65536:l -cache:il1 il1:1:32:256:l -cache:il2 dl2 aligned_memory_tuned_radixsort962716468
	sim-bpred -bpred bimod -bpred:bimod 512 aligned_memory_tuned_radixsort962716468
	sim-bpred -bpred bimod -bpred:bimod 1024 aligned_memory_tuned_radixsort962716468
	sim-bpred -bpred bimod -bpred:bimod 2048 aligned_memory_tuned_radixsort962716468
	sim-bpred -bpred 2lev -bpred:2lev 1 512 10 1 aligned_memory_tuned_radixsort962716468
	sim-bpred -bpred 2lev -bpred:2lev 1 1024 10 1 aligned_memory_tuned_radixsort962716468
	sim-bpred -bpred 2lev -bpred:2lev 1 2048 10 1 aligned_memory_tuned_radixsort962716468
	sim-bpred -bpred 2lev -bpred:2lev 1 4096 10 1 aligned_memory_tuned_radixsort962716468
	sslittle-na-sstrix-gcc -Wall -O3 -funroll-loops -finline-functions  -DRANDOM_SIZE=4194304 -DOFFSET=8 -DSORT=aligned_memory_tuned_radixsort sorts/aligned_memory_tuned_radixsort414895743.c simpleMain.c -o aligned_memory_tuned_radixsort962716468
	sim-cache -cache:dl1 dl1:256:32:1:l -cache:dl2 dl2:131072:32:1:l -cache:il1 il1:256:32:1:l -cache:il2 dl2 aligned_memory_tuned_radixsort962716468
	sim-cache -cache:dl1 dl1:256:32:1:l -cache:dl2 dl2:65536:32:1:l -cache:il1 il1:256:32:1:l -cache:il2 dl2 aligned_memory_tuned_radixsort962716468
	sim-cache -cache:dl1 dl1:1:32:256:l -cache:dl2 dl2:1:32:131072:l -cache:il1 il1:1:32:256:l -cache:il2 dl2 aligned_memory_tuned_radixsort962716468
	sim-cache -cache:dl1 dl1:1:32:256:l -cache:dl2 dl2:1:32:65536:l -cache:il1 il1:1:32:256:l -cache:il2 dl2 aligned_memory_tuned_radixsort962716468
	sim-bpred -bpred bimod -bpred:bimod 512 aligned_memory_tuned_radixsort962716468
	sim-bpred -bpred bimod -bpred:bimod 1024 aligned_memory_tuned_radixsort962716468
	sim-bpred -bpred bimod -bpred:bimod 2048 aligned_memory_tuned_radixsort962716468
	sim-bpred -bpred 2lev -bpred:2lev 1 512 10 1 aligned_memory_tuned_radixsort962716468
	sim-bpred -bpred 2lev -bpred:2lev 1 1024 10 1 aligned_memory_tuned_radixsort962716468
	sim-bpred -bpred 2lev -bpred:2lev 1 2048 10 1 aligned_memory_tuned_radixsort962716468
	sim-bpred -bpred 2lev -bpred:2lev 1 4096 10 1 aligned_memory_tuned_radixsort962716468
