Sat Jul  2 00:30:07 2005
Run as: "./do_simple -c random.org3 -o 3 aligned_cache_radixsort"
-------------------------------------------------------------------------------------------------
sim-cache                                     4096 |         4096 |         4096 |         4096 |         8192 |         8192 |         8192 |         8192 |        16384 |        16384 |        16384 |        16384 |        32768 |        32768 |        32768 |        32768 |        65536 |        65536 |        65536 |        65536 |       131072 |       131072 |       131072 |       131072 |       262144 |       262144 |       262144 |       262144 |       524288 |       524288 |       524288 |       524288 |      1048576 |      1048576 |      1048576 |      1048576 |      2097152 |      2097152 |      2097152 |      2097152 |      4194304 |      4194304 |      4194304 |      4194304 |
-cache:dl1 dl1:256:32:1:l -cache:dl2 dl2:131072:32:1:l -cache:il1 il1:256:32:1:l -cache:il2 dl2
-cache:dl1 dl1:256:32:1:l -cache:dl2 dl2:65536:32:1:l -cache:il1 il1:256:32:1:l -cache:il2 dl2
-cache:dl1 dl1:1:32:256:l -cache:dl2 dl2:1:32:131072:l -cache:il1 il1:1:32:256:l -cache:il2 dl2
-cache:dl1 dl1:1:32:256:l -cache:dl2 dl2:1:32:65536:l -cache:il1 il1:1:32:256:l -cache:il2 dl2
-------------------------------------------------------------------------------------------------
sim_num_insn                                378847 |       378847 |       378847 |       378847 |       744419 |       744419 |       744419 |       744419 |      1475557 |      1475557 |      1475557 |      1475557 |      2937830 |      2937830 |      2937830 |      2937830 |      5862374 |      5862374 |      5862374 |      5862374 |     11711463 |     11711463 |     11711463 |     11711463 |     23409639 |     23409639 |     23409639 |     23409639 |     46818467 |     46818467 |     46818467 |     46818467 |     93611171 |     93611171 |     93611171 |     93611171 |    187205803 |    187205803 |    187205803 |    187205803 |    374395059 |    374395059 |    374395059 |    374395059 |
sim_num_refs                                138963 |       138963 |       138963 |       138963 |       270035 |       270035 |       270035 |       270035 |       532179 |       532179 |       532179 |       532179 |      1056467 |      1056467 |      1056467 |      1056467 |      2105043 |      2105043 |      2105043 |      2105043 |      4202195 |      4202195 |      4202195 |      4202195 |      8396499 |      8396499 |      8396499 |      8396499 |     16794369 |     16794369 |     16794369 |     16794369 |     33571585 |     33571585 |     33571585 |     33571585 |     67132161 |     67132161 |     67132161 |     67132161 |    134253313 |    134253313 |    134253313 |    134253313 |
sim_elapsed_time                                 1 |            1 |           10 |            5 |            1 |            1 |           15 |            8 |            1 |            1 |           26 |           13 |            1 |            1 |           46 |           23 |            1 |            2 |           86 |           41 |            4 |            3 |          156 |           70 |            7 |            8 |          265 |           93 |           15 |           15 |          356 |          101 |           30 |           31 |          371 |          118 |           61 |           60 |          405 |          151 |          120 |          121 |          472 |          220 |
sim_inst_rate                          378847.0000 |  378847.0000 |   37884.7000 |   75769.4000 |  744419.0000 |  744419.0000 |   49627.9333 |   93052.3750 | 1475557.0000 | 1475557.0000 |   56752.1923 |  113504.3846 | 2937830.0000 | 2937830.0000 |   63865.8696 |  127731.7391 | 5862374.0000 | 2931187.0000 |   68167.1395 |  142984.7317 | 2927865.7500 | 3903821.0000 |   75073.4808 |  167306.6143 | 3344234.1429 | 2926204.8750 |   88338.2604 |  251716.5484 | 3121231.1333 | 3121231.1333 |  131512.5478 |  463549.1782 | 3120372.3667 | 3019715.1935 |  252321.2156 |  793315.0085 | 3068947.5902 | 3120096.7167 |  462236.5506 | 1239773.5298 | 3119958.8250 | 3094174.0413 |  793209.8708 | 1701795.7227 |
il1.accesses                                378847 |       378847 |       378847 |       378847 |       744419 |       744419 |       744419 |       744419 |      1475557 |      1475557 |      1475557 |      1475557 |      2937830 |      2937830 |      2937830 |      2937830 |      5862374 |      5862374 |      5862374 |      5862374 |     11711463 |     11711463 |     11711463 |     11711463 |     23409639 |     23409639 |     23409639 |     23409639 |     46818467 |     46818467 |     46818467 |     46818467 |     93611171 |     93611171 |     93611171 |     93611171 |    187205803 |    187205803 |    187205803 |    187205803 |    374395059 |    374395059 |    374395059 |    374395059 |
il1.hits                                    378317 |       378317 |       378414 |       378414 |       743888 |       743888 |       743986 |       743986 |      1475017 |      1475017 |      1475123 |      1475123 |      2937295 |      2937295 |      2937394 |      2937394 |      5861839 |      5861839 |      5861938 |      5861938 |     11710928 |     11710928 |     11711027 |     11711027 |     23409104 |     23409104 |     23409203 |     23409203 |     46817889 |     46817889 |     46817996 |     46817996 |     93610593 |     93610593 |     93610700 |     93610700 |    187205225 |    187205225 |    187205332 |    187205332 |    374394481 |    374394481 |    374394588 |    374394588 |
il1.misses                                     530 |          530 |          433 |          433 |          531 |          531 |          433 |          433 |          540 |          540 |          434 |          434 |          535 |          535 |          436 |          436 |          535 |          535 |          436 |          436 |          535 |          535 |          436 |          436 |          535 |          535 |          436 |          436 |          578 |          578 |          471 |          471 |          578 |          578 |          471 |          471 |          578 |          578 |          471 |          471 |          578 |          578 |          471 |          471 |
il1.replacements                               311 |          311 |          177 |          177 |          313 |          313 |          177 |          177 |          318 |          318 |          178 |          178 |          318 |          318 |          180 |          180 |          318 |          318 |          180 |          180 |          318 |          318 |          180 |          180 |          318 |          318 |          180 |          180 |          350 |          350 |          215 |          215 |          350 |          350 |          215 |          215 |          350 |          350 |          215 |          215 |          350 |          350 |          215 |          215 |
il1.writebacks                                   0 |            0 |            0 |            0 |            0 |            0 |            0 |            0 |            0 |            0 |            0 |            0 |            0 |            0 |            0 |            0 |            0 |            0 |            0 |            0 |            0 |            0 |            0 |            0 |            0 |            0 |            0 |            0 |            0 |            0 |            0 |            0 |            0 |            0 |            0 |            0 |            0 |            0 |            0 |            0 |            0 |            0 |            0 |            0 |
il1.invalidations                                0 |            0 |            0 |            0 |            0 |            0 |            0 |            0 |            0 |            0 |            0 |            0 |            0 |            0 |            0 |            0 |            0 |            0 |            0 |            0 |            0 |            0 |            0 |            0 |            0 |            0 |            0 |            0 |            0 |            0 |            0 |            0 |            0 |            0 |            0 |            0 |            0 |            0 |            0 |            0 |            0 |            0 |            0 |            0 |
il1.miss_rate                               0.0014 |       0.0014 |       0.0011 |       0.0011 |       0.0007 |       0.0007 |       0.0006 |       0.0006 |       0.0004 |       0.0004 |       0.0003 |       0.0003 |       0.0002 |       0.0002 |       0.0001 |       0.0001 |       0.0001 |       0.0001 |       0.0001 |       0.0001 |       0.0000 |       0.0000 |       0.0000 |       0.0000 |       0.0000 |       0.0000 |       0.0000 |       0.0000 |       0.0000 |       0.0000 |       0.0000 |       0.0000 |       0.0000 |       0.0000 |       0.0000 |       0.0000 |       0.0000 |       0.0000 |       0.0000 |       0.0000 |       0.0000 |       0.0000 |       0.0000 |       0.0000 |
il1.repl_rate                               0.0008 |       0.0008 |       0.0005 |       0.0005 |       0.0004 |       0.0004 |       0.0002 |       0.0002 |       0.0002 |       0.0002 |       0.0001 |       0.0001 |       0.0001 |       0.0001 |       0.0001 |       0.0001 |       0.0001 |       0.0001 |       0.0000 |       0.0000 |       0.0000 |       0.0000 |       0.0000 |       0.0000 |       0.0000 |       0.0000 |       0.0000 |       0.0000 |       0.0000 |       0.0000 |       0.0000 |       0.0000 |       0.0000 |       0.0000 |       0.0000 |       0.0000 |       0.0000 |       0.0000 |       0.0000 |       0.0000 |       0.0000 |       0.0000 |       0.0000 |       0.0000 |
il1.wb_rate                                 0.0000 |       0.0000 |       0.0000 |       0.0000 |       0.0000 |       0.0000 |       0.0000 |       0.0000 |       0.0000 |       0.0000 |       0.0000 |       0.0000 |       0.0000 |       0.0000 |       0.0000 |       0.0000 |       0.0000 |       0.0000 |       0.0000 |       0.0000 |       0.0000 |       0.0000 |       0.0000 |       0.0000 |       0.0000 |       0.0000 |       0.0000 |       0.0000 |       0.0000 |       0.0000 |       0.0000 |       0.0000 |       0.0000 |       0.0000 |       0.0000 |       0.0000 |       0.0000 |       0.0000 |       0.0000 |       0.0000 |       0.0000 |       0.0000 |       0.0000 |       0.0000 |
il1.inv_rate                                0.0000 |       0.0000 |       0.0000 |       0.0000 |       0.0000 |       0.0000 |       0.0000 |       0.0000 |       0.0000 |       0.0000 |       0.0000 |       0.0000 |       0.0000 |       0.0000 |       0.0000 |       0.0000 |       0.0000 |       0.0000 |       0.0000 |       0.0000 |       0.0000 |       0.0000 |       0.0000 |       0.0000 |       0.0000 |       0.0000 |       0.0000 |       0.0000 |       0.0000 |       0.0000 |       0.0000 |       0.0000 |       0.0000 |       0.0000 |       0.0000 |       0.0000 |       0.0000 |       0.0000 |       0.0000 |       0.0000 |       0.0000 |       0.0000 |       0.0000 |       0.0000 |
dl1.accesses                                155429 |       155429 |       155429 |       155429 |       302885 |       302885 |       302885 |       302885 |       597797 |       597797 |       597797 |       597797 |      1187621 |      1187621 |      1187621 |      1187621 |      2367269 |      2367269 |      2367269 |      2367269 |      4726565 |      4726565 |      4726565 |      4726565 |      9445157 |      9445157 |      9445157 |      9445157 |     18891603 |     18891603 |     18891603 |     18891603 |     37765971 |     37765971 |     37765971 |     37765971 |     75520851 |     75520851 |     75520851 |     75520851 |    151030611 |    151030611 |    151030611 |    151030611 |
dl1.hits                                    139018 |       139018 |       143925 |       143925 |       269744 |       269744 |       280722 |       280722 |       530260 |       530260 |       554353 |       554353 |      1052908 |      1052908 |      1101400 |      1101400 |      2095319 |      2095319 |      2195320 |      2195320 |      4160450 |      4160450 |      4383252 |      4383252 |      8261844 |      8261844 |      8759207 |      8759207 |     16428528 |     16428528 |     17519539 |     17519539 |     33009425 |     33009425 |     35023794 |     35023794 |     66381380 |     66381380 |     70038257 |     70038257 |    133316032 |    133316032 |    140066896 |    140066896 |
dl1.misses                                   16411 |        16411 |        11504 |        11504 |        33141 |        33141 |        22163 |        22163 |        67537 |        67537 |        43444 |        43444 |       134713 |       134713 |        86221 |        86221 |       271950 |       271950 |       171949 |       171949 |       566115 |       566115 |       343313 |       343313 |      1183313 |      1183313 |       685950 |       685950 |      2463075 |      2463075 |      1372064 |      1372064 |      4756546 |      4756546 |      2742177 |      2742177 |      9139471 |      9139471 |      5482594 |      5482594 |     17714579 |     17714579 |     10963715 |     10963715 |
dl1.replacements                             16155 |        16155 |        11248 |        11248 |        32885 |        32885 |        21907 |        21907 |        67281 |        67281 |        43188 |        43188 |       134457 |       134457 |        85965 |        85965 |       271694 |       271694 |       171693 |       171693 |       565859 |       565859 |       343057 |       343057 |      1183057 |      1183057 |       685694 |       685694 |      2462819 |      2462819 |      1371808 |      1371808 |      4756290 |      4756290 |      2741921 |      2741921 |      9139215 |      9139215 |      5482338 |      5482338 |     17714323 |     17714323 |     10963459 |     10963459 |
dl1.writebacks                               13526 |        13526 |         8719 |         8719 |        27464 |        27464 |        16809 |        16809 |        56423 |        56423 |        32964 |        32964 |       112559 |       112559 |        65500 |        65500 |       227889 |       227889 |       130749 |       130749 |       478101 |       478101 |       261150 |       261150 |      1007930 |      1007930 |       521869 |       521869 |      2111619 |      2111619 |      1043753 |      1043753 |      4054204 |      4054204 |      2086188 |      2086188 |      7735186 |      7735186 |      4171243 |      4171243 |     14905318 |     14905318 |      8341646 |      8341646 |
dl1.invalidations                                0 |            0 |            0 |            0 |            0 |            0 |            0 |            0 |            0 |            0 |            0 |            0 |            0 |            0 |            0 |            0 |            0 |            0 |            0 |            0 |            0 |            0 |            0 |            0 |            0 |            0 |            0 |            0 |            0 |            0 |            0 |            0 |            0 |            0 |            0 |            0 |            0 |            0 |            0 |            0 |            0 |            0 |            0 |            0 |
dl1.miss_rate                               0.1056 |       0.1056 |       0.0740 |       0.0740 |       0.1094 |       0.1094 |       0.0732 |       0.0732 |       0.1130 |       0.1130 |       0.0727 |       0.0727 |       0.1134 |       0.1134 |       0.0726 |       0.0726 |       0.1149 |       0.1149 |       0.0726 |       0.0726 |       0.1198 |       0.1198 |       0.0726 |       0.0726 |       0.1253 |       0.1253 |       0.0726 |       0.0726 |       0.1304 |       0.1304 |       0.0726 |       0.0726 |       0.1259 |       0.1259 |       0.0726 |       0.0726 |       0.1210 |       0.1210 |       0.0726 |       0.0726 |       0.1173 |       0.1173 |       0.0726 |       0.0726 |
dl1.repl_rate                               0.1039 |       0.1039 |       0.0724 |       0.0724 |       0.1086 |       0.1086 |       0.0723 |       0.0723 |       0.1125 |       0.1125 |       0.0722 |       0.0722 |       0.1132 |       0.1132 |       0.0724 |       0.0724 |       0.1148 |       0.1148 |       0.0725 |       0.0725 |       0.1197 |       0.1197 |       0.0726 |       0.0726 |       0.1253 |       0.1253 |       0.0726 |       0.0726 |       0.1304 |       0.1304 |       0.0726 |       0.0726 |       0.1259 |       0.1259 |       0.0726 |       0.0726 |       0.1210 |       0.1210 |       0.0726 |       0.0726 |       0.1173 |       0.1173 |       0.0726 |       0.0726 |
dl1.wb_rate                                 0.0870 |       0.0870 |       0.0561 |       0.0561 |       0.0907 |       0.0907 |       0.0555 |       0.0555 |       0.0944 |       0.0944 |       0.0551 |       0.0551 |       0.0948 |       0.0948 |       0.0552 |       0.0552 |       0.0963 |       0.0963 |       0.0552 |       0.0552 |       0.1012 |       0.1012 |       0.0553 |       0.0553 |       0.1067 |       0.1067 |       0.0553 |       0.0553 |       0.1118 |       0.1118 |       0.0552 |       0.0552 |       0.1074 |       0.1074 |       0.0552 |       0.0552 |       0.1024 |       0.1024 |       0.0552 |       0.0552 |       0.0987 |       0.0987 |       0.0552 |       0.0552 |
dl1.inv_rate                                0.0000 |       0.0000 |       0.0000 |       0.0000 |       0.0000 |       0.0000 |       0.0000 |       0.0000 |       0.0000 |       0.0000 |       0.0000 |       0.0000 |       0.0000 |       0.0000 |       0.0000 |       0.0000 |       0.0000 |       0.0000 |       0.0000 |       0.0000 |       0.0000 |       0.0000 |       0.0000 |       0.0000 |       0.0000 |       0.0000 |       0.0000 |       0.0000 |       0.0000 |       0.0000 |       0.0000 |       0.0000 |       0.0000 |       0.0000 |       0.0000 |       0.0000 |       0.0000 |       0.0000 |       0.0000 |       0.0000 |       0.0000 |       0.0000 |       0.0000 |       0.0000 |
dl2.accesses                                 30467 |        30467 |        20656 |        20656 |        61136 |        61136 |        39405 |        39405 |       124500 |       124500 |        76842 |        76842 |       247807 |       247807 |       152157 |       152157 |       500374 |       500374 |       303134 |       303134 |      1044751 |      1044751 |       604899 |       604899 |      2191778 |      2191778 |      1208255 |      1208255 |      4575272 |      4575272 |      2416288 |      2416288 |      8811328 |      8811328 |      4828836 |      4828836 |     16875235 |     16875235 |      9654308 |      9654308 |     32620475 |     32620475 |     19305832 |     19305832 |
dl2.hits                                     28550 |        28550 |        18756 |        18756 |        58194 |        58194 |        36481 |        36481 |       119509 |       119509 |        71868 |        71868 |       238715 |       238715 |       143087 |       143087 |       483090 |       483090 |       285872 |       285872 |      1011083 |      1011083 |       571253 |       571253 |      2125342 |      2124358 |      1141841 |      1139426 |      4283536 |      4096894 |      2280585 |      1818117 |      7911406 |      7506852 |      3635166 |      3541939 |     14349935 |     14176209 |      7082551 |      7041734 |     27289133 |     27107906 |     14082683 |     14063580 |
dl2.misses                                    1917 |         1917 |         1900 |         1900 |         2942 |         2942 |         2924 |         2924 |         4991 |         4991 |         4974 |         4974 |         9092 |         9092 |         9070 |         9070 |        17284 |        17284 |        17262 |        17262 |        33668 |        33668 |        33646 |        33646 |        66436 |        67420 |        66414 |        68829 |       291736 |       478378 |       135703 |       598171 |       899922 |      1304476 |      1193670 |      1286897 |      2525300 |      2699026 |      2571757 |      2612574 |      5331342 |      5512569 |      5223149 |      5242252 |
dl2.replacements                               130 |          130 |            0 |            0 |          129 |          129 |            0 |            0 |          128 |          128 |            0 |            0 |          133 |          133 |            0 |            0 |          133 |          133 |            0 |            0 |          133 |          133 |            0 |            0 |          133 |         1941 |            0 |         3293 |       191923 |       412842 |         4631 |       532635 |       768850 |      1238940 |      1062598 |      1221361 |      2394228 |      2633490 |      2440685 |      2547038 |      5200270 |      5447033 |      5092077 |      5176716 |
dl2.writebacks                                  66 |           66 |            0 |            0 |           64 |           64 |            0 |            0 |           64 |           64 |            0 |            0 |           64 |           64 |            0 |            0 |           64 |           64 |            0 |            0 |           64 |           64 |            0 |            0 |           64 |         1172 |            0 |         3055 |       158130 |       301370 |         4322 |       297042 |       596122 |       661371 |       591905 |       624715 |      1292819 |      1379884 |      1248079 |      1280930 |      2713038 |      2885463 |      2560355 |      2593281 |
dl2.invalidations                                0 |            0 |            0 |            0 |            0 |            0 |            0 |            0 |            0 |            0 |            0 |            0 |            0 |            0 |            0 |            0 |            0 |            0 |            0 |            0 |            0 |            0 |            0 |            0 |            0 |            0 |            0 |            0 |            0 |            0 |            0 |            0 |            0 |            0 |            0 |            0 |            0 |            0 |            0 |            0 |            0 |            0 |            0 |            0 |
dl2.miss_rate                               0.0629 |       0.0629 |       0.0920 |       0.0920 |       0.0481 |       0.0481 |       0.0742 |       0.0742 |       0.0401 |       0.0401 |       0.0647 |       0.0647 |       0.0367 |       0.0367 |       0.0596 |       0.0596 |       0.0345 |       0.0345 |       0.0569 |       0.0569 |       0.0322 |       0.0322 |       0.0556 |       0.0556 |       0.0303 |       0.0308 |       0.0550 |       0.0570 |       0.0638 |       0.1046 |       0.0562 |       0.2476 |       0.1021 |       0.1480 |       0.2472 |       0.2665 |       0.1496 |       0.1599 |       0.2664 |       0.2706 |       0.1634 |       0.1690 |       0.2705 |       0.2715 |
dl2.repl_rate                               0.0043 |       0.0043 |       0.0000 |       0.0000 |       0.0021 |       0.0021 |       0.0000 |       0.0000 |       0.0010 |       0.0010 |       0.0000 |       0.0000 |       0.0005 |       0.0005 |       0.0000 |       0.0000 |       0.0003 |       0.0003 |       0.0000 |       0.0000 |       0.0001 |       0.0001 |       0.0000 |       0.0000 |       0.0001 |       0.0009 |       0.0000 |       0.0027 |       0.0419 |       0.0902 |       0.0019 |       0.2204 |       0.0873 |       0.1406 |       0.2201 |       0.2529 |       0.1419 |       0.1561 |       0.2528 |       0.2638 |       0.1594 |       0.1670 |       0.2638 |       0.2681 |
dl2.wb_rate                                 0.0022 |       0.0022 |       0.0000 |       0.0000 |       0.0010 |       0.0010 |       0.0000 |       0.0000 |       0.0005 |       0.0005 |       0.0000 |       0.0000 |       0.0003 |       0.0003 |       0.0000 |       0.0000 |       0.0001 |       0.0001 |       0.0000 |       0.0000 |       0.0001 |       0.0001 |       0.0000 |       0.0000 |       0.0000 |       0.0005 |       0.0000 |       0.0025 |       0.0346 |       0.0659 |       0.0018 |       0.1229 |       0.0677 |       0.0751 |       0.1226 |       0.1294 |       0.0766 |       0.0818 |       0.1293 |       0.1327 |       0.0832 |       0.0885 |       0.1326 |       0.1343 |
dl2.inv_rate                                0.0000 |       0.0000 |       0.0000 |       0.0000 |       0.0000 |       0.0000 |       0.0000 |       0.0000 |       0.0000 |       0.0000 |       0.0000 |       0.0000 |       0.0000 |       0.0000 |       0.0000 |       0.0000 |       0.0000 |       0.0000 |       0.0000 |       0.0000 |       0.0000 |       0.0000 |       0.0000 |       0.0000 |       0.0000 |       0.0000 |       0.0000 |       0.0000 |       0.0000 |       0.0000 |       0.0000 |       0.0000 |       0.0000 |       0.0000 |       0.0000 |       0.0000 |       0.0000 |       0.0000 |       0.0000 |       0.0000 |       0.0000 |       0.0000 |       0.0000 |       0.0000 |
itlb.accesses                               378847 |       378847 |       378847 |       378847 |       744419 |       744419 |       744419 |       744419 |      1475557 |      1475557 |      1475557 |      1475557 |      2937830 |      2937830 |      2937830 |      2937830 |      5862374 |      5862374 |      5862374 |      5862374 |     11711463 |     11711463 |     11711463 |     11711463 |     23409639 |     23409639 |     23409639 |     23409639 |     46818467 |     46818467 |     46818467 |     46818467 |     93611171 |     93611171 |     93611171 |     93611171 |    187205803 |    187205803 |    187205803 |    187205803 |    374395059 |    374395059 |    374395059 |    374395059 |
itlb.hits                                   378838 |       378838 |       378838 |       378838 |       744410 |       744410 |       744410 |       744410 |      1475548 |      1475548 |      1475548 |      1475548 |      2937821 |      2937821 |      2937821 |      2937821 |      5862365 |      5862365 |      5862365 |      5862365 |     11711454 |     11711454 |     11711454 |     11711454 |     23409630 |     23409630 |     23409630 |     23409630 |     46818458 |     46818458 |     46818458 |     46818458 |     93611162 |     93611162 |     93611162 |     93611162 |    187205794 |    187205794 |    187205794 |    187205794 |    374395050 |    374395050 |    374395050 |    374395050 |
itlb.misses                                      9 |            9 |            9 |            9 |            9 |            9 |            9 |            9 |            9 |            9 |            9 |            9 |            9 |            9 |            9 |            9 |            9 |            9 |            9 |            9 |            9 |            9 |            9 |            9 |            9 |            9 |            9 |            9 |            9 |            9 |            9 |            9 |            9 |            9 |            9 |            9 |            9 |            9 |            9 |            9 |            9 |            9 |            9 |            9 |
itlb.replacements                                0 |            0 |            0 |            0 |            0 |            0 |            0 |            0 |            0 |            0 |            0 |            0 |            0 |            0 |            0 |            0 |            0 |            0 |            0 |            0 |            0 |            0 |            0 |            0 |            0 |            0 |            0 |            0 |            0 |            0 |            0 |            0 |            0 |            0 |            0 |            0 |            0 |            0 |            0 |            0 |            0 |            0 |            0 |            0 |
itlb.writebacks                                  0 |            0 |            0 |            0 |            0 |            0 |            0 |            0 |            0 |            0 |            0 |            0 |            0 |            0 |            0 |            0 |            0 |            0 |            0 |            0 |            0 |            0 |            0 |            0 |            0 |            0 |            0 |            0 |            0 |            0 |            0 |            0 |            0 |            0 |            0 |            0 |            0 |            0 |            0 |            0 |            0 |            0 |            0 |            0 |
itlb.invalidations                               0 |            0 |            0 |            0 |            0 |            0 |            0 |            0 |            0 |            0 |            0 |            0 |            0 |            0 |            0 |            0 |            0 |            0 |            0 |            0 |            0 |            0 |            0 |            0 |            0 |            0 |            0 |            0 |            0 |            0 |            0 |            0 |            0 |            0 |            0 |            0 |            0 |            0 |            0 |            0 |            0 |            0 |            0 |            0 |
itlb.miss_rate                              0.0000 |       0.0000 |       0.0000 |       0.0000 |       0.0000 |       0.0000 |       0.0000 |       0.0000 |       0.0000 |       0.0000 |       0.0000 |       0.0000 |       0.0000 |       0.0000 |       0.0000 |       0.0000 |       0.0000 |       0.0000 |       0.0000 |       0.0000 |       0.0000 |       0.0000 |       0.0000 |       0.0000 |       0.0000 |       0.0000 |       0.0000 |       0.0000 |       0.0000 |       0.0000 |       0.0000 |       0.0000 |       0.0000 |       0.0000 |       0.0000 |       0.0000 |       0.0000 |       0.0000 |       0.0000 |       0.0000 |       0.0000 |       0.0000 |       0.0000 |       0.0000 |
itlb.repl_rate                              0.0000 |       0.0000 |       0.0000 |       0.0000 |       0.0000 |       0.0000 |       0.0000 |       0.0000 |       0.0000 |       0.0000 |       0.0000 |       0.0000 |       0.0000 |       0.0000 |       0.0000 |       0.0000 |       0.0000 |       0.0000 |       0.0000 |       0.0000 |       0.0000 |       0.0000 |       0.0000 |       0.0000 |       0.0000 |       0.0000 |       0.0000 |       0.0000 |       0.0000 |       0.0000 |       0.0000 |       0.0000 |       0.0000 |       0.0000 |       0.0000 |       0.0000 |       0.0000 |       0.0000 |       0.0000 |       0.0000 |       0.0000 |       0.0000 |       0.0000 |       0.0000 |
itlb.wb_rate                                0.0000 |       0.0000 |       0.0000 |       0.0000 |       0.0000 |       0.0000 |       0.0000 |       0.0000 |       0.0000 |       0.0000 |       0.0000 |       0.0000 |       0.0000 |       0.0000 |       0.0000 |       0.0000 |       0.0000 |       0.0000 |       0.0000 |       0.0000 |       0.0000 |       0.0000 |       0.0000 |       0.0000 |       0.0000 |       0.0000 |       0.0000 |       0.0000 |       0.0000 |       0.0000 |       0.0000 |       0.0000 |       0.0000 |       0.0000 |       0.0000 |       0.0000 |       0.0000 |       0.0000 |       0.0000 |       0.0000 |       0.0000 |       0.0000 |       0.0000 |       0.0000 |
itlb.inv_rate                               0.0000 |       0.0000 |       0.0000 |       0.0000 |       0.0000 |       0.0000 |       0.0000 |       0.0000 |       0.0000 |       0.0000 |       0.0000 |       0.0000 |       0.0000 |       0.0000 |       0.0000 |       0.0000 |       0.0000 |       0.0000 |       0.0000 |       0.0000 |       0.0000 |       0.0000 |       0.0000 |       0.0000 |       0.0000 |       0.0000 |       0.0000 |       0.0000 |       0.0000 |       0.0000 |       0.0000 |       0.0000 |       0.0000 |       0.0000 |       0.0000 |       0.0000 |       0.0000 |       0.0000 |       0.0000 |       0.0000 |       0.0000 |       0.0000 |       0.0000 |       0.0000 |
dtlb.accesses                               155429 |       155429 |       155429 |       155429 |       302885 |       302885 |       302885 |       302885 |       597797 |       597797 |       597797 |       597797 |      1187621 |      1187621 |      1187621 |      1187621 |      2367269 |      2367269 |      2367269 |      2367269 |      4726565 |      4726565 |      4726565 |      4726565 |      9445157 |      9445157 |      9445157 |      9445157 |     18891603 |     18891603 |     18891603 |     18891603 |     37765971 |     37765971 |     37765971 |     37765971 |     75520851 |     75520851 |     75520851 |     75520851 |    151030611 |    151030611 |    151030611 |    151030611 |
dtlb.hits                                   155413 |       155413 |       155413 |       155413 |       302861 |       302861 |       302861 |       302861 |       597757 |       597757 |       597757 |       597757 |      1187549 |      1187549 |      1187549 |      1187549 |      2367107 |      2367107 |      2367107 |      2367107 |      4716079 |      4716079 |      4716079 |      4716079 |      8918414 |      8918414 |      8918414 |      8918414 |     17533401 |     17533401 |     17533401 |     17533401 |     34463414 |     34463414 |     34463414 |     34463414 |     68298954 |     68298954 |     68298954 |     68298954 |    135788928 |    135788928 |    135788928 |    135788928 |
dtlb.misses                                     16 |           16 |           16 |           16 |           24 |           24 |           24 |           24 |           40 |           40 |           40 |           40 |           72 |           72 |           72 |           72 |          162 |          162 |          162 |          162 |        10486 |        10486 |        10486 |        10486 |       526743 |       526743 |       526743 |       526743 |      1358202 |      1358202 |      1358202 |      1358202 |      3302557 |      3302557 |      3302557 |      3302557 |      7221897 |      7221897 |      7221897 |      7221897 |     15241683 |     15241683 |     15241683 |     15241683 |
dtlb.replacements                                0 |            0 |            0 |            0 |            0 |            0 |            0 |            0 |            0 |            0 |            0 |            0 |            0 |            0 |            0 |            0 |           34 |           34 |           34 |           34 |        10358 |        10358 |        10358 |        10358 |       526615 |       526615 |       526615 |       526615 |      1358074 |      1358074 |      1358074 |      1358074 |      3302429 |      3302429 |      3302429 |      3302429 |      7221769 |      7221769 |      7221769 |      7221769 |     15241555 |     15241555 |     15241555 |     15241555 |
dtlb.writebacks                                  0 |            0 |            0 |            0 |            0 |            0 |            0 |            0 |            0 |            0 |            0 |            0 |            0 |            0 |            0 |            0 |           26 |           26 |           26 |           26 |         9825 |         9825 |         9825 |         9825 |       525332 |       525332 |       525332 |       525332 |      1355534 |      1355534 |      1355534 |      1355534 |      3297384 |      3297384 |      3297384 |      3297384 |      7211612 |      7211612 |      7211612 |      7211612 |     15221174 |     15221174 |     15221174 |     15221174 |
dtlb.invalidations                               0 |            0 |            0 |            0 |            0 |            0 |            0 |            0 |            0 |            0 |            0 |            0 |            0 |            0 |            0 |            0 |            0 |            0 |            0 |            0 |            0 |            0 |            0 |            0 |            0 |            0 |            0 |            0 |            0 |            0 |            0 |            0 |            0 |            0 |            0 |            0 |            0 |            0 |            0 |            0 |            0 |            0 |            0 |            0 |
dtlb.miss_rate                              0.0001 |       0.0001 |       0.0001 |       0.0001 |       0.0001 |       0.0001 |       0.0001 |       0.0001 |       0.0001 |       0.0001 |       0.0001 |       0.0001 |       0.0001 |       0.0001 |       0.0001 |       0.0001 |       0.0001 |       0.0001 |       0.0001 |       0.0001 |       0.0022 |       0.0022 |       0.0022 |       0.0022 |       0.0558 |       0.0558 |       0.0558 |       0.0558 |       0.0719 |       0.0719 |       0.0719 |       0.0719 |       0.0874 |       0.0874 |       0.0874 |       0.0874 |       0.0956 |       0.0956 |       0.0956 |       0.0956 |       0.1009 |       0.1009 |       0.1009 |       0.1009 |
dtlb.repl_rate                              0.0000 |       0.0000 |       0.0000 |       0.0000 |       0.0000 |       0.0000 |       0.0000 |       0.0000 |       0.0000 |       0.0000 |       0.0000 |       0.0000 |       0.0000 |       0.0000 |       0.0000 |       0.0000 |       0.0000 |       0.0000 |       0.0000 |       0.0000 |       0.0022 |       0.0022 |       0.0022 |       0.0022 |       0.0558 |       0.0558 |       0.0558 |       0.0558 |       0.0719 |       0.0719 |       0.0719 |       0.0719 |       0.0874 |       0.0874 |       0.0874 |       0.0874 |       0.0956 |       0.0956 |       0.0956 |       0.0956 |       0.1009 |       0.1009 |       0.1009 |       0.1009 |
dtlb.wb_rate                                0.0000 |       0.0000 |       0.0000 |       0.0000 |       0.0000 |       0.0000 |       0.0000 |       0.0000 |       0.0000 |       0.0000 |       0.0000 |       0.0000 |       0.0000 |       0.0000 |       0.0000 |       0.0000 |       0.0000 |       0.0000 |       0.0000 |       0.0000 |       0.0021 |       0.0021 |       0.0021 |       0.0021 |       0.0556 |       0.0556 |       0.0556 |       0.0556 |       0.0718 |       0.0718 |       0.0718 |       0.0718 |       0.0873 |       0.0873 |       0.0873 |       0.0873 |       0.0955 |       0.0955 |       0.0955 |       0.0955 |       0.1008 |       0.1008 |       0.1008 |       0.1008 |
dtlb.inv_rate                               0.0000 |       0.0000 |       0.0000 |       0.0000 |       0.0000 |       0.0000 |       0.0000 |       0.0000 |       0.0000 |       0.0000 |       0.0000 |       0.0000 |       0.0000 |       0.0000 |       0.0000 |       0.0000 |       0.0000 |       0.0000 |       0.0000 |       0.0000 |       0.0000 |       0.0000 |       0.0000 |       0.0000 |       0.0000 |       0.0000 |       0.0000 |       0.0000 |       0.0000 |       0.0000 |       0.0000 |       0.0000 |       0.0000 |       0.0000 |       0.0000 |       0.0000 |       0.0000 |       0.0000 |       0.0000 |       0.0000 |       0.0000 |       0.0000 |       0.0000 |       0.0000 |
ld_text_base                            0x00400000 |   0x00400000 |   0x00400000 |   0x00400000 |   0x00400000 |   0x00400000 |   0x00400000 |   0x00400000 |   0x00400000 |   0x00400000 |   0x00400000 |   0x00400000 |   0x00400000 |   0x00400000 |   0x00400000 |   0x00400000 |   0x00400000 |   0x00400000 |   0x00400000 |   0x00400000 |   0x00400000 |   0x00400000 |   0x00400000 |   0x00400000 |   0x00400000 |   0x00400000 |   0x00400000 |   0x00400000 |   0x00400000 |   0x00400000 |   0x00400000 |   0x00400000 |   0x00400000 |   0x00400000 |   0x00400000 |   0x00400000 |   0x00400000 |   0x00400000 |   0x00400000 |   0x00400000 |   0x00400000 |   0x00400000 |   0x00400000 |   0x00400000 |
ld_text_size                                 74416 |        74416 |        74416 |        74416 |        74448 |        74448 |        74448 |        74448 |        74464 |        74464 |        74464 |        74464 |        74480 |        74480 |        74480 |        74480 |        74480 |        74480 |        74480 |        74480 |        74480 |        74480 |        74480 |        74480 |        74480 |        74480 |        74480 |        74480 |        74480 |        74480 |        74480 |        74480 |        74480 |        74480 |        74480 |        74480 |        74480 |        74480 |        74480 |        74480 |        74480 |        74480 |        74480 |        74480 |
ld_data_base                            0x10000000 |   0x10000000 |   0x10000000 |   0x10000000 |   0x10000000 |   0x10000000 |   0x10000000 |   0x10000000 |   0x10000000 |   0x10000000 |   0x10000000 |   0x10000000 |   0x10000000 |   0x10000000 |   0x10000000 |   0x10000000 |   0x10000000 |   0x10000000 |   0x10000000 |   0x10000000 |   0x10000000 |   0x10000000 |   0x10000000 |   0x10000000 |   0x10000000 |   0x10000000 |   0x10000000 |   0x10000000 |   0x10000000 |   0x10000000 |   0x10000000 |   0x10000000 |   0x10000000 |   0x10000000 |   0x10000000 |   0x10000000 |   0x10000000 |   0x10000000 |   0x10000000 |   0x10000000 |   0x10000000 |   0x10000000 |   0x10000000 |   0x10000000 |
ld_data_size                                  8192 |         8192 |         8192 |         8192 |         8192 |         8192 |         8192 |         8192 |         8192 |         8192 |         8192 |         8192 |         8192 |         8192 |         8192 |         8192 |         8192 |         8192 |         8192 |         8192 |         8192 |         8192 |         8192 |         8192 |         8192 |         8192 |         8192 |         8192 |         8192 |         8192 |         8192 |         8192 |         8192 |         8192 |         8192 |         8192 |         8192 |         8192 |         8192 |         8192 |         8192 |         8192 |         8192 |         8192 |
ld_stack_base                           0x7fffc000 |   0x7fffc000 |   0x7fffc000 |   0x7fffc000 |   0x7fffc000 |   0x7fffc000 |   0x7fffc000 |   0x7fffc000 |   0x7fffc000 |   0x7fffc000 |   0x7fffc000 |   0x7fffc000 |   0x7fffc000 |   0x7fffc000 |   0x7fffc000 |   0x7fffc000 |   0x7fffc000 |   0x7fffc000 |   0x7fffc000 |   0x7fffc000 |   0x7fffc000 |   0x7fffc000 |   0x7fffc000 |   0x7fffc000 |   0x7fffc000 |   0x7fffc000 |   0x7fffc000 |   0x7fffc000 |   0x7fffc000 |   0x7fffc000 |   0x7fffc000 |   0x7fffc000 |   0x7fffc000 |   0x7fffc000 |   0x7fffc000 |   0x7fffc000 |   0x7fffc000 |   0x7fffc000 |   0x7fffc000 |   0x7fffc000 |   0x7fffc000 |   0x7fffc000 |   0x7fffc000 |   0x7fffc000 |
ld_stack_size                                16384 |        16384 |        16384 |        16384 |        16384 |        16384 |        16384 |        16384 |        16384 |        16384 |        16384 |        16384 |        16384 |        16384 |        16384 |        16384 |        16384 |        16384 |        16384 |        16384 |        16384 |        16384 |        16384 |        16384 |        16384 |        16384 |        16384 |        16384 |        16384 |        16384 |        16384 |        16384 |        16384 |        16384 |        16384 |        16384 |        16384 |        16384 |        16384 |        16384 |        16384 |        16384 |        16384 |        16384 |
ld_prog_entry                           0x00400140 |   0x00400140 |   0x00400140 |   0x00400140 |   0x00400140 |   0x00400140 |   0x00400140 |   0x00400140 |   0x00400140 |   0x00400140 |   0x00400140 |   0x00400140 |   0x00400140 |   0x00400140 |   0x00400140 |   0x00400140 |   0x00400140 |   0x00400140 |   0x00400140 |   0x00400140 |   0x00400140 |   0x00400140 |   0x00400140 |   0x00400140 |   0x00400140 |   0x00400140 |   0x00400140 |   0x00400140 |   0x00400140 |   0x00400140 |   0x00400140 |   0x00400140 |   0x00400140 |   0x00400140 |   0x00400140 |   0x00400140 |   0x00400140 |   0x00400140 |   0x00400140 |   0x00400140 |   0x00400140 |   0x00400140 |   0x00400140 |   0x00400140 |
ld_environ_base                         0x7fff8000 |   0x7fff8000 |   0x7fff8000 |   0x7fff8000 |   0x7fff8000 |   0x7fff8000 |   0x7fff8000 |   0x7fff8000 |   0x7fff8000 |   0x7fff8000 |   0x7fff8000 |   0x7fff8000 |   0x7fff8000 |   0x7fff8000 |   0x7fff8000 |   0x7fff8000 |   0x7fff8000 |   0x7fff8000 |   0x7fff8000 |   0x7fff8000 |   0x7fff8000 |   0x7fff8000 |   0x7fff8000 |   0x7fff8000 |   0x7fff8000 |   0x7fff8000 |   0x7fff8000 |   0x7fff8000 |   0x7fff8000 |   0x7fff8000 |   0x7fff8000 |   0x7fff8000 |   0x7fff8000 |   0x7fff8000 |   0x7fff8000 |   0x7fff8000 |   0x7fff8000 |   0x7fff8000 |   0x7fff8000 |   0x7fff8000 |   0x7fff8000 |   0x7fff8000 |   0x7fff8000 |   0x7fff8000 |
ld_target_big_endian                             0 |            0 |            0 |            0 |            0 |            0 |            0 |            0 |            0 |            0 |            0 |            0 |            0 |            0 |            0 |            0 |            0 |            0 |            0 |            0 |            0 |            0 |            0 |            0 |            0 |            0 |            0 |            0 |            0 |            0 |            0 |            0 |            0 |            0 |            0 |            0 |            0 |            0 |            0 |            0 |            0 |            0 |            0 |            0 |
mem.page_count                                  35 |           35 |           35 |           35 |           43 |           43 |           43 |           43 |           59 |           59 |           59 |           59 |           91 |           91 |           91 |           91 |          155 |          155 |          155 |          155 |          283 |          283 |          283 |          283 |          539 |          539 |          539 |          539 |         1057 |         1057 |         1057 |         1057 |         2081 |         2081 |         2081 |         2081 |         4135 |         4135 |         4135 |         4135 |         8243 |         8243 |         8243 |         8243 |
mem.page_mem                                  140k |         140k |         140k |         140k |         172k |         172k |         172k |         172k |         236k |         236k |         236k |         236k |         364k |         364k |         364k |         364k |         620k |         620k |         620k |         620k |        1132k |        1132k |        1132k |        1132k |        2156k |        2156k |        2156k |        2156k |        4228k |        4228k |        4228k |        4228k |        8324k |        8324k |        8324k |        8324k |       16540k |       16540k |       16540k |       16540k |       32972k |       32972k |       32972k |       32972k |
mem.ptab_misses                                 35 |           35 |           35 |           35 |           43 |           43 |           43 |           43 |           59 |           59 |           59 |           59 |           91 |           91 |           91 |           91 |          155 |          155 |          155 |          155 |          283 |          283 |          283 |          283 |          539 |          539 |          539 |          539 |         1060 |         1060 |         1060 |         1060 |        16424 |        16424 |        16424 |        16424 |        18478 |        18478 |        18478 |        18478 |        22586 |        22586 |        22586 |        22586 |
mem.ptab_accesses                          2287348 |      2287348 |      2287348 |      2287348 |      4044740 |      4044740 |      4044740 |      4044740 |      7559212 |      7559212 |      7559212 |      7559212 |     14588048 |     14588048 |     14588048 |     14588048 |     28645520 |     28645520 |     28645520 |     28645520 |     56760468 |     56760468 |     56760468 |     56760468 |    112990356 |    112990356 |    112990356 |    112990356 |    225518560 |    225518560 |    225518560 |    225518560 |    450438112 |    450438112 |    450438112 |    450438112 |    900326400 |    900326400 |    900326400 |    900326400 |   1800102944 |   1800102944 |   1800102944 |   1800102944 |
mem.ptab_miss_rate                          0.0000 |       0.0000 |       0.0000 |       0.0000 |       0.0000 |       0.0000 |       0.0000 |       0.0000 |       0.0000 |       0.0000 |       0.0000 |       0.0000 |       0.0000 |       0.0000 |       0.0000 |       0.0000 |       0.0000 |       0.0000 |       0.0000 |       0.0000 |       0.0000 |       0.0000 |       0.0000 |       0.0000 |       0.0000 |       0.0000 |       0.0000 |       0.0000 |       0.0000 |       0.0000 |       0.0000 |       0.0000 |       0.0000 |       0.0000 |       0.0000 |       0.0000 |       0.0000 |       0.0000 |       0.0000 |       0.0000 |       0.0000 |       0.0000 |       0.0000 |       0.0000 |
-------------------------------------------------------------------------------------------------
sim-bpred                                     4096 |         4096 |         4096 |         4096 |         4096 |         4096 |         4096 |         8192 |         8192 |         8192 |         8192 |         8192 |         8192 |         8192 |        16384 |        16384 |        16384 |        16384 |        16384 |        16384 |        16384 |        32768 |        32768 |        32768 |        32768 |        32768 |        32768 |        32768 |        65536 |        65536 |        65536 |        65536 |        65536 |        65536 |        65536 |       131072 |       131072 |       131072 |       131072 |       131072 |       131072 |       131072 |       262144 |       262144 |       262144 |       262144 |       262144 |       262144 |       262144 |       524288 |       524288 |       524288 |       524288 |       524288 |       524288 |       524288 |      1048576 |      1048576 |      1048576 |      1048576 |      1048576 |      1048576 |      1048576 |      2097152 |      2097152 |      2097152 |      2097152 |      2097152 |      2097152 |      2097152 |      4194304 |      4194304 |      4194304 |      4194304 |      4194304 |      4194304 |      4194304 |
-bpred bimod -bpred:bimod 512
-bpred bimod -bpred:bimod 1024
-bpred bimod -bpred:bimod 2048
-bpred 2lev -bpred:2lev 1 512 10 1
-bpred 2lev -bpred:2lev 1 1024 10 1
-bpred 2lev -bpred:2lev 1 2048 10 1
-bpred 2lev -bpred:2lev 1 4096 10 1
-------------------------------------------------------------------------------------------------
sim_num_insn                                378847 |       378847 |       378847 |       378847 |       378847 |       378847 |       378847 |       744419 |       744419 |       744419 |       744419 |       744419 |       744419 |       744419 |      1475557 |      1475557 |      1475557 |      1475557 |      1475557 |      1475557 |      1475557 |      2937830 |      2937830 |      2937830 |      2937830 |      2937830 |      2937830 |      2937830 |      5862374 |      5862374 |      5862374 |      5862374 |      5862374 |      5862374 |      5862374 |     11711463 |     11711463 |     11711463 |     11711463 |     11711463 |     11711463 |     11711463 |     23409639 |     23409639 |     23409639 |     23409639 |     23409639 |     23409639 |     23409639 |     46818467 |     46818467 |     46818467 |     46818467 |     46818467 |     46818467 |     46818467 |     93611171 |     93611171 |     93611171 |     93611171 |     93611171 |     93611171 |     93611171 |    187205803 |    187205803 |    187205803 |    187205803 |    187205803 |    187205803 |    187205803 |    374395059 |    374395059 |    374395059 |    374395059 |    374395059 |    374395059 |    374395059 |
sim_num_refs                                138963 |       138963 |       138963 |       138963 |       138963 |       138963 |       138963 |       270035 |       270035 |       270035 |       270035 |       270035 |       270035 |       270035 |       532179 |       532179 |       532179 |       532179 |       532179 |       532179 |       532179 |      1056467 |      1056467 |      1056467 |      1056467 |      1056467 |      1056467 |      1056467 |      2105043 |      2105043 |      2105043 |      2105043 |      2105043 |      2105043 |      2105043 |      4202195 |      4202195 |      4202195 |      4202195 |      4202195 |      4202195 |      4202195 |      8396499 |      8396499 |      8396499 |      8396499 |      8396499 |      8396499 |      8396499 |     16794369 |     16794369 |     16794369 |     16794369 |     16794369 |     16794369 |     16794369 |     33571585 |     33571585 |     33571585 |     33571585 |     33571585 |     33571585 |     33571585 |     67132161 |     67132161 |     67132161 |     67132161 |     67132161 |     67132161 |     67132161 |    134253313 |    134253313 |    134253313 |    134253313 |    134253313 |    134253313 |    134253313 |
sim_elapsed_time                                 1 |            1 |            1 |            1 |            1 |            1 |            1 |            1 |            1 |            1 |            1 |            1 |            1 |            1 |            1 |            1 |            1 |            1 |            1 |            1 |            1 |            1 |            1 |            1 |            1 |            1 |            1 |            1 |            1 |            1 |            1 |            1 |            1 |            1 |            1 |            1 |            1 |            1 |            1 |            1 |            1 |            2 |            2 |            2 |            2 |            3 |            2 |            2 |            2 |            4 |            4 |            5 |            4 |            5 |            4 |            5 |            9 |           10 |            9 |            9 |            9 |            9 |            9 |           18 |           19 |           18 |           18 |           18 |           18 |           18 |           36 |           36 |           37 |           36 |           36 |           36 |           38 |
sim_inst_rate                          378847.0000 |  378847.0000 |  378847.0000 |  378847.0000 |  378847.0000 |  378847.0000 |  378847.0000 |  744419.0000 |  744419.0000 |  744419.0000 |  744419.0000 |  744419.0000 |  744419.0000 |  744419.0000 | 1475557.0000 | 1475557.0000 | 1475557.0000 | 1475557.0000 | 1475557.0000 | 1475557.0000 | 1475557.0000 | 2937830.0000 | 2937830.0000 | 2937830.0000 | 2937830.0000 | 2937830.0000 | 2937830.0000 | 2937830.0000 | 5862374.0000 | 5862374.0000 | 5862374.0000 | 5862374.0000 | 5862374.0000 | 5862374.0000 | 5862374.0000 |11711463.0000 |11711463.0000 |11711463.0000 |11711463.0000 |11711463.0000 |11711463.0000 | 5855731.5000 |11704819.5000 |11704819.5000 |11704819.5000 | 7803213.0000 |11704819.5000 |11704819.5000 |11704819.5000 |11704616.7500 |11704616.7500 | 9363693.4000 |11704616.7500 | 9363693.4000 |11704616.7500 | 9363693.4000 |10401241.2222 | 9361117.1000 |10401241.2222 |10401241.2222 |10401241.2222 |10401241.2222 |10401241.2222 |10400322.3889 | 9852937.0000 |10400322.3889 |10400322.3889 |10400322.3889 |10400322.3889 |10400322.3889 |10399862.7500 |10399862.7500 |10118785.3784 |10399862.7500 |10399862.7500 |10399862.7500 | 9852501.5526 |
sim_num_branches                              9290 |         9290 |         9290 |         9290 |         9290 |         9290 |         9290 |        17482 |        17482 |        17482 |        17482 |        17482 |        17482 |        17482 |        33866 |        33866 |        33866 |        33866 |        33866 |        33866 |        33866 |        66634 |        66634 |        66634 |        66634 |        66634 |        66634 |        66634 |       132170 |       132170 |       132170 |       132170 |       132170 |       132170 |       132170 |       263242 |       263242 |       263242 |       263242 |       263242 |       263242 |       263242 |       525386 |       525386 |       525386 |       525386 |       525386 |       525386 |       525386 |      1050467 |      1050467 |      1050467 |      1050467 |      1050467 |      1050467 |      1050467 |      2099043 |      2099043 |      2099043 |      2099043 |      2099043 |      2099043 |      2099043 |      4196966 |      4196966 |      4196966 |      4196966 |      4196966 |      4196966 |      4196966 |      8392809 |      8392809 |      8392809 |      8392809 |      8392809 |      8392809 |      8392809 |
sim_IPB                                    40.7801 |      40.7801 |      40.7801 |      40.7801 |      40.7801 |      40.7801 |      40.7801 |      42.5820 |      42.5820 |      42.5820 |      42.5820 |      42.5820 |      42.5820 |      42.5820 |      43.5705 |      43.5705 |      43.5705 |      43.5705 |      43.5705 |      43.5705 |      43.5705 |      44.0891 |      44.0891 |      44.0891 |      44.0891 |      44.0891 |      44.0891 |      44.0891 |      44.3548 |      44.3548 |      44.3548 |      44.3548 |      44.3548 |      44.3548 |      44.3548 |      44.4893 |      44.4893 |      44.4893 |      44.4893 |      44.4893 |      44.4893 |      44.4893 |      44.5570 |      44.5570 |      44.5570 |      44.5570 |      44.5570 |      44.5570 |      44.5570 |      44.5692 |      44.5692 |      44.5692 |      44.5692 |      44.5692 |      44.5692 |      44.5692 |      44.5971 |      44.5971 |      44.5971 |      44.5971 |      44.5971 |      44.5971 |      44.5971 |      44.6050 |      44.6050 |      44.6050 |      44.6050 |      44.6050 |      44.6050 |      44.6050 |      44.6090 |      44.6090 |      44.6090 |      44.6090 |      44.6090 |      44.6090 |      44.6090 |
bpred_bimod.lookups                           9290 |         9290 |         9290 |xxxxxxxxxxxxx |xxxxxxxxxxxxx |xxxxxxxxxxxxx |xxxxxxxxxxxxx |        17482 |        17482 |        17482 |xxxxxxxxxxxxx |xxxxxxxxxxxxx |xxxxxxxxxxxxx |xxxxxxxxxxxxx |        33866 |        33866 |        33866 |xxxxxxxxxxxxx |xxxxxxxxxxxxx |xxxxxxxxxxxxx |xxxxxxxxxxxxx |        66634 |        66634 |        66634 |xxxxxxxxxxxxx |xxxxxxxxxxxxx |xxxxxxxxxxxxx |xxxxxxxxxxxxx |       132170 |       132170 |       132170 |xxxxxxxxxxxxx |xxxxxxxxxxxxx |xxxxxxxxxxxxx |xxxxxxxxxxxxx |       263242 |       263242 |       263242 |xxxxxxxxxxxxx |xxxxxxxxxxxxx |xxxxxxxxxxxxx |xxxxxxxxxxxxx |       525386 |       525386 |       525386 |xxxxxxxxxxxxx |xxxxxxxxxxxxx |xxxxxxxxxxxxx |xxxxxxxxxxxxx |      1050467 |      1050467 |      1050467 |xxxxxxxxxxxxx |xxxxxxxxxxxxx |xxxxxxxxxxxxx |xxxxxxxxxxxxx |      2099043 |      2099043 |      2099043 |xxxxxxxxxxxxx |xxxxxxxxxxxxx |xxxxxxxxxxxxx |xxxxxxxxxxxxx |      4196966 |      4196966 |      4196966 |xxxxxxxxxxxxx |xxxxxxxxxxxxx |xxxxxxxxxxxxx |xxxxxxxxxxxxx |      8392809 |      8392809 |      8392809 |
bpred_bimod.updates                           9290 |         9290 |         9290 |xxxxxxxxxxxxx |xxxxxxxxxxxxx |xxxxxxxxxxxxx |xxxxxxxxxxxxx |        17482 |        17482 |        17482 |xxxxxxxxxxxxx |xxxxxxxxxxxxx |xxxxxxxxxxxxx |xxxxxxxxxxxxx |        33866 |        33866 |        33866 |xxxxxxxxxxxxx |xxxxxxxxxxxxx |xxxxxxxxxxxxx |xxxxxxxxxxxxx |        66634 |        66634 |        66634 |xxxxxxxxxxxxx |xxxxxxxxxxxxx |xxxxxxxxxxxxx |xxxxxxxxxxxxx |       132170 |       132170 |       132170 |xxxxxxxxxxxxx |xxxxxxxxxxxxx |xxxxxxxxxxxxx |xxxxxxxxxxxxx |       263242 |       263242 |       263242 |xxxxxxxxxxxxx |xxxxxxxxxxxxx |xxxxxxxxxxxxx |xxxxxxxxxxxxx |       525386 |       525386 |       525386 |xxxxxxxxxxxxx |xxxxxxxxxxxxx |xxxxxxxxxxxxx |xxxxxxxxxxxxx |      1050467 |      1050467 |      1050467 |xxxxxxxxxxxxx |xxxxxxxxxxxxx |xxxxxxxxxxxxx |xxxxxxxxxxxxx |      2099043 |      2099043 |      2099043 |xxxxxxxxxxxxx |xxxxxxxxxxxxx |xxxxxxxxxxxxx |xxxxxxxxxxxxx |      4196966 |      4196966 |      4196966 |xxxxxxxxxxxxx |xxxxxxxxxxxxx |xxxxxxxxxxxxx |xxxxxxxxxxxxx |      8392809 |      8392809 |      8392809 |
bpred_bimod.addr_hits                         9075 |         9078 |         9079 |xxxxxxxxxxxxx |xxxxxxxxxxxxx |xxxxxxxxxxxxx |xxxxxxxxxxxxx |        17266 |        17270 |        17271 |xxxxxxxxxxxxx |xxxxxxxxxxxxx |xxxxxxxxxxxxx |xxxxxxxxxxxxx |        33653 |        33655 |        33656 |xxxxxxxxxxxxx |xxxxxxxxxxxxx |xxxxxxxxxxxxx |xxxxxxxxxxxxx |        66420 |        66423 |        66424 |xxxxxxxxxxxxx |xxxxxxxxxxxxx |xxxxxxxxxxxxx |xxxxxxxxxxxxx |       131956 |       131959 |       131960 |xxxxxxxxxxxxx |xxxxxxxxxxxxx |xxxxxxxxxxxxx |xxxxxxxxxxxxx |       263028 |       263031 |       263032 |xxxxxxxxxxxxx |xxxxxxxxxxxxx |xxxxxxxxxxxxx |xxxxxxxxxxxxx |       525172 |       525175 |       525176 |xxxxxxxxxxxxx |xxxxxxxxxxxxx |xxxxxxxxxxxxx |xxxxxxxxxxxxx |      1050227 |      1050230 |      1050230 |xxxxxxxxxxxxx |xxxxxxxxxxxxx |xxxxxxxxxxxxx |xxxxxxxxxxxxx |      2098803 |      2098806 |      2098806 |xxxxxxxxxxxxx |xxxxxxxxxxxxx |xxxxxxxxxxxxx |xxxxxxxxxxxxx |      4196726 |      4196729 |      4196729 |xxxxxxxxxxxxx |xxxxxxxxxxxxx |xxxxxxxxxxxxx |xxxxxxxxxxxxx |      8392569 |      8392572 |      8392572 |
bpred_bimod.dir_hits                          9184 |         9183 |         9184 |xxxxxxxxxxxxx |xxxxxxxxxxxxx |xxxxxxxxxxxxx |xxxxxxxxxxxxx |        17371 |        17376 |        17376 |xxxxxxxxxxxxx |xxxxxxxxxxxxx |xxxxxxxxxxxxx |xxxxxxxxxxxxx |        33760 |        33760 |        33761 |xxxxxxxxxxxxx |xxxxxxxxxxxxx |xxxxxxxxxxxxx |xxxxxxxxxxxxx |        66525 |        66526 |        66528 |xxxxxxxxxxxxx |xxxxxxxxxxxxx |xxxxxxxxxxxxx |xxxxxxxxxxxxx |       132061 |       132062 |       132064 |xxxxxxxxxxxxx |xxxxxxxxxxxxx |xxxxxxxxxxxxx |xxxxxxxxxxxxx |       263134 |       263135 |       263137 |xxxxxxxxxxxxx |xxxxxxxxxxxxx |xxxxxxxxxxxxx |xxxxxxxxxxxxx |       525278 |       525279 |       525281 |xxxxxxxxxxxxx |xxxxxxxxxxxxx |xxxxxxxxxxxxx |xxxxxxxxxxxxx |      1050344 |      1050345 |      1050346 |xxxxxxxxxxxxx |xxxxxxxxxxxxx |xxxxxxxxxxxxx |xxxxxxxxxxxxx |      2098920 |      2098921 |      2098922 |xxxxxxxxxxxxx |xxxxxxxxxxxxx |xxxxxxxxxxxxx |xxxxxxxxxxxxx |      4196843 |      4196844 |      4196845 |xxxxxxxxxxxxx |xxxxxxxxxxxxx |xxxxxxxxxxxxx |xxxxxxxxxxxxx |      8392686 |      8392687 |      8392688 |
bpred_bimod.misses                             106 |          107 |          106 |xxxxxxxxxxxxx |xxxxxxxxxxxxx |xxxxxxxxxxxxx |xxxxxxxxxxxxx |          111 |          106 |          106 |xxxxxxxxxxxxx |xxxxxxxxxxxxx |xxxxxxxxxxxxx |xxxxxxxxxxxxx |          106 |          106 |          105 |xxxxxxxxxxxxx |xxxxxxxxxxxxx |xxxxxxxxxxxxx |xxxxxxxxxxxxx |          109 |          108 |          106 |xxxxxxxxxxxxx |xxxxxxxxxxxxx |xxxxxxxxxxxxx |xxxxxxxxxxxxx |          109 |          108 |          106 |xxxxxxxxxxxxx |xxxxxxxxxxxxx |xxxxxxxxxxxxx |xxxxxxxxxxxxx |          108 |          107 |          105 |xxxxxxxxxxxxx |xxxxxxxxxxxxx |xxxxxxxxxxxxx |xxxxxxxxxxxxx |          108 |          107 |          105 |xxxxxxxxxxxxx |xxxxxxxxxxxxx |xxxxxxxxxxxxx |xxxxxxxxxxxxx |          123 |          122 |          121 |xxxxxxxxxxxxx |xxxxxxxxxxxxx |xxxxxxxxxxxxx |xxxxxxxxxxxxx |          123 |          122 |          121 |xxxxxxxxxxxxx |xxxxxxxxxxxxx |xxxxxxxxxxxxx |xxxxxxxxxxxxx |          123 |          122 |          121 |xxxxxxxxxxxxx |xxxxxxxxxxxxx |xxxxxxxxxxxxx |xxxxxxxxxxxxx |          123 |          122 |          121 |
bpred_bimod.jr_hits                             70 |           70 |           70 |xxxxxxxxxxxxx |xxxxxxxxxxxxx |xxxxxxxxxxxxx |xxxxxxxxxxxxx |           70 |           70 |           70 |xxxxxxxxxxxxx |xxxxxxxxxxxxx |xxxxxxxxxxxxx |xxxxxxxxxxxxx |           70 |           70 |           70 |xxxxxxxxxxxxx |xxxxxxxxxxxxx |xxxxxxxxxxxxx |xxxxxxxxxxxxx |           70 |           70 |           70 |xxxxxxxxxxxxx |xxxxxxxxxxxxx |xxxxxxxxxxxxx |xxxxxxxxxxxxx |           70 |           70 |           70 |xxxxxxxxxxxxx |xxxxxxxxxxxxx |xxxxxxxxxxxxx |xxxxxxxxxxxxx |           70 |           70 |           70 |xxxxxxxxxxxxx |xxxxxxxxxxxxx |xxxxxxxxxxxxx |xxxxxxxxxxxxx |           70 |           70 |           70 |xxxxxxxxxxxxx |xxxxxxxxxxxxx |xxxxxxxxxxxxx |xxxxxxxxxxxxx |           73 |           73 |           73 |xxxxxxxxxxxxx |xxxxxxxxxxxxx |xxxxxxxxxxxxx |xxxxxxxxxxxxx |           73 |           73 |           73 |xxxxxxxxxxxxx |xxxxxxxxxxxxx |xxxxxxxxxxxxx |xxxxxxxxxxxxx |           73 |           73 |           73 |xxxxxxxxxxxxx |xxxxxxxxxxxxx |xxxxxxxxxxxxx |xxxxxxxxxxxxx |           73 |           73 |           73 |
bpred_bimod.jr_seen                             71 |           71 |           71 |xxxxxxxxxxxxx |xxxxxxxxxxxxx |xxxxxxxxxxxxx |xxxxxxxxxxxxx |           71 |           71 |           71 |xxxxxxxxxxxxx |xxxxxxxxxxxxx |xxxxxxxxxxxxx |xxxxxxxxxxxxx |           71 |           71 |           71 |xxxxxxxxxxxxx |xxxxxxxxxxxxx |xxxxxxxxxxxxx |xxxxxxxxxxxxx |           71 |           71 |           71 |xxxxxxxxxxxxx |xxxxxxxxxxxxx |xxxxxxxxxxxxx |xxxxxxxxxxxxx |           71 |           71 |           71 |xxxxxxxxxxxxx |xxxxxxxxxxxxx |xxxxxxxxxxxxx |xxxxxxxxxxxxx |           71 |           71 |           71 |xxxxxxxxxxxxx |xxxxxxxxxxxxx |xxxxxxxxxxxxx |xxxxxxxxxxxxx |           71 |           71 |           71 |xxxxxxxxxxxxx |xxxxxxxxxxxxx |xxxxxxxxxxxxx |xxxxxxxxxxxxx |           74 |           74 |           74 |xxxxxxxxxxxxx |xxxxxxxxxxxxx |xxxxxxxxxxxxx |xxxxxxxxxxxxx |           74 |           74 |           74 |xxxxxxxxxxxxx |xxxxxxxxxxxxx |xxxxxxxxxxxxx |xxxxxxxxxxxxx |           74 |           74 |           74 |xxxxxxxxxxxxx |xxxxxxxxxxxxx |xxxxxxxxxxxxx |xxxxxxxxxxxxx |           74 |           74 |           74 |
bpred_bimod.jr_non_ras_hits.PP                   0 |            0 |            0 |xxxxxxxxxxxxx |xxxxxxxxxxxxx |xxxxxxxxxxxxx |xxxxxxxxxxxxx |            0 |            0 |            0 |xxxxxxxxxxxxx |xxxxxxxxxxxxx |xxxxxxxxxxxxx |xxxxxxxxxxxxx |            0 |            0 |            0 |xxxxxxxxxxxxx |xxxxxxxxxxxxx |xxxxxxxxxxxxx |xxxxxxxxxxxxx |            0 |            0 |            0 |xxxxxxxxxxxxx |xxxxxxxxxxxxx |xxxxxxxxxxxxx |xxxxxxxxxxxxx |            0 |            0 |            0 |xxxxxxxxxxxxx |xxxxxxxxxxxxx |xxxxxxxxxxxxx |xxxxxxxxxxxxx |            0 |            0 |            0 |xxxxxxxxxxxxx |xxxxxxxxxxxxx |xxxxxxxxxxxxx |xxxxxxxxxxxxx |            0 |            0 |            0 |xxxxxxxxxxxxx |xxxxxxxxxxxxx |xxxxxxxxxxxxx |xxxxxxxxxxxxx |            0 |            0 |            0 |xxxxxxxxxxxxx |xxxxxxxxxxxxx |xxxxxxxxxxxxx |xxxxxxxxxxxxx |            0 |            0 |            0 |xxxxxxxxxxxxx |xxxxxxxxxxxxx |xxxxxxxxxxxxx |xxxxxxxxxxxxx |            0 |            0 |            0 |xxxxxxxxxxxxx |xxxxxxxxxxxxx |xxxxxxxxxxxxx |xxxxxxxxxxxxx |            0 |            0 |            0 |
bpred_bimod.jr_non_ras_seen.PP                   0 |            0 |            0 |xxxxxxxxxxxxx |xxxxxxxxxxxxx |xxxxxxxxxxxxx |xxxxxxxxxxxxx |            0 |            0 |            0 |xxxxxxxxxxxxx |xxxxxxxxxxxxx |xxxxxxxxxxxxx |xxxxxxxxxxxxx |            0 |            0 |            0 |xxxxxxxxxxxxx |xxxxxxxxxxxxx |xxxxxxxxxxxxx |xxxxxxxxxxxxx |            0 |            0 |            0 |xxxxxxxxxxxxx |xxxxxxxxxxxxx |xxxxxxxxxxxxx |xxxxxxxxxxxxx |            0 |            0 |            0 |xxxxxxxxxxxxx |xxxxxxxxxxxxx |xxxxxxxxxxxxx |xxxxxxxxxxxxx |            0 |            0 |            0 |xxxxxxxxxxxxx |xxxxxxxxxxxxx |xxxxxxxxxxxxx |xxxxxxxxxxxxx |            0 |            0 |            0 |xxxxxxxxxxxxx |xxxxxxxxxxxxx |xxxxxxxxxxxxx |xxxxxxxxxxxxx |            1 |            1 |            1 |xxxxxxxxxxxxx |xxxxxxxxxxxxx |xxxxxxxxxxxxx |xxxxxxxxxxxxx |            1 |            1 |            1 |xxxxxxxxxxxxx |xxxxxxxxxxxxx |xxxxxxxxxxxxx |xxxxxxxxxxxxx |            1 |            1 |            1 |xxxxxxxxxxxxx |xxxxxxxxxxxxx |xxxxxxxxxxxxx |xxxxxxxxxxxxx |            1 |            1 |            1 |
bpred_bimod.bpred_addr_rate                 0.9769 |       0.9772 |       0.9773 |xxxxxxxxxxxxx |xxxxxxxxxxxxx |xxxxxxxxxxxxx |xxxxxxxxxxxxx |       0.9876 |       0.9879 |       0.9879 |xxxxxxxxxxxxx |xxxxxxxxxxxxx |xxxxxxxxxxxxx |xxxxxxxxxxxxx |       0.9937 |       0.9938 |       0.9938 |xxxxxxxxxxxxx |xxxxxxxxxxxxx |xxxxxxxxxxxxx |xxxxxxxxxxxxx |       0.9968 |       0.9968 |       0.9968 |xxxxxxxxxxxxx |xxxxxxxxxxxxx |xxxxxxxxxxxxx |xxxxxxxxxxxxx |       0.9984 |       0.9984 |       0.9984 |xxxxxxxxxxxxx |xxxxxxxxxxxxx |xxxxxxxxxxxxx |xxxxxxxxxxxxx |       0.9992 |       0.9992 |       0.9992 |xxxxxxxxxxxxx |xxxxxxxxxxxxx |xxxxxxxxxxxxx |xxxxxxxxxxxxx |       0.9996 |       0.9996 |       0.9996 |xxxxxxxxxxxxx |xxxxxxxxxxxxx |xxxxxxxxxxxxx |xxxxxxxxxxxxx |       0.9998 |       0.9998 |       0.9998 |xxxxxxxxxxxxx |xxxxxxxxxxxxx |xxxxxxxxxxxxx |xxxxxxxxxxxxx |       0.9999 |       0.9999 |       0.9999 |xxxxxxxxxxxxx |xxxxxxxxxxxxx |xxxxxxxxxxxxx |xxxxxxxxxxxxx |       0.9999 |       0.9999 |       0.9999 |xxxxxxxxxxxxx |xxxxxxxxxxxxx |xxxxxxxxxxxxx |xxxxxxxxxxxxx |       1.0000 |       1.0000 |       1.0000 |
bpred_bimod.bpred_dir_rate                  0.9886 |       0.9885 |       0.9886 |xxxxxxxxxxxxx |xxxxxxxxxxxxx |xxxxxxxxxxxxx |xxxxxxxxxxxxx |       0.9937 |       0.9939 |       0.9939 |xxxxxxxxxxxxx |xxxxxxxxxxxxx |xxxxxxxxxxxxx |xxxxxxxxxxxxx |       0.9969 |       0.9969 |       0.9969 |xxxxxxxxxxxxx |xxxxxxxxxxxxx |xxxxxxxxxxxxx |xxxxxxxxxxxxx |       0.9984 |       0.9984 |       0.9984 |xxxxxxxxxxxxx |xxxxxxxxxxxxx |xxxxxxxxxxxxx |xxxxxxxxxxxxx |       0.9992 |       0.9992 |       0.9992 |xxxxxxxxxxxxx |xxxxxxxxxxxxx |xxxxxxxxxxxxx |xxxxxxxxxxxxx |       0.9996 |       0.9996 |       0.9996 |xxxxxxxxxxxxx |xxxxxxxxxxxxx |xxxxxxxxxxxxx |xxxxxxxxxxxxx |       0.9998 |       0.9998 |       0.9998 |xxxxxxxxxxxxx |xxxxxxxxxxxxx |xxxxxxxxxxxxx |xxxxxxxxxxxxx |       0.9999 |       0.9999 |       0.9999 |xxxxxxxxxxxxx |xxxxxxxxxxxxx |xxxxxxxxxxxxx |xxxxxxxxxxxxx |       0.9999 |       0.9999 |       0.9999 |xxxxxxxxxxxxx |xxxxxxxxxxxxx |xxxxxxxxxxxxx |xxxxxxxxxxxxx |       1.0000 |       1.0000 |       1.0000 |xxxxxxxxxxxxx |xxxxxxxxxxxxx |xxxxxxxxxxxxx |xxxxxxxxxxxxx |       1.0000 |       1.0000 |       1.0000 |
bpred_bimod.bpred_jr_rate                   0.9859 |       0.9859 |       0.9859 |xxxxxxxxxxxxx |xxxxxxxxxxxxx |xxxxxxxxxxxxx |xxxxxxxxxxxxx |       0.9859 |       0.9859 |       0.9859 |xxxxxxxxxxxxx |xxxxxxxxxxxxx |xxxxxxxxxxxxx |xxxxxxxxxxxxx |       0.9859 |       0.9859 |       0.9859 |xxxxxxxxxxxxx |xxxxxxxxxxxxx |xxxxxxxxxxxxx |xxxxxxxxxxxxx |       0.9859 |       0.9859 |       0.9859 |xxxxxxxxxxxxx |xxxxxxxxxxxxx |xxxxxxxxxxxxx |xxxxxxxxxxxxx |       0.9859 |       0.9859 |       0.9859 |xxxxxxxxxxxxx |xxxxxxxxxxxxx |xxxxxxxxxxxxx |xxxxxxxxxxxxx |       0.9859 |       0.9859 |       0.9859 |xxxxxxxxxxxxx |xxxxxxxxxxxxx |xxxxxxxxxxxxx |xxxxxxxxxxxxx |       0.9859 |       0.9859 |       0.9859 |xxxxxxxxxxxxx |xxxxxxxxxxxxx |xxxxxxxxxxxxx |xxxxxxxxxxxxx |       0.9865 |       0.9865 |       0.9865 |xxxxxxxxxxxxx |xxxxxxxxxxxxx |xxxxxxxxxxxxx |xxxxxxxxxxxxx |       0.9865 |       0.9865 |       0.9865 |xxxxxxxxxxxxx |xxxxxxxxxxxxx |xxxxxxxxxxxxx |xxxxxxxxxxxxx |       0.9865 |       0.9865 |       0.9865 |xxxxxxxxxxxxx |xxxxxxxxxxxxx |xxxxxxxxxxxxx |xxxxxxxxxxxxx |       0.9865 |       0.9865 |       0.9865 |
bpred_bimod.bpred_jr_non_ras_rate.PP       <error: |      <error: |      <error: |xxxxxxxxxxxxx |xxxxxxxxxxxxx |xxxxxxxxxxxxx |xxxxxxxxxxxxx |      <error: |      <error: |      <error: |xxxxxxxxxxxxx |xxxxxxxxxxxxx |xxxxxxxxxxxxx |xxxxxxxxxxxxx |      <error: |      <error: |      <error: |xxxxxxxxxxxxx |xxxxxxxxxxxxx |xxxxxxxxxxxxx |xxxxxxxxxxxxx |      <error: |      <error: |      <error: |xxxxxxxxxxxxx |xxxxxxxxxxxxx |xxxxxxxxxxxxx |xxxxxxxxxxxxx |      <error: |      <error: |      <error: |xxxxxxxxxxxxx |xxxxxxxxxxxxx |xxxxxxxxxxxxx |xxxxxxxxxxxxx |      <error: |      <error: |      <error: |xxxxxxxxxxxxx |xxxxxxxxxxxxx |xxxxxxxxxxxxx |xxxxxxxxxxxxx |      <error: |      <error: |      <error: |xxxxxxxxxxxxx |xxxxxxxxxxxxx |xxxxxxxxxxxxx |xxxxxxxxxxxxx |       0.0000 |       0.0000 |       0.0000 |xxxxxxxxxxxxx |xxxxxxxxxxxxx |xxxxxxxxxxxxx |xxxxxxxxxxxxx |       0.0000 |       0.0000 |       0.0000 |xxxxxxxxxxxxx |xxxxxxxxxxxxx |xxxxxxxxxxxxx |xxxxxxxxxxxxx |       0.0000 |       0.0000 |       0.0000 |xxxxxxxxxxxxx |xxxxxxxxxxxxx |xxxxxxxxxxxxx |xxxxxxxxxxxxx |       0.0000 |       0.0000 |       0.0000 |
bpred_bimod.retstack_pushes                     73 |           73 |           73 |xxxxxxxxxxxxx |xxxxxxxxxxxxx |xxxxxxxxxxxxx |xxxxxxxxxxxxx |           73 |           73 |           73 |xxxxxxxxxxxxx |xxxxxxxxxxxxx |xxxxxxxxxxxxx |xxxxxxxxxxxxx |           73 |           73 |           73 |xxxxxxxxxxxxx |xxxxxxxxxxxxx |xxxxxxxxxxxxx |xxxxxxxxxxxxx |           73 |           73 |           73 |xxxxxxxxxxxxx |xxxxxxxxxxxxx |xxxxxxxxxxxxx |xxxxxxxxxxxxx |           73 |           73 |           73 |xxxxxxxxxxxxx |xxxxxxxxxxxxx |xxxxxxxxxxxxx |xxxxxxxxxxxxx |           73 |           73 |           73 |xxxxxxxxxxxxx |xxxxxxxxxxxxx |xxxxxxxxxxxxx |xxxxxxxxxxxxx |           73 |           73 |           73 |xxxxxxxxxxxxx |xxxxxxxxxxxxx |xxxxxxxxxxxxx |xxxxxxxxxxxxx |           75 |           75 |           75 |xxxxxxxxxxxxx |xxxxxxxxxxxxx |xxxxxxxxxxxxx |xxxxxxxxxxxxx |           75 |           75 |           75 |xxxxxxxxxxxxx |xxxxxxxxxxxxx |xxxxxxxxxxxxx |xxxxxxxxxxxxx |           75 |           75 |           75 |xxxxxxxxxxxxx |xxxxxxxxxxxxx |xxxxxxxxxxxxx |xxxxxxxxxxxxx |           75 |           75 |           75 |
bpred_bimod.retstack_pops                       71 |           71 |           71 |xxxxxxxxxxxxx |xxxxxxxxxxxxx |xxxxxxxxxxxxx |xxxxxxxxxxxxx |           71 |           71 |           71 |xxxxxxxxxxxxx |xxxxxxxxxxxxx |xxxxxxxxxxxxx |xxxxxxxxxxxxx |           71 |           71 |           71 |xxxxxxxxxxxxx |xxxxxxxxxxxxx |xxxxxxxxxxxxx |xxxxxxxxxxxxx |           71 |           71 |           71 |xxxxxxxxxxxxx |xxxxxxxxxxxxx |xxxxxxxxxxxxx |xxxxxxxxxxxxx |           71 |           71 |           71 |xxxxxxxxxxxxx |xxxxxxxxxxxxx |xxxxxxxxxxxxx |xxxxxxxxxxxxx |           71 |           71 |           71 |xxxxxxxxxxxxx |xxxxxxxxxxxxx |xxxxxxxxxxxxx |xxxxxxxxxxxxx |           71 |           71 |           71 |xxxxxxxxxxxxx |xxxxxxxxxxxxx |xxxxxxxxxxxxx |xxxxxxxxxxxxx |           73 |           73 |           73 |xxxxxxxxxxxxx |xxxxxxxxxxxxx |xxxxxxxxxxxxx |xxxxxxxxxxxxx |           73 |           73 |           73 |xxxxxxxxxxxxx |xxxxxxxxxxxxx |xxxxxxxxxxxxx |xxxxxxxxxxxxx |           73 |           73 |           73 |xxxxxxxxxxxxx |xxxxxxxxxxxxx |xxxxxxxxxxxxx |xxxxxxxxxxxxx |           73 |           73 |           73 |
bpred_bimod.used_ras.PP                         71 |           71 |           71 |xxxxxxxxxxxxx |xxxxxxxxxxxxx |xxxxxxxxxxxxx |xxxxxxxxxxxxx |           71 |           71 |           71 |xxxxxxxxxxxxx |xxxxxxxxxxxxx |xxxxxxxxxxxxx |xxxxxxxxxxxxx |           71 |           71 |           71 |xxxxxxxxxxxxx |xxxxxxxxxxxxx |xxxxxxxxxxxxx |xxxxxxxxxxxxx |           71 |           71 |           71 |xxxxxxxxxxxxx |xxxxxxxxxxxxx |xxxxxxxxxxxxx |xxxxxxxxxxxxx |           71 |           71 |           71 |xxxxxxxxxxxxx |xxxxxxxxxxxxx |xxxxxxxxxxxxx |xxxxxxxxxxxxx |           71 |           71 |           71 |xxxxxxxxxxxxx |xxxxxxxxxxxxx |xxxxxxxxxxxxx |xxxxxxxxxxxxx |           71 |           71 |           71 |xxxxxxxxxxxxx |xxxxxxxxxxxxx |xxxxxxxxxxxxx |xxxxxxxxxxxxx |           73 |           73 |           73 |xxxxxxxxxxxxx |xxxxxxxxxxxxx |xxxxxxxxxxxxx |xxxxxxxxxxxxx |           73 |           73 |           73 |xxxxxxxxxxxxx |xxxxxxxxxxxxx |xxxxxxxxxxxxx |xxxxxxxxxxxxx |           73 |           73 |           73 |xxxxxxxxxxxxx |xxxxxxxxxxxxx |xxxxxxxxxxxxx |xxxxxxxxxxxxx |           73 |           73 |           73 |
bpred_bimod.ras_hits.PP                         70 |           70 |           70 |xxxxxxxxxxxxx |xxxxxxxxxxxxx |xxxxxxxxxxxxx |xxxxxxxxxxxxx |           70 |           70 |           70 |xxxxxxxxxxxxx |xxxxxxxxxxxxx |xxxxxxxxxxxxx |xxxxxxxxxxxxx |           70 |           70 |           70 |xxxxxxxxxxxxx |xxxxxxxxxxxxx |xxxxxxxxxxxxx |xxxxxxxxxxxxx |           70 |           70 |           70 |xxxxxxxxxxxxx |xxxxxxxxxxxxx |xxxxxxxxxxxxx |xxxxxxxxxxxxx |           70 |           70 |           70 |xxxxxxxxxxxxx |xxxxxxxxxxxxx |xxxxxxxxxxxxx |xxxxxxxxxxxxx |           70 |           70 |           70 |xxxxxxxxxxxxx |xxxxxxxxxxxxx |xxxxxxxxxxxxx |xxxxxxxxxxxxx |           70 |           70 |           70 |xxxxxxxxxxxxx |xxxxxxxxxxxxx |xxxxxxxxxxxxx |xxxxxxxxxxxxx |           73 |           73 |           73 |xxxxxxxxxxxxx |xxxxxxxxxxxxx |xxxxxxxxxxxxx |xxxxxxxxxxxxx |           73 |           73 |           73 |xxxxxxxxxxxxx |xxxxxxxxxxxxx |xxxxxxxxxxxxx |xxxxxxxxxxxxx |           73 |           73 |           73 |xxxxxxxxxxxxx |xxxxxxxxxxxxx |xxxxxxxxxxxxx |xxxxxxxxxxxxx |           73 |           73 |           73 |
bpred_bimod.ras_rate.PP                     0.9859 |       0.9859 |       0.9859 |xxxxxxxxxxxxx |xxxxxxxxxxxxx |xxxxxxxxxxxxx |xxxxxxxxxxxxx |       0.9859 |       0.9859 |       0.9859 |xxxxxxxxxxxxx |xxxxxxxxxxxxx |xxxxxxxxxxxxx |xxxxxxxxxxxxx |       0.9859 |       0.9859 |       0.9859 |xxxxxxxxxxxxx |xxxxxxxxxxxxx |xxxxxxxxxxxxx |xxxxxxxxxxxxx |       0.9859 |       0.9859 |       0.9859 |xxxxxxxxxxxxx |xxxxxxxxxxxxx |xxxxxxxxxxxxx |xxxxxxxxxxxxx |       0.9859 |       0.9859 |       0.9859 |xxxxxxxxxxxxx |xxxxxxxxxxxxx |xxxxxxxxxxxxx |xxxxxxxxxxxxx |       0.9859 |       0.9859 |       0.9859 |xxxxxxxxxxxxx |xxxxxxxxxxxxx |xxxxxxxxxxxxx |xxxxxxxxxxxxx |       0.9859 |       0.9859 |       0.9859 |xxxxxxxxxxxxx |xxxxxxxxxxxxx |xxxxxxxxxxxxx |xxxxxxxxxxxxx |       1.0000 |       1.0000 |       1.0000 |xxxxxxxxxxxxx |xxxxxxxxxxxxx |xxxxxxxxxxxxx |xxxxxxxxxxxxx |       1.0000 |       1.0000 |       1.0000 |xxxxxxxxxxxxx |xxxxxxxxxxxxx |xxxxxxxxxxxxx |xxxxxxxxxxxxx |       1.0000 |       1.0000 |       1.0000 |xxxxxxxxxxxxx |xxxxxxxxxxxxx |xxxxxxxxxxxxx |xxxxxxxxxxxxx |       1.0000 |       1.0000 |       1.0000 |
bpred_2lev.lookups                   xxxxxxxxxxxxx |xxxxxxxxxxxxx |xxxxxxxxxxxxx |         9290 |         9290 |         9290 |         9290 |xxxxxxxxxxxxx |xxxxxxxxxxxxx |xxxxxxxxxxxxx |        17482 |        17482 |        17482 |        17482 |xxxxxxxxxxxxx |xxxxxxxxxxxxx |xxxxxxxxxxxxx |        33866 |        33866 |        33866 |        33866 |xxxxxxxxxxxxx |xxxxxxxxxxxxx |xxxxxxxxxxxxx |        66634 |        66634 |        66634 |        66634 |xxxxxxxxxxxxx |xxxxxxxxxxxxx |xxxxxxxxxxxxx |       132170 |       132170 |       132170 |       132170 |xxxxxxxxxxxxx |xxxxxxxxxxxxx |xxxxxxxxxxxxx |       263242 |       263242 |       263242 |       263242 |xxxxxxxxxxxxx |xxxxxxxxxxxxx |xxxxxxxxxxxxx |       525386 |       525386 |       525386 |       525386 |xxxxxxxxxxxxx |xxxxxxxxxxxxx |xxxxxxxxxxxxx |      1050467 |      1050467 |      1050467 |      1050467 |xxxxxxxxxxxxx |xxxxxxxxxxxxx |xxxxxxxxxxxxx |      2099043 |      2099043 |      2099043 |      2099043 |xxxxxxxxxxxxx |xxxxxxxxxxxxx |xxxxxxxxxxxxx |      4196966 |      4196966 |      4196966 |      4196966 |xxxxxxxxxxxxx |xxxxxxxxxxxxx |xxxxxxxxxxxxx |      8392809 |      8392809 |      8392809 |      8392809 |
[...]
bpred_2lev.retstack_pops             xxxxxxxxxxxxx |xxxxxxxxxxxxx |xxxxxxxxxxxxx |           71 |           71 |           71 |           71 |xxxxxxxxxxxxx |xxxxxxxxxxxxx |xxxxxxxxxxxxx |           71 |           71 |           71 |           71 |xxxxxxxxxxxxx |xxxxxxxxxxxxx |xxxxxxxxxxxxx |           71 |           71 |           71 |           71 |xxxxxxxxxxxxx |xxxxxxxxxxxxx |xxxxxxxxxxxxx |           71 |           71 |           71 |           71 |xxxxxxxxxxxxx |xxxxxxxxxxxxx |xxxxxxxxxxxxx |           71 |           71 |           71 |           71 |xxxxxxxxxxxxx |xxxxxxxxxxxxx |xxxxxxxxxxxxx |           71 |           71 |           71 |           71 |xxxxxxxxxxxxx |xxxxxxxxxxxxx |xxxxxxxxxxxxx |           71 |           71 |           71 |           71 |xxxxxxxxxxxxx |xxxxxxxxxxxxx |xxxxxxxxxxxxx |           73 |           73 |           73 |           73 |xxxxxxxxxxxxx |xxxxxxxxxxxxx |xxxxxxxxxxxxx |           73 |           73 |           73 |           73 |xxxxxxxxxxxxx |xxxxxxxxxxxxx |xxxxxxxxxxxxx |           73 |           73 |           73 |           73 |xxxxxxxxxxxxx |xxxxxxxxxxxxx |xxxxxxxxxxxxx |           73 |           73 |           73 |           73 |
bpred_2lev.used_ras.PP               xxxxxxxxxxxxx |xxxxxxxxxxxxx |xxxxxxxxxxxxx |           71 |           71 |           71 |           71 |xxxxxxxxxxxxx |xxxxxxxxxxxxx |xxxxxxxxxxxxx |           71 |           71 |           71 |           71 |xxxxxxxxxxxxx |xxxxxxxxxxxxx |xxxxxxxxxxxxx |           71 |           71 |           71 |           71 |xxxxxxxxxxxxx |xxxxxxxxxxxxx |xxxxxxxxxxxxx |           71 |           71 |           71 |           71 |xxxxxxxxxxxxx |xxxxxxxxxxxxx |xxxxxxxxxxxxx |           71 |           71 |           71 |           71 |xxxxxxxxxxxxx |xxxxxxxxxxxxx |xxxxxxxxxxxxx |           71 |           71 |           71 |           71 |xxxxxxxxxxxxx |xxxxxxxxxxxxx |xxxxxxxxxxxxx |           71 |           71 |           71 |           71 |xxxxxxxxxxxxx |xxxxxxxxxxxxx |xxxxxxxxxxxxx |           73 |           73 |           73 |           73 |xxxxxxxxxxxxx |xxxxxxxxxxxxx |xxxxxxxxxxxxx |           73 |           73 |           73 |           73 |xxxxxxxxxxxxx |xxxxxxxxxxxxx |xxxxxxxxxxxxx |           73 |           73 |           73 |           73 |xxxxxxxxxxxxx |xxxxxxxxxxxxx |xxxxxxxxxxxxx |           73 |           73 |           73 |           73 |
bpred_2lev.ras_hits.PP               xxxxxxxxxxxxx |xxxxxxxxxxxxx |xxxxxxxxxxxxx |           70 |           70 |           70 |           70 |xxxxxxxxxxxxx |xxxxxxxxxxxxx |xxxxxxxxxxxxx |           70 |           70 |           70 |           70 |xxxxxxxxxxxxx |xxxxxxxxxxxxx |xxxxxxxxxxxxx |           70 |           70 |           70 |           70 |xxxxxxxxxxxxx |xxxxxxxxxxxxx |xxxxxxxxxxxxx |           70 |           70 |           70 |           70 |xxxxxxxxxxxxx |xxxxxxxxxxxxx |xxxxxxxxxxxxx |           70 |           70 |           70 |           70 |xxxxxxxxxxxxx |xxxxxxxxxxxxx |xxxxxxxxxxxxx |           70 |           70 |           70 |           70 |xxxxxxxxxxxxx |xxxxxxxxxxxxx |xxxxxxxxxxxxx |           70 |           70 |           70 |           70 |xxxxxxxxxxxxx |xxxxxxxxxxxxx |xxxxxxxxxxxxx |           73 |           73 |           73 |           73 |xxxxxxxxxxxxx |xxxxxxxxxxxxx |xxxxxxxxxxxxx |           73 |           73 |           73 |           73 |xxxxxxxxxxxxx |xxxxxxxxxxxxx |xxxxxxxxxxxxx |           73 |           73 |           73 |           73 |xxxxxxxxxxxxx |xxxxxxxxxxxxx |xxxxxxxxxxxxx |           73 |           73 |           73 |           73 |
bpred_2lev.ras_rate.PP               xxxxxxxxxxxxx |xxxxxxxxxxxxx |xxxxxxxxxxxxx |       0.9859 |       0.9859 |       0.9859 |       0.9859 |xxxxxxxxxxxxx |xxxxxxxxxxxxx |xxxxxxxxxxxxx |       0.9859 |       0.9859 |       0.9859 |       0.9859 |xxxxxxxxxxxxx |xxxxxxxxxxxxx |xxxxxxxxxxxxx |       0.9859 |       0.9859 |       0.9859 |       0.9859 |xxxxxxxxxxxxx |xxxxxxxxxxxxx |xxxxxxxxxxxxx |       0.9859 |       0.9859 |       0.9859 |       0.9859 |xxxxxxxxxxxxx |xxxxxxxxxxxxx |xxxxxxxxxxxxx |       0.9859 |       0.9859 |       0.9859 |       0.9859 |xxxxxxxxxxxxx |xxxxxxxxxxxxx |xxxxxxxxxxxxx |       0.9859 |       0.9859 |       0.9859 |       0.9859 |xxxxxxxxxxxxx |xxxxxxxxxxxxx |xxxxxxxxxxxxx |       0.9859 |       0.9859 |       0.9859 |       0.9859 |xxxxxxxxxxxxx |xxxxxxxxxxxxx |xxxxxxxxxxxxx |       1.0000 |       1.0000 |       1.0000 |       1.0000 |xxxxxxxxxxxxx |xxxxxxxxxxxxx |xxxxxxxxxxxxx |       1.0000 |       1.0000 |       1.0000 |       1.0000 |xxxxxxxxxxxxx |xxxxxxxxxxxxx |xxxxxxxxxxxxx |       1.0000 |       1.0000 |       1.0000 |       1.0000 |xxxxxxxxxxxxx |xxxxxxxxxxxxx |xxxxxxxxxxxxx |       1.0000 |       1.0000 |       1.0000 |       1.0000 |

Command list: 
	sslittle-na-sstrix-gcc -Wall -O3 -funroll-loops -finline-functions  -DRANDOM_SIZE=4096 -DOFFSET=3 -DSORT=aligned_cache_radixsort sorts/aligned_cache_radixsort1620421728.c simpleMain.c -o aligned_cache_radixsort786435786
	sim-cache -cache:dl1 dl1:256:32:1:l -cache:dl2 dl2:131072:32:1:l -cache:il1 il1:256:32:1:l -cache:il2 dl2 aligned_cache_radixsort786435786
	sim-cache -cache:dl1 dl1:256:32:1:l -cache:dl2 dl2:65536:32:1:l -cache:il1 il1:256:32:1:l -cache:il2 dl2 aligned_cache_radixsort786435786
	sim-cache -cache:dl1 dl1:1:32:256:l -cache:dl2 dl2:1:32:131072:l -cache:il1 il1:1:32:256:l -cache:il2 dl2 aligned_cache_radixsort786435786
	sim-cache -cache:dl1 dl1:1:32:256:l -cache:dl2 dl2:1:32:65536:l -cache:il1 il1:1:32:256:l -cache:il2 dl2 aligned_cache_radixsort786435786
	sim-bpred -bpred bimod -bpred:bimod 512 aligned_cache_radixsort786435786
	sim-bpred -bpred bimod -bpred:bimod 1024 aligned_cache_radixsort786435786
	sim-bpred -bpred bimod -bpred:bimod 2048 aligned_cache_radixsort786435786
	sim-bpred -bpred 2lev -bpred:2lev 1 512 10 1 aligned_cache_radixsort786435786
	sim-bpred -bpred 2lev -bpred:2lev 1 1024 10 1 aligned_cache_radixsort786435786
	sim-bpred -bpred 2lev -bpred:2lev 1 2048 10 1 aligned_cache_radixsort786435786
	sim-bpred -bpred 2lev -bpred:2lev 1 4096 10 1 aligned_cache_radixsort786435786
	sslittle-na-sstrix-gcc -Wall -O3 -funroll-loops -finline-functions  -DRANDOM_SIZE=8192 -DOFFSET=3 -DSORT=aligned_cache_radixsort sorts/aligned_cache_radixsort1620421728.c simpleMain.c -o aligned_cache_radixsort786435786
	sim-cache -cache:dl1 dl1:256:32:1:l -cache:dl2 dl2:131072:32:1:l -cache:il1 il1:256:32:1:l -cache:il2 dl2 aligned_cache_radixsort786435786
	sim-cache -cache:dl1 dl1:256:32:1:l -cache:dl2 dl2:65536:32:1:l -cache:il1 il1:256:32:1:l -cache:il2 dl2 aligned_cache_radixsort786435786
	sim-cache -cache:dl1 dl1:1:32:256:l -cache:dl2 dl2:1:32:131072:l -cache:il1 il1:1:32:256:l -cache:il2 dl2 aligned_cache_radixsort786435786
	sim-cache -cache:dl1 dl1:1:32:256:l -cache:dl2 dl2:1:32:65536:l -cache:il1 il1:1:32:256:l -cache:il2 dl2 aligned_cache_radixsort786435786
	sim-bpred -bpred bimod -bpred:bimod 512 aligned_cache_radixsort786435786
	sim-bpred -bpred bimod -bpred:bimod 1024 aligned_cache_radixsort786435786
	sim-bpred -bpred bimod -bpred:bimod 2048 aligned_cache_radixsort786435786
	sim-bpred -bpred 2lev -bpred:2lev 1 512 10 1 aligned_cache_radixsort786435786
	sim-bpred -bpred 2lev -bpred:2lev 1 1024 10 1 aligned_cache_radixsort786435786
	sim-bpred -bpred 2lev -bpred:2lev 1 2048 10 1 aligned_cache_radixsort786435786
	sim-bpred -bpred 2lev -bpred:2lev 1 4096 10 1 aligned_cache_radixsort786435786
	sslittle-na-sstrix-gcc -Wall -O3 -funroll-loops -finline-functions  -DRANDOM_SIZE=16384 -DOFFSET=3 -DSORT=aligned_cache_radixsort sorts/aligned_cache_radixsort1620421728.c simpleMain.c -o aligned_cache_radixsort786435786
	sim-cache -cache:dl1 dl1:256:32:1:l -cache:dl2 dl2:131072:32:1:l -cache:il1 il1:256:32:1:l -cache:il2 dl2 aligned_cache_radixsort786435786
	sim-cache -cache:dl1 dl1:256:32:1:l -cache:dl2 dl2:65536:32:1:l -cache:il1 il1:256:32:1:l -cache:il2 dl2 aligned_cache_radixsort786435786
	sim-cache -cache:dl1 dl1:1:32:256:l -cache:dl2 dl2:1:32:131072:l -cache:il1 il1:1:32:256:l -cache:il2 dl2 aligned_cache_radixsort786435786
	sim-cache -cache:dl1 dl1:1:32:256:l -cache:dl2 dl2:1:32:65536:l -cache:il1 il1:1:32:256:l -cache:il2 dl2 aligned_cache_radixsort786435786
	sim-bpred -bpred bimod -bpred:bimod 512 aligned_cache_radixsort786435786
	sim-bpred -bpred bimod -bpred:bimod 1024 aligned_cache_radixsort786435786
	sim-bpred -bpred bimod -bpred:bimod 2048 aligned_cache_radixsort786435786
	sim-bpred -bpred 2lev -bpred:2lev 1 512 10 1 aligned_cache_radixsort786435786
	sim-bpred -bpred 2lev -bpred:2lev 1 1024 10 1 aligned_cache_radixsort786435786
	sim-bpred -bpred 2lev -bpred:2lev 1 2048 10 1 aligned_cache_radixsort786435786
	sim-bpred -bpred 2lev -bpred:2lev 1 4096 10 1 aligned_cache_radixsort786435786
	sslittle-na-sstrix-gcc -Wall -O3 -funroll-loops -finline-functions  -DRANDOM_SIZE=32768 -DOFFSET=3 -DSORT=aligned_cache_radixsort sorts/aligned_cache_radixsort1620421728.c simpleMain.c -o aligned_cache_radixsort786435786
	sim-cache -cache:dl1 dl1:256:32:1:l -cache:dl2 dl2:131072:32:1:l -cache:il1 il1:256:32:1:l -cache:il2 dl2 aligned_cache_radixsort786435786
	sim-cache -cache:dl1 dl1:256:32:1:l -cache:dl2 dl2:65536:32:1:l -cache:il1 il1:256:32:1:l -cache:il2 dl2 aligned_cache_radixsort786435786
	sim-cache -cache:dl1 dl1:1:32:256:l -cache:dl2 dl2:1:32:131072:l -cache:il1 il1:1:32:256:l -cache:il2 dl2 aligned_cache_radixsort786435786
	sim-cache -cache:dl1 dl1:1:32:256:l -cache:dl2 dl2:1:32:65536:l -cache:il1 il1:1:32:256:l -cache:il2 dl2 aligned_cache_radixsort786435786
	sim-bpred -bpred bimod -bpred:bimod 512 aligned_cache_radixsort786435786
	sim-bpred -bpred bimod -bpred:bimod 1024 aligned_cache_radixsort786435786
	sim-bpred -bpred bimod -bpred:bimod 2048 aligned_cache_radixsort786435786
	sim-bpred -bpred 2lev -bpred:2lev 1 512 10 1 aligned_cache_radixsort786435786
	sim-bpred -bpred 2lev -bpred:2lev 1 1024 10 1 aligned_cache_radixsort786435786
	sim-bpred -bpred 2lev -bpred:2lev 1 2048 10 1 aligned_cache_radixsort786435786
	sim-bpred -bpred 2lev -bpred:2lev 1 4096 10 1 aligned_cache_radixsort786435786
	sslittle-na-sstrix-gcc -Wall -O3 -funroll-loops -finline-functions  -DRANDOM_SIZE=65536 -DOFFSET=3 -DSORT=aligned_cache_radixsort sorts/aligned_cache_radixsort1620421728.c simpleMain.c -o aligned_cache_radixsort786435786
	sim-cache -cache:dl1 dl1:256:32:1:l -cache:dl2 dl2:131072:32:1:l -cache:il1 il1:256:32:1:l -cache:il2 dl2 aligned_cache_radixsort786435786
	sim-cache -cache:dl1 dl1:256:32:1:l -cache:dl2 dl2:65536:32:1:l -cache:il1 il1:256:32:1:l -cache:il2 dl2 aligned_cache_radixsort786435786
	sim-cache -cache:dl1 dl1:1:32:256:l -cache:dl2 dl2:1:32:131072:l -cache:il1 il1:1:32:256:l -cache:il2 dl2 aligned_cache_radixsort786435786
	sim-cache -cache:dl1 dl1:1:32:256:l -cache:dl2 dl2:1:32:65536:l -cache:il1 il1:1:32:256:l -cache:il2 dl2 aligned_cache_radixsort786435786
	sim-bpred -bpred bimod -bpred:bimod 512 aligned_cache_radixsort786435786
	sim-bpred -bpred bimod -bpred:bimod 1024 aligned_cache_radixsort786435786
	sim-bpred -bpred bimod -bpred:bimod 2048 aligned_cache_radixsort786435786
	sim-bpred -bpred 2lev -bpred:2lev 1 512 10 1 aligned_cache_radixsort786435786
	sim-bpred -bpred 2lev -bpred:2lev 1 1024 10 1 aligned_cache_radixsort786435786
	sim-bpred -bpred 2lev -bpred:2lev 1 2048 10 1 aligned_cache_radixsort786435786
	sim-bpred -bpred 2lev -bpred:2lev 1 4096 10 1 aligned_cache_radixsort786435786
	sslittle-na-sstrix-gcc -Wall -O3 -funroll-loops -finline-functions  -DRANDOM_SIZE=131072 -DOFFSET=3 -DSORT=aligned_cache_radixsort sorts/aligned_cache_radixsort1620421728.c simpleMain.c -o aligned_cache_radixsort786435786
	sim-cache -cache:dl1 dl1:256:32:1:l -cache:dl2 dl2:131072:32:1:l -cache:il1 il1:256:32:1:l -cache:il2 dl2 aligned_cache_radixsort786435786
	sim-cache -cache:dl1 dl1:256:32:1:l -cache:dl2 dl2:65536:32:1:l -cache:il1 il1:256:32:1:l -cache:il2 dl2 aligned_cache_radixsort786435786
	sim-cache -cache:dl1 dl1:1:32:256:l -cache:dl2 dl2:1:32:131072:l -cache:il1 il1:1:32:256:l -cache:il2 dl2 aligned_cache_radixsort786435786
	sim-cache -cache:dl1 dl1:1:32:256:l -cache:dl2 dl2:1:32:65536:l -cache:il1 il1:1:32:256:l -cache:il2 dl2 aligned_cache_radixsort786435786
	sim-bpred -bpred bimod -bpred:bimod 512 aligned_cache_radixsort786435786
	sim-bpred -bpred bimod -bpred:bimod 1024 aligned_cache_radixsort786435786
	sim-bpred -bpred bimod -bpred:bimod 2048 aligned_cache_radixsort786435786
	sim-bpred -bpred 2lev -bpred:2lev 1 512 10 1 aligned_cache_radixsort786435786
	sim-bpred -bpred 2lev -bpred:2lev 1 1024 10 1 aligned_cache_radixsort786435786
	sim-bpred -bpred 2lev -bpred:2lev 1 2048 10 1 aligned_cache_radixsort786435786
	sim-bpred -bpred 2lev -bpred:2lev 1 4096 10 1 aligned_cache_radixsort786435786
	sslittle-na-sstrix-gcc -Wall -O3 -funroll-loops -finline-functions  -DRANDOM_SIZE=262144 -DOFFSET=3 -DSORT=aligned_cache_radixsort sorts/aligned_cache_radixsort1620421728.c simpleMain.c -o aligned_cache_radixsort786435786
	sim-cache -cache:dl1 dl1:256:32:1:l -cache:dl2 dl2:131072:32:1:l -cache:il1 il1:256:32:1:l -cache:il2 dl2 aligned_cache_radixsort786435786
	sim-cache -cache:dl1 dl1:256:32:1:l -cache:dl2 dl2:65536:32:1:l -cache:il1 il1:256:32:1:l -cache:il2 dl2 aligned_cache_radixsort786435786
	sim-cache -cache:dl1 dl1:1:32:256:l -cache:dl2 dl2:1:32:131072:l -cache:il1 il1:1:32:256:l -cache:il2 dl2 aligned_cache_radixsort786435786
	sim-cache -cache:dl1 dl1:1:32:256:l -cache:dl2 dl2:1:32:65536:l -cache:il1 il1:1:32:256:l -cache:il2 dl2 aligned_cache_radixsort786435786
	sim-bpred -bpred bimod -bpred:bimod 512 aligned_cache_radixsort786435786
	sim-bpred -bpred bimod -bpred:bimod 1024 aligned_cache_radixsort786435786
	sim-bpred -bpred bimod -bpred:bimod 2048 aligned_cache_radixsort786435786
	sim-bpred -bpred 2lev -bpred:2lev 1 512 10 1 aligned_cache_radixsort786435786
	sim-bpred -bpred 2lev -bpred:2lev 1 1024 10 1 aligned_cache_radixsort786435786
	sim-bpred -bpred 2lev -bpred:2lev 1 2048 10 1 aligned_cache_radixsort786435786
	sim-bpred -bpred 2lev -bpred:2lev 1 4096 10 1 aligned_cache_radixsort786435786
	sslittle-na-sstrix-gcc -Wall -O3 -funroll-loops -finline-functions  -DRANDOM_SIZE=524288 -DOFFSET=3 -DSORT=aligned_cache_radixsort sorts/aligned_cache_radixsort1620421728.c simpleMain.c -o aligned_cache_radixsort786435786
	sim-cache -cache:dl1 dl1:256:32:1:l -cache:dl2 dl2:131072:32:1:l -cache:il1 il1:256:32:1:l -cache:il2 dl2 aligned_cache_radixsort786435786
	sim-cache -cache:dl1 dl1:256:32:1:l -cache:dl2 dl2:65536:32:1:l -cache:il1 il1:256:32:1:l -cache:il2 dl2 aligned_cache_radixsort786435786
	sim-cache -cache:dl1 dl1:1:32:256:l -cache:dl2 dl2:1:32:131072:l -cache:il1 il1:1:32:256:l -cache:il2 dl2 aligned_cache_radixsort786435786
	sim-cache -cache:dl1 dl1:1:32:256:l -cache:dl2 dl2:1:32:65536:l -cache:il1 il1:1:32:256:l -cache:il2 dl2 aligned_cache_radixsort786435786
	sim-bpred -bpred bimod -bpred:bimod 512 aligned_cache_radixsort786435786
	sim-bpred -bpred bimod -bpred:bimod 1024 aligned_cache_radixsort786435786
	sim-bpred -bpred bimod -bpred:bimod 2048 aligned_cache_radixsort786435786
	sim-bpred -bpred 2lev -bpred:2lev 1 512 10 1 aligned_cache_radixsort786435786
	sim-bpred -bpred 2lev -bpred:2lev 1 1024 10 1 aligned_cache_radixsort786435786
	sim-bpred -bpred 2lev -bpred:2lev 1 2048 10 1 aligned_cache_radixsort786435786
	sim-bpred -bpred 2lev -bpred:2lev 1 4096 10 1 aligned_cache_radixsort786435786
	sslittle-na-sstrix-gcc -Wall -O3 -funroll-loops -finline-functions  -DRANDOM_SIZE=1048576 -DOFFSET=3 -DSORT=aligned_cache_radixsort sorts/aligned_cache_radixsort1620421728.c simpleMain.c -o aligned_cache_radixsort786435786
	sim-cache -cache:dl1 dl1:256:32:1:l -cache:dl2 dl2:131072:32:1:l -cache:il1 il1:256:32:1:l -cache:il2 dl2 aligned_cache_radixsort786435786
	sim-cache -cache:dl1 dl1:256:32:1:l -cache:dl2 dl2:65536:32:1:l -cache:il1 il1:256:32:1:l -cache:il2 dl2 aligned_cache_radixsort786435786
	sim-cache -cache:dl1 dl1:1:32:256:l -cache:dl2 dl2:1:32:131072:l -cache:il1 il1:1:32:256:l -cache:il2 dl2 aligned_cache_radixsort786435786
	sim-cache -cache:dl1 dl1:1:32:256:l -cache:dl2 dl2:1:32:65536:l -cache:il1 il1:1:32:256:l -cache:il2 dl2 aligned_cache_radixsort786435786
	sim-bpred -bpred bimod -bpred:bimod 512 aligned_cache_radixsort786435786
	sim-bpred -bpred bimod -bpred:bimod 1024 aligned_cache_radixsort786435786
	sim-bpred -bpred bimod -bpred:bimod 2048 aligned_cache_radixsort786435786
	sim-bpred -bpred 2lev -bpred:2lev 1 512 10 1 aligned_cache_radixsort786435786
	sim-bpred -bpred 2lev -bpred:2lev 1 1024 10 1 aligned_cache_radixsort786435786
	sim-bpred -bpred 2lev -bpred:2lev 1 2048 10 1 aligned_cache_radixsort786435786
	sim-bpred -bpred 2lev -bpred:2lev 1 4096 10 1 aligned_cache_radixsort786435786
	sslittle-na-sstrix-gcc -Wall -O3 -funroll-loops -finline-functions  -DRANDOM_SIZE=2097152 -DOFFSET=3 -DSORT=aligned_cache_radixsort sorts/aligned_cache_radixsort1620421728.c simpleMain.c -o aligned_cache_radixsort786435786
	sim-cache -cache:dl1 dl1:256:32:1:l -cache:dl2 dl2:131072:32:1:l -cache:il1 il1:256:32:1:l -cache:il2 dl2 aligned_cache_radixsort786435786
	sim-cache -cache:dl1 dl1:256:32:1:l -cache:dl2 dl2:65536:32:1:l -cache:il1 il1:256:32:1:l -cache:il2 dl2 aligned_cache_radixsort786435786
	sim-cache -cache:dl1 dl1:1:32:256:l -cache:dl2 dl2:1:32:131072:l -cache:il1 il1:1:32:256:l -cache:il2 dl2 aligned_cache_radixsort786435786
	sim-cache -cache:dl1 dl1:1:32:256:l -cache:dl2 dl2:1:32:65536:l -cache:il1 il1:1:32:256:l -cache:il2 dl2 aligned_cache_radixsort786435786
	sim-bpred -bpred bimod -bpred:bimod 512 aligned_cache_radixsort786435786
	sim-bpred -bpred bimod -bpred:bimod 1024 aligned_cache_radixsort786435786
	sim-bpred -bpred bimod -bpred:bimod 2048 aligned_cache_radixsort786435786
	sim-bpred -bpred 2lev -bpred:2lev 1 512 10 1 aligned_cache_radixsort786435786
	sim-bpred -bpred 2lev -bpred:2lev 1 1024 10 1 aligned_cache_radixsort786435786
	sim-bpred -bpred 2lev -bpred:2lev 1 2048 10 1 aligned_cache_radixsort786435786
	sim-bpred -bpred 2lev -bpred:2lev 1 4096 10 1 aligned_cache_radixsort786435786
	sslittle-na-sstrix-gcc -Wall -O3 -funroll-loops -finline-functions  -DRANDOM_SIZE=4194304 -DOFFSET=3 -DSORT=aligned_cache_radixsort sorts/aligned_cache_radixsort1620421728.c simpleMain.c -o aligned_cache_radixsort786435786
	sim-cache -cache:dl1 dl1:256:32:1:l -cache:dl2 dl2:131072:32:1:l -cache:il1 il1:256:32:1:l -cache:il2 dl2 aligned_cache_radixsort786435786
	sim-cache -cache:dl1 dl1:256:32:1:l -cache:dl2 dl2:65536:32:1:l -cache:il1 il1:256:32:1:l -cache:il2 dl2 aligned_cache_radixsort786435786
	sim-cache -cache:dl1 dl1:1:32:256:l -cache:dl2 dl2:1:32:131072:l -cache:il1 il1:1:32:256:l -cache:il2 dl2 aligned_cache_radixsort786435786
	sim-cache -cache:dl1 dl1:1:32:256:l -cache:dl2 dl2:1:32:65536:l -cache:il1 il1:1:32:256:l -cache:il2 dl2 aligned_cache_radixsort786435786
	sim-bpred -bpred bimod -bpred:bimod 512 aligned_cache_radixsort786435786
	sim-bpred -bpred bimod -bpred:bimod 1024 aligned_cache_radixsort786435786
	sim-bpred -bpred bimod -bpred:bimod 2048 aligned_cache_radixsort786435786
	sim-bpred -bpred 2lev -bpred:2lev 1 512 10 1 aligned_cache_radixsort786435786
	sim-bpred -bpred 2lev -bpred:2lev 1 1024 10 1 aligned_cache_radixsort786435786
	sim-bpred -bpred 2lev -bpred:2lev 1 2048 10 1 aligned_cache_radixsort786435786
	sim-bpred -bpred 2lev -bpred:2lev 1 4096 10 1 aligned_cache_radixsort786435786
