Wed Aug  3 19:44:32 2005
Run as: "./do_simple -c random.org9 -o 9 aligned_cache_radixsort"
-------------------------------------------------------------------------------------------------
sim-cache                                     4096 |         4096 |         4096 |         4096 |         8192 |         8192 |         8192 |         8192 |        16384 |        16384 |        16384 |        16384 |        32768 |        32768 |        32768 |        32768 |        65536 |        65536 |        65536 |        65536 |       131072 |       131072 |       131072 |       131072 |       262144 |       262144 |       262144 |       262144 |       524288 |       524288 |       524288 |       524288 |      1048576 |      1048576 |      1048576 |      1048576 |      2097152 |      2097152 |      2097152 |      2097152 |      4194304 |      4194304 |      4194304 |      4194304 |
-cache:dl1 dl1:256:32:1:l -cache:dl2 dl2:131072:32:1:l -cache:il1 il1:256:32:1:l -cache:il2 dl2
-cache:dl1 dl1:256:32:1:l -cache:dl2 dl2:65536:32:1:l -cache:il1 il1:256:32:1:l -cache:il2 dl2
-cache:dl1 dl1:1:32:256:l -cache:dl2 dl2:1:32:131072:l -cache:il1 il1:1:32:256:l -cache:il2 dl2
-cache:dl1 dl1:1:32:256:l -cache:dl2 dl2:1:32:65536:l -cache:il1 il1:1:32:256:l -cache:il2 dl2
-------------------------------------------------------------------------------------------------
sim_num_insn                                378851 |       378851 |       378851 |       378851 |       744423 |       744423 |       744423 |       744423 |      1475561 |      1475561 |      1475561 |      1475561 |      2937834 |      2937834 |      2937834 |      2937834 |      5862378 |      5862378 |      5862378 |      5862378 |     11711467 |     11711467 |     11711467 |     11711467 |     23409643 |     23409643 |     23409643 |     23409643 |     46818471 |     46818471 |     46818471 |     46818471 |     93611175 |     93611175 |     93611175 |     93611175 |    187205807 |    187205807 |    187205807 |    187205807 |    374395063 |    374395063 |    374395063 |    374395063 |
sim_num_refs                                138964 |       138964 |       138964 |       138964 |       270036 |       270036 |       270036 |       270036 |       532180 |       532180 |       532180 |       532180 |      1056468 |      1056468 |      1056468 |      1056468 |      2105044 |      2105044 |      2105044 |      2105044 |      4202196 |      4202196 |      4202196 |      4202196 |      8396500 |      8396500 |      8396500 |      8396500 |     16794370 |     16794370 |     16794370 |     16794370 |     33571586 |     33571586 |     33571586 |     33571586 |     67132162 |     67132162 |     67132162 |     67132162 |    134253314 |    134253314 |    134253314 |    134253314 |
sim_elapsed_time                                 1 |            1 |           10 |            5 |            1 |            1 |           15 |            7 |            1 |            1 |           26 |           12 |            1 |            1 |           46 |           23 |            2 |            2 |           85 |           41 |            4 |            4 |          155 |           69 |            7 |            8 |          264 |           92 |           15 |           15 |          356 |          101 |           30 |           31 |          371 |          118 |           60 |           60 |          406 |          152 |          120 |          120 |          475 |          223 |
sim_inst_rate                          378851.0000 |  378851.0000 |   37885.1000 |   75770.2000 |  744423.0000 |  744423.0000 |   49628.2000 |  106346.1429 | 1475561.0000 | 1475561.0000 |   56752.3462 |  122963.4167 | 2937834.0000 | 2937834.0000 |   63865.9565 |  127731.9130 | 2931189.0000 | 2931189.0000 |   68969.1529 |  142984.8293 | 2927866.7500 | 2927866.7500 |   75557.8516 |  169731.4058 | 3344234.7143 | 2926205.3750 |   88672.8902 |  254452.6413 | 3121231.4000 | 3121231.4000 |  131512.5590 |  463549.2178 | 3120372.5000 | 3019715.3226 |  252321.2264 |  793315.0424 | 3120096.7833 | 3120096.7833 |  461098.0468 | 1231617.1513 | 3119958.8583 | 3119958.8583 |  788200.1326 | 1678901.6278 |
il1.accesses                                378851 |       378851 |       378851 |       378851 |       744423 |       744423 |       744423 |       744423 |      1475561 |      1475561 |      1475561 |      1475561 |      2937834 |      2937834 |      2937834 |      2937834 |      5862378 |      5862378 |      5862378 |      5862378 |     11711467 |     11711467 |     11711467 |     11711467 |     23409643 |     23409643 |     23409643 |     23409643 |     46818471 |     46818471 |     46818471 |     46818471 |     93611175 |     93611175 |     93611175 |     93611175 |    187205807 |    187205807 |    187205807 |    187205807 |    374395063 |    374395063 |    374395063 |    374395063 |
il1.hits                                    378320 |       378320 |       378417 |       378417 |       743891 |       743891 |       743989 |       743989 |      1475020 |      1475020 |      1475126 |      1475126 |      2937298 |      2937298 |      2937397 |      2937397 |      5861842 |      5861842 |      5861941 |      5861941 |     11710931 |     11710931 |     11711030 |     11711030 |     23409107 |     23409107 |     23409206 |     23409206 |     46817892 |     46817892 |     46817999 |     46817999 |     93610596 |     93610596 |     93610703 |     93610703 |    187205228 |    187205228 |    187205335 |    187205335 |    374394484 |    374394484 |    374394591 |    374394591 |
il1.misses                                     531 |          531 |          434 |          434 |          532 |          532 |          434 |          434 |          541 |          541 |          435 |          435 |          536 |          536 |          437 |          437 |          536 |          536 |          437 |          437 |          536 |          536 |          437 |          437 |          536 |          536 |          437 |          437 |          579 |          579 |          472 |          472 |          579 |          579 |          472 |          472 |          579 |          579 |          472 |          472 |          579 |          579 |          472 |          472 |
il1.replacements                               312 |          312 |          178 |          178 |          314 |          314 |          178 |          178 |          319 |          319 |          179 |          179 |          319 |          319 |          181 |          181 |          319 |          319 |          181 |          181 |          319 |          319 |          181 |          181 |          319 |          319 |          181 |          181 |          351 |          351 |          216 |          216 |          351 |          351 |          216 |          216 |          351 |          351 |          216 |          216 |          351 |          351 |          216 |          216 |
il1.writebacks                                   0 |            0 |            0 |            0 |            0 |            0 |            0 |            0 |            0 |            0 |            0 |            0 |            0 |            0 |            0 |            0 |            0 |            0 |            0 |            0 |            0 |            0 |            0 |            0 |            0 |            0 |            0 |            0 |            0 |            0 |            0 |            0 |            0 |            0 |            0 |            0 |            0 |            0 |            0 |            0 |            0 |            0 |            0 |            0 |
il1.invalidations                                0 |            0 |            0 |            0 |            0 |            0 |            0 |            0 |            0 |            0 |            0 |            0 |            0 |            0 |            0 |            0 |            0 |            0 |            0 |            0 |            0 |            0 |            0 |            0 |            0 |            0 |            0 |            0 |            0 |            0 |            0 |            0 |            0 |            0 |            0 |            0 |            0 |            0 |            0 |            0 |            0 |            0 |            0 |            0 |
il1.miss_rate                               0.0014 |       0.0014 |       0.0011 |       0.0011 |       0.0007 |       0.0007 |       0.0006 |       0.0006 |       0.0004 |       0.0004 |       0.0003 |       0.0003 |       0.0002 |       0.0002 |       0.0001 |       0.0001 |       0.0001 |       0.0001 |       0.0001 |       0.0001 |       0.0000 |       0.0000 |       0.0000 |       0.0000 |       0.0000 |       0.0000 |       0.0000 |       0.0000 |       0.0000 |       0.0000 |       0.0000 |       0.0000 |       0.0000 |       0.0000 |       0.0000 |       0.0000 |       0.0000 |       0.0000 |       0.0000 |       0.0000 |       0.0000 |       0.0000 |       0.0000 |       0.0000 |
il1.repl_rate                               0.0008 |       0.0008 |       0.0005 |       0.0005 |       0.0004 |       0.0004 |       0.0002 |       0.0002 |       0.0002 |       0.0002 |       0.0001 |       0.0001 |       0.0001 |       0.0001 |       0.0001 |       0.0001 |       0.0001 |       0.0001 |       0.0000 |       0.0000 |       0.0000 |       0.0000 |       0.0000 |       0.0000 |       0.0000 |       0.0000 |       0.0000 |       0.0000 |       0.0000 |       0.0000 |       0.0000 |       0.0000 |       0.0000 |       0.0000 |       0.0000 |       0.0000 |       0.0000 |       0.0000 |       0.0000 |       0.0000 |       0.0000 |       0.0000 |       0.0000 |       0.0000 |
il1.wb_rate                                 0.0000 |       0.0000 |       0.0000 |       0.0000 |       0.0000 |       0.0000 |       0.0000 |       0.0000 |       0.0000 |       0.0000 |       0.0000 |       0.0000 |       0.0000 |       0.0000 |       0.0000 |       0.0000 |       0.0000 |       0.0000 |       0.0000 |       0.0000 |       0.0000 |       0.0000 |       0.0000 |       0.0000 |       0.0000 |       0.0000 |       0.0000 |       0.0000 |       0.0000 |       0.0000 |       0.0000 |       0.0000 |       0.0000 |       0.0000 |       0.0000 |       0.0000 |       0.0000 |       0.0000 |       0.0000 |       0.0000 |       0.0000 |       0.0000 |       0.0000 |       0.0000 |
il1.inv_rate                                0.0000 |       0.0000 |       0.0000 |       0.0000 |       0.0000 |       0.0000 |       0.0000 |       0.0000 |       0.0000 |       0.0000 |       0.0000 |       0.0000 |       0.0000 |       0.0000 |       0.0000 |       0.0000 |       0.0000 |       0.0000 |       0.0000 |       0.0000 |       0.0000 |       0.0000 |       0.0000 |       0.0000 |       0.0000 |       0.0000 |       0.0000 |       0.0000 |       0.0000 |       0.0000 |       0.0000 |       0.0000 |       0.0000 |       0.0000 |       0.0000 |       0.0000 |       0.0000 |       0.0000 |       0.0000 |       0.0000 |       0.0000 |       0.0000 |       0.0000 |       0.0000 |
dl1.accesses                                155430 |       155430 |       155430 |       155430 |       302886 |       302886 |       302886 |       302886 |       597798 |       597798 |       597798 |       597798 |      1187622 |      1187622 |      1187622 |      1187622 |      2367270 |      2367270 |      2367270 |      2367270 |      4726566 |      4726566 |      4726566 |      4726566 |      9445158 |      9445158 |      9445158 |      9445158 |     18891604 |     18891604 |     18891604 |     18891604 |     37765972 |     37765972 |     37765972 |     37765972 |     75520852 |     75520852 |     75520852 |     75520852 |    151030612 |    151030612 |    151030612 |    151030612 |
dl1.hits                                    138865 |       138865 |       144008 |       144008 |       269223 |       269223 |       280621 |       280621 |       531426 |       531426 |       554463 |       554463 |      1052038 |      1052038 |      1101401 |      1101401 |      2091729 |      2091729 |      2195546 |      2195546 |      4167475 |      4167475 |      4383489 |      4383489 |      8282478 |      8282478 |      8759274 |      8759274 |     16461685 |     16461685 |     17519750 |     17519750 |     32968653 |     32968653 |     35023677 |     35023677 |     66481243 |     66481243 |     70038531 |     70038531 |    133516604 |    133516604 |    140065252 |    140065252 |
dl1.misses                                   16565 |        16565 |        11422 |        11422 |        33663 |        33663 |        22265 |        22265 |        66372 |        66372 |        43335 |        43335 |       135584 |       135584 |        86221 |        86221 |       275541 |       275541 |       171724 |       171724 |       559091 |       559091 |       343077 |       343077 |      1162680 |      1162680 |       685884 |       685884 |      2429919 |      2429919 |      1371854 |      1371854 |      4797319 |      4797319 |      2742295 |      2742295 |      9039609 |      9039609 |      5482321 |      5482321 |     17514008 |     17514008 |     10965360 |     10965360 |
dl1.replacements                             16309 |        16309 |        11166 |        11166 |        33407 |        33407 |        22009 |        22009 |        66116 |        66116 |        43079 |        43079 |       135328 |       135328 |        85965 |        85965 |       275285 |       275285 |       171468 |       171468 |       558835 |       558835 |       342821 |       342821 |      1162424 |      1162424 |       685628 |       685628 |      2429663 |      2429663 |      1371598 |      1371598 |      4797063 |      4797063 |      2742039 |      2742039 |      9039353 |      9039353 |      5482065 |      5482065 |     17513752 |     17513752 |     10965104 |     10965104 |
dl1.writebacks                               13688 |        13688 |         8641 |         8641 |        28034 |        28034 |        16914 |        16914 |        55258 |        55258 |        32863 |        32863 |       113476 |       113476 |        65500 |        65500 |       231498 |       231498 |       130522 |       130522 |       471256 |       471256 |       260914 |       260914 |       987035 |       987035 |       521804 |       521804 |      2078389 |      2078389 |      1043545 |      1043545 |      4094878 |      4094878 |      2086305 |      2086305 |      7634529 |      7634529 |      4170973 |      4170973 |     14705511 |     14705511 |      8343291 |      8343291 |
dl1.invalidations                                0 |            0 |            0 |            0 |            0 |            0 |            0 |            0 |            0 |            0 |            0 |            0 |            0 |            0 |            0 |            0 |            0 |            0 |            0 |            0 |            0 |            0 |            0 |            0 |            0 |            0 |            0 |            0 |            0 |            0 |            0 |            0 |            0 |            0 |            0 |            0 |            0 |            0 |            0 |            0 |            0 |            0 |            0 |            0 |
dl1.miss_rate                               0.1066 |       0.1066 |       0.0735 |       0.0735 |       0.1111 |       0.1111 |       0.0735 |       0.0735 |       0.1110 |       0.1110 |       0.0725 |       0.0725 |       0.1142 |       0.1142 |       0.0726 |       0.0726 |       0.1164 |       0.1164 |       0.0725 |       0.0725 |       0.1183 |       0.1183 |       0.0726 |       0.0726 |       0.1231 |       0.1231 |       0.0726 |       0.0726 |       0.1286 |       0.1286 |       0.0726 |       0.0726 |       0.1270 |       0.1270 |       0.0726 |       0.0726 |       0.1197 |       0.1197 |       0.0726 |       0.0726 |       0.1160 |       0.1160 |       0.0726 |       0.0726 |
dl1.repl_rate                               0.1049 |       0.1049 |       0.0718 |       0.0718 |       0.1103 |       0.1103 |       0.0727 |       0.0727 |       0.1106 |       0.1106 |       0.0721 |       0.0721 |       0.1139 |       0.1139 |       0.0724 |       0.0724 |       0.1163 |       0.1163 |       0.0724 |       0.0724 |       0.1182 |       0.1182 |       0.0725 |       0.0725 |       0.1231 |       0.1231 |       0.0726 |       0.0726 |       0.1286 |       0.1286 |       0.0726 |       0.0726 |       0.1270 |       0.1270 |       0.0726 |       0.0726 |       0.1197 |       0.1197 |       0.0726 |       0.0726 |       0.1160 |       0.1160 |       0.0726 |       0.0726 |
dl1.wb_rate                                 0.0881 |       0.0881 |       0.0556 |       0.0556 |       0.0926 |       0.0926 |       0.0558 |       0.0558 |       0.0924 |       0.0924 |       0.0550 |       0.0550 |       0.0955 |       0.0955 |       0.0552 |       0.0552 |       0.0978 |       0.0978 |       0.0551 |       0.0551 |       0.0997 |       0.0997 |       0.0552 |       0.0552 |       0.1045 |       0.1045 |       0.0552 |       0.0552 |       0.1100 |       0.1100 |       0.0552 |       0.0552 |       0.1084 |       0.1084 |       0.0552 |       0.0552 |       0.1011 |       0.1011 |       0.0552 |       0.0552 |       0.0974 |       0.0974 |       0.0552 |       0.0552 |
dl1.inv_rate                                0.0000 |       0.0000 |       0.0000 |       0.0000 |       0.0000 |       0.0000 |       0.0000 |       0.0000 |       0.0000 |       0.0000 |       0.0000 |       0.0000 |       0.0000 |       0.0000 |       0.0000 |       0.0000 |       0.0000 |       0.0000 |       0.0000 |       0.0000 |       0.0000 |       0.0000 |       0.0000 |       0.0000 |       0.0000 |       0.0000 |       0.0000 |       0.0000 |       0.0000 |       0.0000 |       0.0000 |       0.0000 |       0.0000 |       0.0000 |       0.0000 |       0.0000 |       0.0000 |       0.0000 |       0.0000 |       0.0000 |       0.0000 |       0.0000 |       0.0000 |       0.0000 |
dl2.accesses                                 30784 |        30784 |        20497 |        20497 |        62229 |        62229 |        39613 |        39613 |       122171 |       122171 |        76633 |        76633 |       249596 |       249596 |       152158 |       152158 |       507575 |       507575 |       302683 |       302683 |      1030883 |      1030883 |       604428 |       604428 |      2150251 |      2150251 |      1208125 |      1208125 |      4508887 |      4508887 |      2415871 |      2415871 |      8892776 |      8892776 |      4829072 |      4829072 |     16674717 |     16674717 |      9653766 |      9653766 |     32220098 |     32220098 |     19309123 |     19309123 |
dl2.hits                                     28866 |        28866 |        18596 |        18596 |        59286 |        59286 |        36688 |        36688 |       117179 |       117179 |        71658 |        71658 |       240503 |       240503 |       143087 |       143087 |       490290 |       490290 |       285420 |       285420 |       997214 |       997214 |       570781 |       570781 |      2083814 |      2082830 |      1141710 |      1139321 |      4203436 |      4018987 |      2280222 |      1817721 |      7985059 |      7581709 |      3635499 |      3542090 |     14115445 |     13995750 |      7081837 |      7041165 |     26917705 |     26753062 |     14086024 |     14066843 |
dl2.misses                                    1918 |         1918 |         1901 |         1901 |         2943 |         2943 |         2925 |         2925 |         4992 |         4992 |         4975 |         4975 |         9093 |         9093 |         9071 |         9071 |        17285 |        17285 |        17263 |        17263 |        33669 |        33669 |        33647 |        33647 |        66437 |        67421 |        66415 |        68804 |       305451 |       489900 |       135649 |       598150 |       907717 |      1311067 |      1193573 |      1286982 |      2559272 |      2678967 |      2571929 |      2612601 |      5302393 |      5467036 |      5223099 |      5242280 |
dl2.replacements                               130 |          130 |            0 |            0 |          129 |          129 |            0 |            0 |          128 |          128 |            0 |            0 |          133 |          133 |            0 |            0 |          133 |          133 |            0 |            0 |          133 |          133 |            0 |            0 |          133 |         1942 |            0 |         3268 |       205638 |       424364 |         4577 |       532614 |       776645 |      1245531 |      1062501 |      1221446 |      2428200 |      2613431 |      2440857 |      2547065 |      5171321 |      5401500 |      5092027 |      5176744 |
dl2.writebacks                                  66 |           66 |            0 |            0 |           64 |           64 |            0 |            0 |           64 |           64 |            0 |            0 |           64 |           64 |            0 |            0 |           64 |           64 |            0 |            0 |           64 |           64 |            0 |            0 |           64 |         1172 |            0 |         3029 |       158147 |       301352 |         4267 |       297020 |       596181 |       671585 |       591929 |       624743 |      1305326 |      1368119 |      1248054 |      1280920 |      2684233 |      2838642 |      2560365 |      2593328 |
dl2.invalidations                                0 |            0 |            0 |            0 |            0 |            0 |            0 |            0 |            0 |            0 |            0 |            0 |            0 |            0 |            0 |            0 |            0 |            0 |            0 |            0 |            0 |            0 |            0 |            0 |            0 |            0 |            0 |            0 |            0 |            0 |            0 |            0 |            0 |            0 |            0 |            0 |            0 |            0 |            0 |            0 |            0 |            0 |            0 |            0 |
dl2.miss_rate                               0.0623 |       0.0623 |       0.0927 |       0.0927 |       0.0473 |       0.0473 |       0.0738 |       0.0738 |       0.0409 |       0.0409 |       0.0649 |       0.0649 |       0.0364 |       0.0364 |       0.0596 |       0.0596 |       0.0341 |       0.0341 |       0.0570 |       0.0570 |       0.0327 |       0.0327 |       0.0557 |       0.0557 |       0.0309 |       0.0314 |       0.0550 |       0.0570 |       0.0677 |       0.1087 |       0.0561 |       0.2476 |       0.1021 |       0.1474 |       0.2472 |       0.2665 |       0.1535 |       0.1607 |       0.2664 |       0.2706 |       0.1646 |       0.1697 |       0.2705 |       0.2715 |
dl2.repl_rate                               0.0042 |       0.0042 |       0.0000 |       0.0000 |       0.0021 |       0.0021 |       0.0000 |       0.0000 |       0.0010 |       0.0010 |       0.0000 |       0.0000 |       0.0005 |       0.0005 |       0.0000 |       0.0000 |       0.0003 |       0.0003 |       0.0000 |       0.0000 |       0.0001 |       0.0001 |       0.0000 |       0.0000 |       0.0001 |       0.0009 |       0.0000 |       0.0027 |       0.0456 |       0.0941 |       0.0019 |       0.2205 |       0.0873 |       0.1401 |       0.2200 |       0.2529 |       0.1456 |       0.1567 |       0.2528 |       0.2638 |       0.1605 |       0.1676 |       0.2637 |       0.2681 |
dl2.wb_rate                                 0.0021 |       0.0021 |       0.0000 |       0.0000 |       0.0010 |       0.0010 |       0.0000 |       0.0000 |       0.0005 |       0.0005 |       0.0000 |       0.0000 |       0.0003 |       0.0003 |       0.0000 |       0.0000 |       0.0001 |       0.0001 |       0.0000 |       0.0000 |       0.0001 |       0.0001 |       0.0000 |       0.0000 |       0.0000 |       0.0005 |       0.0000 |       0.0025 |       0.0351 |       0.0668 |       0.0018 |       0.1229 |       0.0670 |       0.0755 |       0.1226 |       0.1294 |       0.0783 |       0.0820 |       0.1293 |       0.1327 |       0.0833 |       0.0881 |       0.1326 |       0.1343 |
dl2.inv_rate                                0.0000 |       0.0000 |       0.0000 |       0.0000 |       0.0000 |       0.0000 |       0.0000 |       0.0000 |       0.0000 |       0.0000 |       0.0000 |       0.0000 |       0.0000 |       0.0000 |       0.0000 |       0.0000 |       0.0000 |       0.0000 |       0.0000 |       0.0000 |       0.0000 |       0.0000 |       0.0000 |       0.0000 |       0.0000 |       0.0000 |       0.0000 |       0.0000 |       0.0000 |       0.0000 |       0.0000 |       0.0000 |       0.0000 |       0.0000 |       0.0000 |       0.0000 |       0.0000 |       0.0000 |       0.0000 |       0.0000 |       0.0000 |       0.0000 |       0.0000 |       0.0000 |
itlb.accesses                               378851 |       378851 |       378851 |       378851 |       744423 |       744423 |       744423 |       744423 |      1475561 |      1475561 |      1475561 |      1475561 |      2937834 |      2937834 |      2937834 |      2937834 |      5862378 |      5862378 |      5862378 |      5862378 |     11711467 |     11711467 |     11711467 |     11711467 |     23409643 |     23409643 |     23409643 |     23409643 |     46818471 |     46818471 |     46818471 |     46818471 |     93611175 |     93611175 |     93611175 |     93611175 |    187205807 |    187205807 |    187205807 |    187205807 |    374395063 |    374395063 |    374395063 |    374395063 |
itlb.hits                                   378842 |       378842 |       378842 |       378842 |       744414 |       744414 |       744414 |       744414 |      1475552 |      1475552 |      1475552 |      1475552 |      2937825 |      2937825 |      2937825 |      2937825 |      5862369 |      5862369 |      5862369 |      5862369 |     11711458 |     11711458 |     11711458 |     11711458 |     23409634 |     23409634 |     23409634 |     23409634 |     46818462 |     46818462 |     46818462 |     46818462 |     93611166 |     93611166 |     93611166 |     93611166 |    187205798 |    187205798 |    187205798 |    187205798 |    374395054 |    374395054 |    374395054 |    374395054 |
itlb.misses                                      9 |            9 |            9 |            9 |            9 |            9 |            9 |            9 |            9 |            9 |            9 |            9 |            9 |            9 |            9 |            9 |            9 |            9 |            9 |            9 |            9 |            9 |            9 |            9 |            9 |            9 |            9 |            9 |            9 |            9 |            9 |            9 |            9 |            9 |            9 |            9 |            9 |            9 |            9 |            9 |            9 |            9 |            9 |            9 |
itlb.replacements                                0 |            0 |            0 |            0 |            0 |            0 |            0 |            0 |            0 |            0 |            0 |            0 |            0 |            0 |            0 |            0 |            0 |            0 |            0 |            0 |            0 |            0 |            0 |            0 |            0 |            0 |            0 |            0 |            0 |            0 |            0 |            0 |            0 |            0 |            0 |            0 |            0 |            0 |            0 |            0 |            0 |            0 |            0 |            0 |
itlb.writebacks                                  0 |            0 |            0 |            0 |            0 |            0 |            0 |            0 |            0 |            0 |            0 |            0 |            0 |            0 |            0 |            0 |            0 |            0 |            0 |            0 |            0 |            0 |            0 |            0 |            0 |            0 |            0 |            0 |            0 |            0 |            0 |            0 |            0 |            0 |            0 |            0 |            0 |            0 |            0 |            0 |            0 |            0 |            0 |            0 |
itlb.invalidations                               0 |            0 |            0 |            0 |            0 |            0 |            0 |            0 |            0 |            0 |            0 |            0 |            0 |            0 |            0 |            0 |            0 |            0 |            0 |            0 |            0 |            0 |            0 |            0 |            0 |            0 |            0 |            0 |            0 |            0 |            0 |            0 |            0 |            0 |            0 |            0 |            0 |            0 |            0 |            0 |            0 |            0 |            0 |            0 |
itlb.miss_rate                              0.0000 |       0.0000 |       0.0000 |       0.0000 |       0.0000 |       0.0000 |       0.0000 |       0.0000 |       0.0000 |       0.0000 |       0.0000 |       0.0000 |       0.0000 |       0.0000 |       0.0000 |       0.0000 |       0.0000 |       0.0000 |       0.0000 |       0.0000 |       0.0000 |       0.0000 |       0.0000 |       0.0000 |       0.0000 |       0.0000 |       0.0000 |       0.0000 |       0.0000 |       0.0000 |       0.0000 |       0.0000 |       0.0000 |       0.0000 |       0.0000 |       0.0000 |       0.0000 |       0.0000 |       0.0000 |       0.0000 |       0.0000 |       0.0000 |       0.0000 |       0.0000 |
itlb.repl_rate                              0.0000 |       0.0000 |       0.0000 |       0.0000 |       0.0000 |       0.0000 |       0.0000 |       0.0000 |       0.0000 |       0.0000 |       0.0000 |       0.0000 |       0.0000 |       0.0000 |       0.0000 |       0.0000 |       0.0000 |       0.0000 |       0.0000 |       0.0000 |       0.0000 |       0.0000 |       0.0000 |       0.0000 |       0.0000 |       0.0000 |       0.0000 |       0.0000 |       0.0000 |       0.0000 |       0.0000 |       0.0000 |       0.0000 |       0.0000 |       0.0000 |       0.0000 |       0.0000 |       0.0000 |       0.0000 |       0.0000 |       0.0000 |       0.0000 |       0.0000 |       0.0000 |
itlb.wb_rate                                0.0000 |       0.0000 |       0.0000 |       0.0000 |       0.0000 |       0.0000 |       0.0000 |       0.0000 |       0.0000 |       0.0000 |       0.0000 |       0.0000 |       0.0000 |       0.0000 |       0.0000 |       0.0000 |       0.0000 |       0.0000 |       0.0000 |       0.0000 |       0.0000 |       0.0000 |       0.0000 |       0.0000 |       0.0000 |       0.0000 |       0.0000 |       0.0000 |       0.0000 |       0.0000 |       0.0000 |       0.0000 |       0.0000 |       0.0000 |       0.0000 |       0.0000 |       0.0000 |       0.0000 |       0.0000 |       0.0000 |       0.0000 |       0.0000 |       0.0000 |       0.0000 |
itlb.inv_rate                               0.0000 |       0.0000 |       0.0000 |       0.0000 |       0.0000 |       0.0000 |       0.0000 |       0.0000 |       0.0000 |       0.0000 |       0.0000 |       0.0000 |       0.0000 |       0.0000 |       0.0000 |       0.0000 |       0.0000 |       0.0000 |       0.0000 |       0.0000 |       0.0000 |       0.0000 |       0.0000 |       0.0000 |       0.0000 |       0.0000 |       0.0000 |       0.0000 |       0.0000 |       0.0000 |       0.0000 |       0.0000 |       0.0000 |       0.0000 |       0.0000 |       0.0000 |       0.0000 |       0.0000 |       0.0000 |       0.0000 |       0.0000 |       0.0000 |       0.0000 |       0.0000 |
dtlb.accesses                               155430 |       155430 |       155430 |       155430 |       302886 |       302886 |       302886 |       302886 |       597798 |       597798 |       597798 |       597798 |      1187622 |      1187622 |      1187622 |      1187622 |      2367270 |      2367270 |      2367270 |      2367270 |      4726566 |      4726566 |      4726566 |      4726566 |      9445158 |      9445158 |      9445158 |      9445158 |     18891604 |     18891604 |     18891604 |     18891604 |     37765972 |     37765972 |     37765972 |     37765972 |     75520852 |     75520852 |     75520852 |     75520852 |    151030612 |    151030612 |    151030612 |    151030612 |
dtlb.hits                                   155414 |       155414 |       155414 |       155414 |       302862 |       302862 |       302862 |       302862 |       597758 |       597758 |       597758 |       597758 |      1187550 |      1187550 |      1187550 |      1187550 |      2367109 |      2367109 |      2367109 |      2367109 |      4716140 |      4716140 |      4716140 |      4716140 |      8919221 |      8919221 |      8919221 |      8919221 |     17559949 |     17559949 |     17559949 |     17559949 |     34431355 |     34431355 |     34431355 |     34431355 |     68310963 |     68310963 |     68310963 |     68310963 |    135979453 |    135979453 |    135979453 |    135979453 |
dtlb.misses                                     16 |           16 |           16 |           16 |           24 |           24 |           24 |           24 |           40 |           40 |           40 |           40 |           72 |           72 |           72 |           72 |          161 |          161 |          161 |          161 |        10426 |        10426 |        10426 |        10426 |       525937 |       525937 |       525937 |       525937 |      1331655 |      1331655 |      1331655 |      1331655 |      3334617 |      3334617 |      3334617 |      3334617 |      7209889 |      7209889 |      7209889 |      7209889 |     15051159 |     15051159 |     15051159 |     15051159 |
dtlb.replacements                                0 |            0 |            0 |            0 |            0 |            0 |            0 |            0 |            0 |            0 |            0 |            0 |            0 |            0 |            0 |            0 |           33 |           33 |           33 |           33 |        10298 |        10298 |        10298 |        10298 |       525809 |       525809 |       525809 |       525809 |      1331527 |      1331527 |      1331527 |      1331527 |      3334489 |      3334489 |      3334489 |      3334489 |      7209761 |      7209761 |      7209761 |      7209761 |     15051031 |     15051031 |     15051031 |     15051031 |
dtlb.writebacks                                  0 |            0 |            0 |            0 |            0 |            0 |            0 |            0 |            0 |            0 |            0 |            0 |            0 |            0 |            0 |            0 |           25 |           25 |           25 |           25 |         9767 |         9767 |         9767 |         9767 |       524527 |       524527 |       524527 |       524527 |      1328983 |      1328983 |      1328983 |      1328983 |      3329455 |      3329455 |      3329455 |      3329455 |      7199603 |      7199603 |      7199603 |      7199603 |     15030645 |     15030645 |     15030645 |     15030645 |
dtlb.invalidations                               0 |            0 |            0 |            0 |            0 |            0 |            0 |            0 |            0 |            0 |            0 |            0 |            0 |            0 |            0 |            0 |            0 |            0 |            0 |            0 |            0 |            0 |            0 |            0 |            0 |            0 |            0 |            0 |            0 |            0 |            0 |            0 |            0 |            0 |            0 |            0 |            0 |            0 |            0 |            0 |            0 |            0 |            0 |            0 |
dtlb.miss_rate                              0.0001 |       0.0001 |       0.0001 |       0.0001 |       0.0001 |       0.0001 |       0.0001 |       0.0001 |       0.0001 |       0.0001 |       0.0001 |       0.0001 |       0.0001 |       0.0001 |       0.0001 |       0.0001 |       0.0001 |       0.0001 |       0.0001 |       0.0001 |       0.0022 |       0.0022 |       0.0022 |       0.0022 |       0.0557 |       0.0557 |       0.0557 |       0.0557 |       0.0705 |       0.0705 |       0.0705 |       0.0705 |       0.0883 |       0.0883 |       0.0883 |       0.0883 |       0.0955 |       0.0955 |       0.0955 |       0.0955 |       0.0997 |       0.0997 |       0.0997 |       0.0997 |
dtlb.repl_rate                              0.0000 |       0.0000 |       0.0000 |       0.0000 |       0.0000 |       0.0000 |       0.0000 |       0.0000 |       0.0000 |       0.0000 |       0.0000 |       0.0000 |       0.0000 |       0.0000 |       0.0000 |       0.0000 |       0.0000 |       0.0000 |       0.0000 |       0.0000 |       0.0022 |       0.0022 |       0.0022 |       0.0022 |       0.0557 |       0.0557 |       0.0557 |       0.0557 |       0.0705 |       0.0705 |       0.0705 |       0.0705 |       0.0883 |       0.0883 |       0.0883 |       0.0883 |       0.0955 |       0.0955 |       0.0955 |       0.0955 |       0.0997 |       0.0997 |       0.0997 |       0.0997 |
dtlb.wb_rate                                0.0000 |       0.0000 |       0.0000 |       0.0000 |       0.0000 |       0.0000 |       0.0000 |       0.0000 |       0.0000 |       0.0000 |       0.0000 |       0.0000 |       0.0000 |       0.0000 |       0.0000 |       0.0000 |       0.0000 |       0.0000 |       0.0000 |       0.0000 |       0.0021 |       0.0021 |       0.0021 |       0.0021 |       0.0555 |       0.0555 |       0.0555 |       0.0555 |       0.0703 |       0.0703 |       0.0703 |       0.0703 |       0.0882 |       0.0882 |       0.0882 |       0.0882 |       0.0953 |       0.0953 |       0.0953 |       0.0953 |       0.0995 |       0.0995 |       0.0995 |       0.0995 |
dtlb.inv_rate                               0.0000 |       0.0000 |       0.0000 |       0.0000 |       0.0000 |       0.0000 |       0.0000 |       0.0000 |       0.0000 |       0.0000 |       0.0000 |       0.0000 |       0.0000 |       0.0000 |       0.0000 |       0.0000 |       0.0000 |       0.0000 |       0.0000 |       0.0000 |       0.0000 |       0.0000 |       0.0000 |       0.0000 |       0.0000 |       0.0000 |       0.0000 |       0.0000 |       0.0000 |       0.0000 |       0.0000 |       0.0000 |       0.0000 |       0.0000 |       0.0000 |       0.0000 |       0.0000 |       0.0000 |       0.0000 |       0.0000 |       0.0000 |       0.0000 |       0.0000 |       0.0000 |
ld_text_base                            0x00400000 |   0x00400000 |   0x00400000 |   0x00400000 |   0x00400000 |   0x00400000 |   0x00400000 |   0x00400000 |   0x00400000 |   0x00400000 |   0x00400000 |   0x00400000 |   0x00400000 |   0x00400000 |   0x00400000 |   0x00400000 |   0x00400000 |   0x00400000 |   0x00400000 |   0x00400000 |   0x00400000 |   0x00400000 |   0x00400000 |   0x00400000 |   0x00400000 |   0x00400000 |   0x00400000 |   0x00400000 |   0x00400000 |   0x00400000 |   0x00400000 |   0x00400000 |   0x00400000 |   0x00400000 |   0x00400000 |   0x00400000 |   0x00400000 |   0x00400000 |   0x00400000 |   0x00400000 |   0x00400000 |   0x00400000 |   0x00400000 |   0x00400000 |
ld_text_size                                 74416 |        74416 |        74416 |        74416 |        74448 |        74448 |        74448 |        74448 |        74464 |        74464 |        74464 |        74464 |        74480 |        74480 |        74480 |        74480 |        74480 |        74480 |        74480 |        74480 |        74480 |        74480 |        74480 |        74480 |        74480 |        74480 |        74480 |        74480 |        74480 |        74480 |        74480 |        74480 |        74480 |        74480 |        74480 |        74480 |        74480 |        74480 |        74480 |        74480 |        74480 |        74480 |        74480 |        74480 |
ld_data_base                            0x10000000 |   0x10000000 |   0x10000000 |   0x10000000 |   0x10000000 |   0x10000000 |   0x10000000 |   0x10000000 |   0x10000000 |   0x10000000 |   0x10000000 |   0x10000000 |   0x10000000 |   0x10000000 |   0x10000000 |   0x10000000 |   0x10000000 |   0x10000000 |   0x10000000 |   0x10000000 |   0x10000000 |   0x10000000 |   0x10000000 |   0x10000000 |   0x10000000 |   0x10000000 |   0x10000000 |   0x10000000 |   0x10000000 |   0x10000000 |   0x10000000 |   0x10000000 |   0x10000000 |   0x10000000 |   0x10000000 |   0x10000000 |   0x10000000 |   0x10000000 |   0x10000000 |   0x10000000 |   0x10000000 |   0x10000000 |   0x10000000 |   0x10000000 |
ld_data_size                                  8192 |         8192 |         8192 |         8192 |         8192 |         8192 |         8192 |         8192 |         8192 |         8192 |         8192 |         8192 |         8192 |         8192 |         8192 |         8192 |         8192 |         8192 |         8192 |         8192 |         8192 |         8192 |         8192 |         8192 |         8192 |         8192 |         8192 |         8192 |         8192 |         8192 |         8192 |         8192 |         8192 |         8192 |         8192 |         8192 |         8192 |         8192 |         8192 |         8192 |         8192 |         8192 |         8192 |         8192 |
ld_stack_base                           0x7fffc000 |   0x7fffc000 |   0x7fffc000 |   0x7fffc000 |   0x7fffc000 |   0x7fffc000 |   0x7fffc000 |   0x7fffc000 |   0x7fffc000 |   0x7fffc000 |   0x7fffc000 |   0x7fffc000 |   0x7fffc000 |   0x7fffc000 |   0x7fffc000 |   0x7fffc000 |   0x7fffc000 |   0x7fffc000 |   0x7fffc000 |   0x7fffc000 |   0x7fffc000 |   0x7fffc000 |   0x7fffc000 |   0x7fffc000 |   0x7fffc000 |   0x7fffc000 |   0x7fffc000 |   0x7fffc000 |   0x7fffc000 |   0x7fffc000 |   0x7fffc000 |   0x7fffc000 |   0x7fffc000 |   0x7fffc000 |   0x7fffc000 |   0x7fffc000 |   0x7fffc000 |   0x7fffc000 |   0x7fffc000 |   0x7fffc000 |   0x7fffc000 |   0x7fffc000 |   0x7fffc000 |   0x7fffc000 |
ld_stack_size                                16384 |        16384 |        16384 |        16384 |        16384 |        16384 |        16384 |        16384 |        16384 |        16384 |        16384 |        16384 |        16384 |        16384 |        16384 |        16384 |        16384 |        16384 |        16384 |        16384 |        16384 |        16384 |        16384 |        16384 |        16384 |        16384 |        16384 |        16384 |        16384 |        16384 |        16384 |        16384 |        16384 |        16384 |        16384 |        16384 |        16384 |        16384 |        16384 |        16384 |        16384 |        16384 |        16384 |        16384 |
ld_prog_entry                           0x00400140 |   0x00400140 |   0x00400140 |   0x00400140 |   0x00400140 |   0x00400140 |   0x00400140 |   0x00400140 |   0x00400140 |   0x00400140 |   0x00400140 |   0x00400140 |   0x00400140 |   0x00400140 |   0x00400140 |   0x00400140 |   0x00400140 |   0x00400140 |   0x00400140 |   0x00400140 |   0x00400140 |   0x00400140 |   0x00400140 |   0x00400140 |   0x00400140 |   0x00400140 |   0x00400140 |   0x00400140 |   0x00400140 |   0x00400140 |   0x00400140 |   0x00400140 |   0x00400140 |   0x00400140 |   0x00400140 |   0x00400140 |   0x00400140 |   0x00400140 |   0x00400140 |   0x00400140 |   0x00400140 |   0x00400140 |   0x00400140 |   0x00400140 |
ld_environ_base                         0x7fff8000 |   0x7fff8000 |   0x7fff8000 |   0x7fff8000 |   0x7fff8000 |   0x7fff8000 |   0x7fff8000 |   0x7fff8000 |   0x7fff8000 |   0x7fff8000 |   0x7fff8000 |   0x7fff8000 |   0x7fff8000 |   0x7fff8000 |   0x7fff8000 |   0x7fff8000 |   0x7fff8000 |   0x7fff8000 |   0x7fff8000 |   0x7fff8000 |   0x7fff8000 |   0x7fff8000 |   0x7fff8000 |   0x7fff8000 |   0x7fff8000 |   0x7fff8000 |   0x7fff8000 |   0x7fff8000 |   0x7fff8000 |   0x7fff8000 |   0x7fff8000 |   0x7fff8000 |   0x7fff8000 |   0x7fff8000 |   0x7fff8000 |   0x7fff8000 |   0x7fff8000 |   0x7fff8000 |   0x7fff8000 |   0x7fff8000 |   0x7fff8000 |   0x7fff8000 |   0x7fff8000 |   0x7fff8000 |
ld_target_big_endian                             0 |            0 |            0 |            0 |            0 |            0 |            0 |            0 |            0 |            0 |            0 |            0 |            0 |            0 |            0 |            0 |            0 |            0 |            0 |            0 |            0 |            0 |            0 |            0 |            0 |            0 |            0 |            0 |            0 |            0 |            0 |            0 |            0 |            0 |            0 |            0 |            0 |            0 |            0 |            0 |            0 |            0 |            0 |            0 |
mem.page_count                                  35 |           35 |           35 |           35 |           43 |           43 |           43 |           43 |           59 |           59 |           59 |           59 |           91 |           91 |           91 |           91 |          155 |          155 |          155 |          155 |          283 |          283 |          283 |          283 |          539 |          539 |          539 |          539 |         1057 |         1057 |         1057 |         1057 |         2081 |         2081 |         2081 |         2081 |         4135 |         4135 |         4135 |         4135 |         8243 |         8243 |         8243 |         8243 |
mem.page_mem                                  140k |         140k |         140k |         140k |         172k |         172k |         172k |         172k |         236k |         236k |         236k |         236k |         364k |         364k |         364k |         364k |         620k |         620k |         620k |         620k |        1132k |        1132k |        1132k |        1132k |        2156k |        2156k |        2156k |        2156k |        4228k |        4228k |        4228k |        4228k |        8324k |        8324k |        8324k |        8324k |       16540k |       16540k |       16540k |       16540k |       32972k |       32972k |       32972k |       32972k |
mem.ptab_misses                                 35 |           35 |           35 |           35 |           43 |           43 |           43 |           43 |           59 |           59 |           59 |           59 |           91 |           91 |           91 |           91 |          155 |          155 |          155 |          155 |          283 |          283 |          283 |          283 |          539 |          539 |          539 |          539 |         1060 |         1060 |         1060 |         1060 |        16424 |        16424 |        16424 |        16424 |        18478 |        18478 |        18478 |        18478 |        22586 |        22586 |        22586 |        22586 |
mem.ptab_accesses                          2287356 |      2287356 |      2287356 |      2287356 |      4044748 |      4044748 |      4044748 |      4044748 |      7559220 |      7559220 |      7559220 |      7559220 |     14588056 |     14588056 |     14588056 |     14588056 |     28645528 |     28645528 |     28645528 |     28645528 |     56760476 |     56760476 |     56760476 |     56760476 |    112990364 |    112990364 |    112990364 |    112990364 |    225518568 |    225518568 |    225518568 |    225518568 |    450438120 |    450438120 |    450438120 |    450438120 |    900326408 |    900326408 |    900326408 |    900326408 |   1800102952 |   1800102952 |   1800102952 |   1800102952 |
mem.ptab_miss_rate                          0.0000 |       0.0000 |       0.0000 |       0.0000 |       0.0000 |       0.0000 |       0.0000 |       0.0000 |       0.0000 |       0.0000 |       0.0000 |       0.0000 |       0.0000 |       0.0000 |       0.0000 |       0.0000 |       0.0000 |       0.0000 |       0.0000 |       0.0000 |       0.0000 |       0.0000 |       0.0000 |       0.0000 |       0.0000 |       0.0000 |       0.0000 |       0.0000 |       0.0000 |       0.0000 |       0.0000 |       0.0000 |       0.0000 |       0.0000 |       0.0000 |       0.0000 |       0.0000 |       0.0000 |       0.0000 |       0.0000 |       0.0000 |       0.0000 |       0.0000 |       0.0000 |
-------------------------------------------------------------------------------------------------
sim-bpred                                     4096 |         4096 |         4096 |         4096 |         4096 |         4096 |         4096 |         8192 |         8192 |         8192 |         8192 |         8192 |         8192 |         8192 |        16384 |        16384 |        16384 |        16384 |        16384 |        16384 |        16384 |        32768 |        32768 |        32768 |        32768 |        32768 |        32768 |        32768 |        65536 |        65536 |        65536 |        65536 |        65536 |        65536 |        65536 |       131072 |       131072 |       131072 |       131072 |       131072 |       131072 |       131072 |       262144 |       262144 |       262144 |       262144 |       262144 |       262144 |       262144 |       524288 |       524288 |       524288 |       524288 |       524288 |       524288 |       524288 |      1048576 |      1048576 |      1048576 |      1048576 |      1048576 |      1048576 |      1048576 |      2097152 |      2097152 |      2097152 |      2097152 |      2097152 |      2097152 |      2097152 |      4194304 |      4194304 |      4194304 |      4194304 |      4194304 |      4194304 |      4194304 |
-bpred bimod -bpred:bimod 512
-bpred bimod -bpred:bimod 1024
-bpred bimod -bpred:bimod 2048
-bpred 2lev -bpred:2lev 1 512 10 1
-bpred 2lev -bpred:2lev 1 1024 10 1
-bpred 2lev -bpred:2lev 1 2048 10 1
-bpred 2lev -bpred:2lev 1 4096 10 1
-------------------------------------------------------------------------------------------------
sim_num_insn                                378851 |       378851 |       378851 |       378851 |       378851 |       378851 |       378851 |       744423 |       744423 |       744423 |       744423 |       744423 |       744423 |       744423 |      1475561 |      1475561 |      1475561 |      1475561 |      1475561 |      1475561 |      1475561 |      2937834 |      2937834 |      2937834 |      2937834 |      2937834 |      2937834 |      2937834 |      5862378 |      5862378 |      5862378 |      5862378 |      5862378 |      5862378 |      5862378 |     11711467 |     11711467 |     11711467 |     11711467 |     11711467 |     11711467 |     11711467 |     23409643 |     23409643 |     23409643 |     23409643 |     23409643 |     23409643 |     23409643 |     46818471 |     46818471 |     46818471 |     46818471 |     46818471 |     46818471 |     46818471 |     93611175 |     93611175 |     93611175 |     93611175 |     93611175 |     93611175 |     93611175 |    187205807 |    187205807 |    187205807 |    187205807 |    187205807 |    187205807 |    187205807 |    374395063 |    374395063 |    374395063 |    374395063 |    374395063 |    374395063 |    374395063 |
sim_num_refs                                138964 |       138964 |       138964 |       138964 |       138964 |       138964 |       138964 |       270036 |       270036 |       270036 |       270036 |       270036 |       270036 |       270036 |       532180 |       532180 |       532180 |       532180 |       532180 |       532180 |       532180 |      1056468 |      1056468 |      1056468 |      1056468 |      1056468 |      1056468 |      1056468 |      2105044 |      2105044 |      2105044 |      2105044 |      2105044 |      2105044 |      2105044 |      4202196 |      4202196 |      4202196 |      4202196 |      4202196 |      4202196 |      4202196 |      8396500 |      8396500 |      8396500 |      8396500 |      8396500 |      8396500 |      8396500 |     16794370 |     16794370 |     16794370 |     16794370 |     16794370 |     16794370 |     16794370 |     33571586 |     33571586 |     33571586 |     33571586 |     33571586 |     33571586 |     33571586 |     67132162 |     67132162 |     67132162 |     67132162 |     67132162 |     67132162 |     67132162 |    134253314 |    134253314 |    134253314 |    134253314 |    134253314 |    134253314 |    134253314 |
sim_elapsed_time                                 1 |            1 |            1 |            1 |            1 |            1 |            1 |            1 |            1 |            1 |            1 |            1 |            1 |            1 |            1 |            1 |            1 |            1 |            1 |            1 |            1 |            1 |            1 |            1 |            1 |            1 |            1 |            1 |            1 |            1 |            1 |            1 |            1 |            1 |            1 |            1 |            1 |            1 |            1 |            1 |            2 |            1 |            2 |            3 |            2 |            2 |            2 |            3 |            2 |            4 |            5 |            4 |            5 |            5 |            4 |            5 |            9 |            9 |            9 |            9 |            9 |            9 |            9 |           18 |           19 |           18 |           18 |           18 |           18 |           18 |           37 |           37 |           36 |           37 |           37 |           37 |           38 |
sim_inst_rate                          378851.0000 |  378851.0000 |  378851.0000 |  378851.0000 |  378851.0000 |  378851.0000 |  378851.0000 |  744423.0000 |  744423.0000 |  744423.0000 |  744423.0000 |  744423.0000 |  744423.0000 |  744423.0000 | 1475561.0000 | 1475561.0000 | 1475561.0000 | 1475561.0000 | 1475561.0000 | 1475561.0000 | 1475561.0000 | 2937834.0000 | 2937834.0000 | 2937834.0000 | 2937834.0000 | 2937834.0000 | 2937834.0000 | 2937834.0000 | 5862378.0000 | 5862378.0000 | 5862378.0000 | 5862378.0000 | 5862378.0000 | 5862378.0000 | 5862378.0000 |11711467.0000 |11711467.0000 |11711467.0000 |11711467.0000 |11711467.0000 | 5855733.5000 |11711467.0000 |11704821.5000 | 7803214.3333 |11704821.5000 |11704821.5000 |11704821.5000 | 7803214.3333 |11704821.5000 |11704617.7500 | 9363694.2000 |11704617.7500 | 9363694.2000 | 9363694.2000 |11704617.7500 | 9363694.2000 |10401241.6667 |10401241.6667 |10401241.6667 |10401241.6667 |10401241.6667 |10401241.6667 |10401241.6667 |10400322.6111 | 9852937.2105 |10400322.6111 |10400322.6111 |10400322.6111 |10400322.6111 |10400322.6111 |10118785.4865 |10118785.4865 |10399862.8611 |10118785.4865 |10118785.4865 |10118785.4865 | 9852501.6579 |
sim_num_branches                              9292 |         9292 |         9292 |         9292 |         9292 |         9292 |         9292 |        17484 |        17484 |        17484 |        17484 |        17484 |        17484 |        17484 |        33868 |        33868 |        33868 |        33868 |        33868 |        33868 |        33868 |        66636 |        66636 |        66636 |        66636 |        66636 |        66636 |        66636 |       132172 |       132172 |       132172 |       132172 |       132172 |       132172 |       132172 |       263244 |       263244 |       263244 |       263244 |       263244 |       263244 |       263244 |       525388 |       525388 |       525388 |       525388 |       525388 |       525388 |       525388 |      1050469 |      1050469 |      1050469 |      1050469 |      1050469 |      1050469 |      1050469 |      2099045 |      2099045 |      2099045 |      2099045 |      2099045 |      2099045 |      2099045 |      4196968 |      4196968 |      4196968 |      4196968 |      4196968 |      4196968 |      4196968 |      8392811 |      8392811 |      8392811 |      8392811 |      8392811 |      8392811 |      8392811 |
sim_IPB                                    40.7717 |      40.7717 |      40.7717 |      40.7717 |      40.7717 |      40.7717 |      40.7717 |      42.5774 |      42.5774 |      42.5774 |      42.5774 |      42.5774 |      42.5774 |      42.5774 |      43.5680 |      43.5680 |      43.5680 |      43.5680 |      43.5680 |      43.5680 |      43.5680 |      44.0878 |      44.0878 |      44.0878 |      44.0878 |      44.0878 |      44.0878 |      44.0878 |      44.3542 |      44.3542 |      44.3542 |      44.3542 |      44.3542 |      44.3542 |      44.3542 |      44.4890 |      44.4890 |      44.4890 |      44.4890 |      44.4890 |      44.4890 |      44.4890 |      44.5569 |      44.5569 |      44.5569 |      44.5569 |      44.5569 |      44.5569 |      44.5569 |      44.5691 |      44.5691 |      44.5691 |      44.5691 |      44.5691 |      44.5691 |      44.5691 |      44.5970 |      44.5970 |      44.5970 |      44.5970 |      44.5970 |      44.5970 |      44.5970 |      44.6050 |      44.6050 |      44.6050 |      44.6050 |      44.6050 |      44.6050 |      44.6050 |      44.6090 |      44.6090 |      44.6090 |      44.6090 |      44.6090 |      44.6090 |      44.6090 |
bpred_bimod.lookups                           9292 |         9292 |         9292 |xxxxxxxxxxxxx |xxxxxxxxxxxxx |xxxxxxxxxxxxx |xxxxxxxxxxxxx |        17484 |        17484 |        17484 |xxxxxxxxxxxxx |xxxxxxxxxxxxx |xxxxxxxxxxxxx |xxxxxxxxxxxxx |        33868 |        33868 |        33868 |xxxxxxxxxxxxx |xxxxxxxxxxxxx |xxxxxxxxxxxxx |xxxxxxxxxxxxx |        66636 |        66636 |        66636 |xxxxxxxxxxxxx |xxxxxxxxxxxxx |xxxxxxxxxxxxx |xxxxxxxxxxxxx |       132172 |       132172 |       132172 |xxxxxxxxxxxxx |xxxxxxxxxxxxx |xxxxxxxxxxxxx |xxxxxxxxxxxxx |       263244 |       263244 |       263244 |xxxxxxxxxxxxx |xxxxxxxxxxxxx |xxxxxxxxxxxxx |xxxxxxxxxxxxx |       525388 |       525388 |       525388 |xxxxxxxxxxxxx |xxxxxxxxxxxxx |xxxxxxxxxxxxx |xxxxxxxxxxxxx |      1050469 |      1050469 |      1050469 |xxxxxxxxxxxxx |xxxxxxxxxxxxx |xxxxxxxxxxxxx |xxxxxxxxxxxxx |      2099045 |      2099045 |      2099045 |xxxxxxxxxxxxx |xxxxxxxxxxxxx |xxxxxxxxxxxxx |xxxxxxxxxxxxx |      4196968 |      4196968 |      4196968 |xxxxxxxxxxxxx |xxxxxxxxxxxxx |xxxxxxxxxxxxx |xxxxxxxxxxxxx |      8392811 |      8392811 |      8392811 |
bpred_bimod.updates                           9292 |         9292 |         9292 |xxxxxxxxxxxxx |xxxxxxxxxxxxx |xxxxxxxxxxxxx |xxxxxxxxxxxxx |        17484 |        17484 |        17484 |xxxxxxxxxxxxx |xxxxxxxxxxxxx |xxxxxxxxxxxxx |xxxxxxxxxxxxx |        33868 |        33868 |        33868 |xxxxxxxxxxxxx |xxxxxxxxxxxxx |xxxxxxxxxxxxx |xxxxxxxxxxxxx |        66636 |        66636 |        66636 |xxxxxxxxxxxxx |xxxxxxxxxxxxx |xxxxxxxxxxxxx |xxxxxxxxxxxxx |       132172 |       132172 |       132172 |xxxxxxxxxxxxx |xxxxxxxxxxxxx |xxxxxxxxxxxxx |xxxxxxxxxxxxx |       263244 |       263244 |       263244 |xxxxxxxxxxxxx |xxxxxxxxxxxxx |xxxxxxxxxxxxx |xxxxxxxxxxxxx |       525388 |       525388 |       525388 |xxxxxxxxxxxxx |xxxxxxxxxxxxx |xxxxxxxxxxxxx |xxxxxxxxxxxxx |      1050469 |      1050469 |      1050469 |xxxxxxxxxxxxx |xxxxxxxxxxxxx |xxxxxxxxxxxxx |xxxxxxxxxxxxx |      2099045 |      2099045 |      2099045 |xxxxxxxxxxxxx |xxxxxxxxxxxxx |xxxxxxxxxxxxx |xxxxxxxxxxxxx |      4196968 |      4196968 |      4196968 |xxxxxxxxxxxxx |xxxxxxxxxxxxx |xxxxxxxxxxxxx |xxxxxxxxxxxxx |      8392811 |      8392811 |      8392811 |
bpred_bimod.addr_hits                         9076 |         9079 |         9080 |xxxxxxxxxxxxx |xxxxxxxxxxxxx |xxxxxxxxxxxxx |xxxxxxxxxxxxx |        17267 |        17271 |        17272 |xxxxxxxxxxxxx |xxxxxxxxxxxxx |xxxxxxxxxxxxx |xxxxxxxxxxxxx |        33654 |        33656 |        33657 |xxxxxxxxxxxxx |xxxxxxxxxxxxx |xxxxxxxxxxxxx |xxxxxxxxxxxxx |        66421 |        66424 |        66425 |xxxxxxxxxxxxx |xxxxxxxxxxxxx |xxxxxxxxxxxxx |xxxxxxxxxxxxx |       131957 |       131960 |       131961 |xxxxxxxxxxxxx |xxxxxxxxxxxxx |xxxxxxxxxxxxx |xxxxxxxxxxxxx |       263029 |       263032 |       263033 |xxxxxxxxxxxxx |xxxxxxxxxxxxx |xxxxxxxxxxxxx |xxxxxxxxxxxxx |       525173 |       525176 |       525177 |xxxxxxxxxxxxx |xxxxxxxxxxxxx |xxxxxxxxxxxxx |xxxxxxxxxxxxx |      1050228 |      1050231 |      1050231 |xxxxxxxxxxxxx |xxxxxxxxxxxxx |xxxxxxxxxxxxx |xxxxxxxxxxxxx |      2098804 |      2098807 |      2098807 |xxxxxxxxxxxxx |xxxxxxxxxxxxx |xxxxxxxxxxxxx |xxxxxxxxxxxxx |      4196727 |      4196730 |      4196730 |xxxxxxxxxxxxx |xxxxxxxxxxxxx |xxxxxxxxxxxxx |xxxxxxxxxxxxx |      8392570 |      8392573 |      8392573 |
bpred_bimod.dir_hits                          9186 |         9185 |         9185 |xxxxxxxxxxxxx |xxxxxxxxxxxxx |xxxxxxxxxxxxx |xxxxxxxxxxxxx |        17372 |        17377 |        17377 |xxxxxxxxxxxxx |xxxxxxxxxxxxx |xxxxxxxxxxxxx |xxxxxxxxxxxxx |        33761 |        33761 |        33762 |xxxxxxxxxxxxx |xxxxxxxxxxxxx |xxxxxxxxxxxxx |xxxxxxxxxxxxx |        66526 |        66527 |        66529 |xxxxxxxxxxxxx |xxxxxxxxxxxxx |xxxxxxxxxxxxx |xxxxxxxxxxxxx |       132062 |       132063 |       132065 |xxxxxxxxxxxxx |xxxxxxxxxxxxx |xxxxxxxxxxxxx |xxxxxxxxxxxxx |       263135 |       263136 |       263138 |xxxxxxxxxxxxx |xxxxxxxxxxxxx |xxxxxxxxxxxxx |xxxxxxxxxxxxx |       525279 |       525280 |       525282 |xxxxxxxxxxxxx |xxxxxxxxxxxxx |xxxxxxxxxxxxx |xxxxxxxxxxxxx |      1050345 |      1050346 |      1050347 |xxxxxxxxxxxxx |xxxxxxxxxxxxx |xxxxxxxxxxxxx |xxxxxxxxxxxxx |      2098921 |      2098922 |      2098923 |xxxxxxxxxxxxx |xxxxxxxxxxxxx |xxxxxxxxxxxxx |xxxxxxxxxxxxx |      4196844 |      4196845 |      4196846 |xxxxxxxxxxxxx |xxxxxxxxxxxxx |xxxxxxxxxxxxx |xxxxxxxxxxxxx |      8392687 |      8392688 |      8392689 |
bpred_bimod.misses                             106 |          107 |          107 |xxxxxxxxxxxxx |xxxxxxxxxxxxx |xxxxxxxxxxxxx |xxxxxxxxxxxxx |          112 |          107 |          107 |xxxxxxxxxxxxx |xxxxxxxxxxxxx |xxxxxxxxxxxxx |xxxxxxxxxxxxx |          107 |          107 |          106 |xxxxxxxxxxxxx |xxxxxxxxxxxxx |xxxxxxxxxxxxx |xxxxxxxxxxxxx |          110 |          109 |          107 |xxxxxxxxxxxxx |xxxxxxxxxxxxx |xxxxxxxxxxxxx |xxxxxxxxxxxxx |          110 |          109 |          107 |xxxxxxxxxxxxx |xxxxxxxxxxxxx |xxxxxxxxxxxxx |xxxxxxxxxxxxx |          109 |          108 |          106 |xxxxxxxxxxxxx |xxxxxxxxxxxxx |xxxxxxxxxxxxx |xxxxxxxxxxxxx |          109 |          108 |          106 |xxxxxxxxxxxxx |xxxxxxxxxxxxx |xxxxxxxxxxxxx |xxxxxxxxxxxxx |          124 |          123 |          122 |xxxxxxxxxxxxx |xxxxxxxxxxxxx |xxxxxxxxxxxxx |xxxxxxxxxxxxx |          124 |          123 |          122 |xxxxxxxxxxxxx |xxxxxxxxxxxxx |xxxxxxxxxxxxx |xxxxxxxxxxxxx |          124 |          123 |          122 |xxxxxxxxxxxxx |xxxxxxxxxxxxx |xxxxxxxxxxxxx |xxxxxxxxxxxxx |          124 |          123 |          122 |
bpred_bimod.jr_hits                             70 |           70 |           70 |xxxxxxxxxxxxx |xxxxxxxxxxxxx |xxxxxxxxxxxxx |xxxxxxxxxxxxx |           70 |           70 |           70 |xxxxxxxxxxxxx |xxxxxxxxxxxxx |xxxxxxxxxxxxx |xxxxxxxxxxxxx |           70 |           70 |           70 |xxxxxxxxxxxxx |xxxxxxxxxxxxx |xxxxxxxxxxxxx |xxxxxxxxxxxxx |           70 |           70 |           70 |xxxxxxxxxxxxx |xxxxxxxxxxxxx |xxxxxxxxxxxxx |xxxxxxxxxxxxx |           70 |           70 |           70 |xxxxxxxxxxxxx |xxxxxxxxxxxxx |xxxxxxxxxxxxx |xxxxxxxxxxxxx |           70 |           70 |           70 |xxxxxxxxxxxxx |xxxxxxxxxxxxx |xxxxxxxxxxxxx |xxxxxxxxxxxxx |           70 |           70 |           70 |xxxxxxxxxxxxx |xxxxxxxxxxxxx |xxxxxxxxxxxxx |xxxxxxxxxxxxx |           73 |           73 |           73 |xxxxxxxxxxxxx |xxxxxxxxxxxxx |xxxxxxxxxxxxx |xxxxxxxxxxxxx |           73 |           73 |           73 |xxxxxxxxxxxxx |xxxxxxxxxxxxx |xxxxxxxxxxxxx |xxxxxxxxxxxxx |           73 |           73 |           73 |xxxxxxxxxxxxx |xxxxxxxxxxxxx |xxxxxxxxxxxxx |xxxxxxxxxxxxx |           73 |           73 |           73 |
bpred_bimod.jr_seen                             71 |           71 |           71 |xxxxxxxxxxxxx |xxxxxxxxxxxxx |xxxxxxxxxxxxx |xxxxxxxxxxxxx |           71 |           71 |           71 |xxxxxxxxxxxxx |xxxxxxxxxxxxx |xxxxxxxxxxxxx |xxxxxxxxxxxxx |           71 |           71 |           71 |xxxxxxxxxxxxx |xxxxxxxxxxxxx |xxxxxxxxxxxxx |xxxxxxxxxxxxx |           71 |           71 |           71 |xxxxxxxxxxxxx |xxxxxxxxxxxxx |xxxxxxxxxxxxx |xxxxxxxxxxxxx |           71 |           71 |           71 |xxxxxxxxxxxxx |xxxxxxxxxxxxx |xxxxxxxxxxxxx |xxxxxxxxxxxxx |           71 |           71 |           71 |xxxxxxxxxxxxx |xxxxxxxxxxxxx |xxxxxxxxxxxxx |xxxxxxxxxxxxx |           71 |           71 |           71 |xxxxxxxxxxxxx |xxxxxxxxxxxxx |xxxxxxxxxxxxx |xxxxxxxxxxxxx |           74 |           74 |           74 |xxxxxxxxxxxxx |xxxxxxxxxxxxx |xxxxxxxxxxxxx |xxxxxxxxxxxxx |           74 |           74 |           74 |xxxxxxxxxxxxx |xxxxxxxxxxxxx |xxxxxxxxxxxxx |xxxxxxxxxxxxx |           74 |           74 |           74 |xxxxxxxxxxxxx |xxxxxxxxxxxxx |xxxxxxxxxxxxx |xxxxxxxxxxxxx |           74 |           74 |           74 |
bpred_bimod.jr_non_ras_hits.PP                   0 |            0 |            0 |xxxxxxxxxxxxx |xxxxxxxxxxxxx |xxxxxxxxxxxxx |xxxxxxxxxxxxx |            0 |            0 |            0 |xxxxxxxxxxxxx |xxxxxxxxxxxxx |xxxxxxxxxxxxx |xxxxxxxxxxxxx |            0 |            0 |            0 |xxxxxxxxxxxxx |xxxxxxxxxxxxx |xxxxxxxxxxxxx |xxxxxxxxxxxxx |            0 |            0 |            0 |xxxxxxxxxxxxx |xxxxxxxxxxxxx |xxxxxxxxxxxxx |xxxxxxxxxxxxx |            0 |            0 |            0 |xxxxxxxxxxxxx |xxxxxxxxxxxxx |xxxxxxxxxxxxx |xxxxxxxxxxxxx |            0 |            0 |            0 |xxxxxxxxxxxxx |xxxxxxxxxxxxx |xxxxxxxxxxxxx |xxxxxxxxxxxxx |            0 |            0 |            0 |xxxxxxxxxxxxx |xxxxxxxxxxxxx |xxxxxxxxxxxxx |xxxxxxxxxxxxx |            0 |            0 |            0 |xxxxxxxxxxxxx |xxxxxxxxxxxxx |xxxxxxxxxxxxx |xxxxxxxxxxxxx |            0 |            0 |            0 |xxxxxxxxxxxxx |xxxxxxxxxxxxx |xxxxxxxxxxxxx |xxxxxxxxxxxxx |            0 |            0 |            0 |xxxxxxxxxxxxx |xxxxxxxxxxxxx |xxxxxxxxxxxxx |xxxxxxxxxxxxx |            0 |            0 |            0 |
bpred_bimod.jr_non_ras_seen.PP                   0 |            0 |            0 |xxxxxxxxxxxxx |xxxxxxxxxxxxx |xxxxxxxxxxxxx |xxxxxxxxxxxxx |            0 |            0 |            0 |xxxxxxxxxxxxx |xxxxxxxxxxxxx |xxxxxxxxxxxxx |xxxxxxxxxxxxx |            0 |            0 |            0 |xxxxxxxxxxxxx |xxxxxxxxxxxxx |xxxxxxxxxxxxx |xxxxxxxxxxxxx |            0 |            0 |            0 |xxxxxxxxxxxxx |xxxxxxxxxxxxx |xxxxxxxxxxxxx |xxxxxxxxxxxxx |            0 |            0 |            0 |xxxxxxxxxxxxx |xxxxxxxxxxxxx |xxxxxxxxxxxxx |xxxxxxxxxxxxx |            0 |            0 |            0 |xxxxxxxxxxxxx |xxxxxxxxxxxxx |xxxxxxxxxxxxx |xxxxxxxxxxxxx |            0 |            0 |            0 |xxxxxxxxxxxxx |xxxxxxxxxxxxx |xxxxxxxxxxxxx |xxxxxxxxxxxxx |            1 |            1 |            1 |xxxxxxxxxxxxx |xxxxxxxxxxxxx |xxxxxxxxxxxxx |xxxxxxxxxxxxx |            1 |            1 |            1 |xxxxxxxxxxxxx |xxxxxxxxxxxxx |xxxxxxxxxxxxx |xxxxxxxxxxxxx |            1 |            1 |            1 |xxxxxxxxxxxxx |xxxxxxxxxxxxx |xxxxxxxxxxxxx |xxxxxxxxxxxxx |            1 |            1 |            1 |
bpred_bimod.bpred_addr_rate                 0.9768 |       0.9771 |       0.9772 |xxxxxxxxxxxxx |xxxxxxxxxxxxx |xxxxxxxxxxxxx |xxxxxxxxxxxxx |       0.9876 |       0.9878 |       0.9879 |xxxxxxxxxxxxx |xxxxxxxxxxxxx |xxxxxxxxxxxxx |xxxxxxxxxxxxx |       0.9937 |       0.9937 |       0.9938 |xxxxxxxxxxxxx |xxxxxxxxxxxxx |xxxxxxxxxxxxx |xxxxxxxxxxxxx |       0.9968 |       0.9968 |       0.9968 |xxxxxxxxxxxxx |xxxxxxxxxxxxx |xxxxxxxxxxxxx |xxxxxxxxxxxxx |       0.9984 |       0.9984 |       0.9984 |xxxxxxxxxxxxx |xxxxxxxxxxxxx |xxxxxxxxxxxxx |xxxxxxxxxxxxx |       0.9992 |       0.9992 |       0.9992 |xxxxxxxxxxxxx |xxxxxxxxxxxxx |xxxxxxxxxxxxx |xxxxxxxxxxxxx |       0.9996 |       0.9996 |       0.9996 |xxxxxxxxxxxxx |xxxxxxxxxxxxx |xxxxxxxxxxxxx |xxxxxxxxxxxxx |       0.9998 |       0.9998 |       0.9998 |xxxxxxxxxxxxx |xxxxxxxxxxxxx |xxxxxxxxxxxxx |xxxxxxxxxxxxx |       0.9999 |       0.9999 |       0.9999 |xxxxxxxxxxxxx |xxxxxxxxxxxxx |xxxxxxxxxxxxx |xxxxxxxxxxxxx |       0.9999 |       0.9999 |       0.9999 |xxxxxxxxxxxxx |xxxxxxxxxxxxx |xxxxxxxxxxxxx |xxxxxxxxxxxxx |       1.0000 |       1.0000 |       1.0000 |
bpred_bimod.bpred_dir_rate                  0.9886 |       0.9885 |       0.9885 |xxxxxxxxxxxxx |xxxxxxxxxxxxx |xxxxxxxxxxxxx |xxxxxxxxxxxxx |       0.9936 |       0.9939 |       0.9939 |xxxxxxxxxxxxx |xxxxxxxxxxxxx |xxxxxxxxxxxxx |xxxxxxxxxxxxx |       0.9968 |       0.9968 |       0.9969 |xxxxxxxxxxxxx |xxxxxxxxxxxxx |xxxxxxxxxxxxx |xxxxxxxxxxxxx |       0.9983 |       0.9984 |       0.9984 |xxxxxxxxxxxxx |xxxxxxxxxxxxx |xxxxxxxxxxxxx |xxxxxxxxxxxxx |       0.9992 |       0.9992 |       0.9992 |xxxxxxxxxxxxx |xxxxxxxxxxxxx |xxxxxxxxxxxxx |xxxxxxxxxxxxx |       0.9996 |       0.9996 |       0.9996 |xxxxxxxxxxxxx |xxxxxxxxxxxxx |xxxxxxxxxxxxx |xxxxxxxxxxxxx |       0.9998 |       0.9998 |       0.9998 |xxxxxxxxxxxxx |xxxxxxxxxxxxx |xxxxxxxxxxxxx |xxxxxxxxxxxxx |       0.9999 |       0.9999 |       0.9999 |xxxxxxxxxxxxx |xxxxxxxxxxxxx |xxxxxxxxxxxxx |xxxxxxxxxxxxx |       0.9999 |       0.9999 |       0.9999 |xxxxxxxxxxxxx |xxxxxxxxxxxxx |xxxxxxxxxxxxx |xxxxxxxxxxxxx |       1.0000 |       1.0000 |       1.0000 |xxxxxxxxxxxxx |xxxxxxxxxxxxx |xxxxxxxxxxxxx |xxxxxxxxxxxxx |       1.0000 |       1.0000 |       1.0000 |
bpred_bimod.bpred_jr_rate                   0.9859 |       0.9859 |       0.9859 |xxxxxxxxxxxxx |xxxxxxxxxxxxx |xxxxxxxxxxxxx |xxxxxxxxxxxxx |       0.9859 |       0.9859 |       0.9859 |xxxxxxxxxxxxx |xxxxxxxxxxxxx |xxxxxxxxxxxxx |xxxxxxxxxxxxx |       0.9859 |       0.9859 |       0.9859 |xxxxxxxxxxxxx |xxxxxxxxxxxxx |xxxxxxxxxxxxx |xxxxxxxxxxxxx |       0.9859 |       0.9859 |       0.9859 |xxxxxxxxxxxxx |xxxxxxxxxxxxx |xxxxxxxxxxxxx |xxxxxxxxxxxxx |       0.9859 |       0.9859 |       0.9859 |xxxxxxxxxxxxx |xxxxxxxxxxxxx |xxxxxxxxxxxxx |xxxxxxxxxxxxx |       0.9859 |       0.9859 |       0.9859 |xxxxxxxxxxxxx |xxxxxxxxxxxxx |xxxxxxxxxxxxx |xxxxxxxxxxxxx |       0.9859 |       0.9859 |       0.9859 |xxxxxxxxxxxxx |xxxxxxxxxxxxx |xxxxxxxxxxxxx |xxxxxxxxxxxxx |       0.9865 |       0.9865 |       0.9865 |xxxxxxxxxxxxx |xxxxxxxxxxxxx |xxxxxxxxxxxxx |xxxxxxxxxxxxx |       0.9865 |       0.9865 |       0.9865 |xxxxxxxxxxxxx |xxxxxxxxxxxxx |xxxxxxxxxxxxx |xxxxxxxxxxxxx |       0.9865 |       0.9865 |       0.9865 |xxxxxxxxxxxxx |xxxxxxxxxxxxx |xxxxxxxxxxxxx |xxxxxxxxxxxxx |       0.9865 |       0.9865 |       0.9865 |
bpred_bimod.bpred_jr_non_ras_rate.PP       <error: |      <error: |      <error: |xxxxxxxxxxxxx |xxxxxxxxxxxxx |xxxxxxxxxxxxx |xxxxxxxxxxxxx |      <error: |      <error: |      <error: |xxxxxxxxxxxxx |xxxxxxxxxxxxx |xxxxxxxxxxxxx |xxxxxxxxxxxxx |      <error: |      <error: |      <error: |xxxxxxxxxxxxx |xxxxxxxxxxxxx |xxxxxxxxxxxxx |xxxxxxxxxxxxx |      <error: |      <error: |      <error: |xxxxxxxxxxxxx |xxxxxxxxxxxxx |xxxxxxxxxxxxx |xxxxxxxxxxxxx |      <error: |      <error: |      <error: |xxxxxxxxxxxxx |xxxxxxxxxxxxx |xxxxxxxxxxxxx |xxxxxxxxxxxxx |      <error: |      <error: |      <error: |xxxxxxxxxxxxx |xxxxxxxxxxxxx |xxxxxxxxxxxxx |xxxxxxxxxxxxx |      <error: |      <error: |      <error: |xxxxxxxxxxxxx |xxxxxxxxxxxxx |xxxxxxxxxxxxx |xxxxxxxxxxxxx |       0.0000 |       0.0000 |       0.0000 |xxxxxxxxxxxxx |xxxxxxxxxxxxx |xxxxxxxxxxxxx |xxxxxxxxxxxxx |       0.0000 |       0.0000 |       0.0000 |xxxxxxxxxxxxx |xxxxxxxxxxxxx |xxxxxxxxxxxxx |xxxxxxxxxxxxx |       0.0000 |       0.0000 |       0.0000 |xxxxxxxxxxxxx |xxxxxxxxxxxxx |xxxxxxxxxxxxx |xxxxxxxxxxxxx |       0.0000 |       0.0000 |       0.0000 |
bpred_bimod.retstack_pushes                     73 |           73 |           73 |xxxxxxxxxxxxx |xxxxxxxxxxxxx |xxxxxxxxxxxxx |xxxxxxxxxxxxx |           73 |           73 |           73 |xxxxxxxxxxxxx |xxxxxxxxxxxxx |xxxxxxxxxxxxx |xxxxxxxxxxxxx |           73 |           73 |           73 |xxxxxxxxxxxxx |xxxxxxxxxxxxx |xxxxxxxxxxxxx |xxxxxxxxxxxxx |           73 |           73 |           73 |xxxxxxxxxxxxx |xxxxxxxxxxxxx |xxxxxxxxxxxxx |xxxxxxxxxxxxx |           73 |           73 |           73 |xxxxxxxxxxxxx |xxxxxxxxxxxxx |xxxxxxxxxxxxx |xxxxxxxxxxxxx |           73 |           73 |           73 |xxxxxxxxxxxxx |xxxxxxxxxxxxx |xxxxxxxxxxxxx |xxxxxxxxxxxxx |           73 |           73 |           73 |xxxxxxxxxxxxx |xxxxxxxxxxxxx |xxxxxxxxxxxxx |xxxxxxxxxxxxx |           75 |           75 |           75 |xxxxxxxxxxxxx |xxxxxxxxxxxxx |xxxxxxxxxxxxx |xxxxxxxxxxxxx |           75 |           75 |           75 |xxxxxxxxxxxxx |xxxxxxxxxxxxx |xxxxxxxxxxxxx |xxxxxxxxxxxxx |           75 |           75 |           75 |xxxxxxxxxxxxx |xxxxxxxxxxxxx |xxxxxxxxxxxxx |xxxxxxxxxxxxx |           75 |           75 |           75 |
bpred_bimod.retstack_pops                       71 |           71 |           71 |xxxxxxxxxxxxx |xxxxxxxxxxxxx |xxxxxxxxxxxxx |xxxxxxxxxxxxx |           71 |           71 |           71 |xxxxxxxxxxxxx |xxxxxxxxxxxxx |xxxxxxxxxxxxx |xxxxxxxxxxxxx |           71 |           71 |           71 |xxxxxxxxxxxxx |xxxxxxxxxxxxx |xxxxxxxxxxxxx |xxxxxxxxxxxxx |           71 |           71 |           71 |xxxxxxxxxxxxx |xxxxxxxxxxxxx |xxxxxxxxxxxxx |xxxxxxxxxxxxx |           71 |           71 |           71 |xxxxxxxxxxxxx |xxxxxxxxxxxxx |xxxxxxxxxxxxx |xxxxxxxxxxxxx |           71 |           71 |           71 |xxxxxxxxxxxxx |xxxxxxxxxxxxx |xxxxxxxxxxxxx |xxxxxxxxxxxxx |           71 |           71 |           71 |xxxxxxxxxxxxx |xxxxxxxxxxxxx |xxxxxxxxxxxxx |xxxxxxxxxxxxx |           73 |           73 |           73 |xxxxxxxxxxxxx |xxxxxxxxxxxxx |xxxxxxxxxxxxx |xxxxxxxxxxxxx |           73 |           73 |           73 |xxxxxxxxxxxxx |xxxxxxxxxxxxx |xxxxxxxxxxxxx |xxxxxxxxxxxxx |           73 |           73 |           73 |xxxxxxxxxxxxx |xxxxxxxxxxxxx |xxxxxxxxxxxxx |xxxxxxxxxxxxx |           73 |           73 |           73 |
bpred_bimod.used_ras.PP                         71 |           71 |           71 |xxxxxxxxxxxxx |xxxxxxxxxxxxx |xxxxxxxxxxxxx |xxxxxxxxxxxxx |           71 |           71 |           71 |xxxxxxxxxxxxx |xxxxxxxxxxxxx |xxxxxxxxxxxxx |xxxxxxxxxxxxx |           71 |           71 |           71 |xxxxxxxxxxxxx |xxxxxxxxxxxxx |xxxxxxxxxxxxx |xxxxxxxxxxxxx |           71 |           71 |           71 |xxxxxxxxxxxxx |xxxxxxxxxxxxx |xxxxxxxxxxxxx |xxxxxxxxxxxxx |           71 |           71 |           71 |xxxxxxxxxxxxx |xxxxxxxxxxxxx |xxxxxxxxxxxxx |xxxxxxxxxxxxx |           71 |           71 |           71 |xxxxxxxxxxxxx |xxxxxxxxxxxxx |xxxxxxxxxxxxx |xxxxxxxxxxxxx |           71 |           71 |           71 |xxxxxxxxxxxxx |xxxxxxxxxxxxx |xxxxxxxxxxxxx |xxxxxxxxxxxxx |           73 |           73 |           73 |xxxxxxxxxxxxx |xxxxxxxxxxxxx |xxxxxxxxxxxxx |xxxxxxxxxxxxx |           73 |           73 |           73 |xxxxxxxxxxxxx |xxxxxxxxxxxxx |xxxxxxxxxxxxx |xxxxxxxxxxxxx |           73 |           73 |           73 |xxxxxxxxxxxxx |xxxxxxxxxxxxx |xxxxxxxxxxxxx |xxxxxxxxxxxxx |           73 |           73 |           73 |
bpred_bimod.ras_hits.PP                         70 |           70 |           70 |xxxxxxxxxxxxx |xxxxxxxxxxxxx |xxxxxxxxxxxxx |xxxxxxxxxxxxx |           70 |           70 |           70 |xxxxxxxxxxxxx |xxxxxxxxxxxxx |xxxxxxxxxxxxx |xxxxxxxxxxxxx |           70 |           70 |           70 |xxxxxxxxxxxxx |xxxxxxxxxxxxx |xxxxxxxxxxxxx |xxxxxxxxxxxxx |           70 |           70 |           70 |xxxxxxxxxxxxx |xxxxxxxxxxxxx |xxxxxxxxxxxxx |xxxxxxxxxxxxx |           70 |           70 |           70 |xxxxxxxxxxxxx |xxxxxxxxxxxxx |xxxxxxxxxxxxx |xxxxxxxxxxxxx |           70 |           70 |           70 |xxxxxxxxxxxxx |xxxxxxxxxxxxx |xxxxxxxxxxxxx |xxxxxxxxxxxxx |           70 |           70 |           70 |xxxxxxxxxxxxx |xxxxxxxxxxxxx |xxxxxxxxxxxxx |xxxxxxxxxxxxx |           73 |           73 |           73 |xxxxxxxxxxxxx |xxxxxxxxxxxxx |xxxxxxxxxxxxx |xxxxxxxxxxxxx |           73 |           73 |           73 |xxxxxxxxxxxxx |xxxxxxxxxxxxx |xxxxxxxxxxxxx |xxxxxxxxxxxxx |           73 |           73 |           73 |xxxxxxxxxxxxx |xxxxxxxxxxxxx |xxxxxxxxxxxxx |xxxxxxxxxxxxx |           73 |           73 |           73 |
bpred_bimod.ras_rate.PP                     0.9859 |       0.9859 |       0.9859 |xxxxxxxxxxxxx |xxxxxxxxxxxxx |xxxxxxxxxxxxx |xxxxxxxxxxxxx |       0.9859 |       0.9859 |       0.9859 |xxxxxxxxxxxxx |xxxxxxxxxxxxx |xxxxxxxxxxxxx |xxxxxxxxxxxxx |       0.9859 |       0.9859 |       0.9859 |xxxxxxxxxxxxx |xxxxxxxxxxxxx |xxxxxxxxxxxxx |xxxxxxxxxxxxx |       0.9859 |       0.9859 |       0.9859 |xxxxxxxxxxxxx |xxxxxxxxxxxxx |xxxxxxxxxxxxx |xxxxxxxxxxxxx |       0.9859 |       0.9859 |       0.9859 |xxxxxxxxxxxxx |xxxxxxxxxxxxx |xxxxxxxxxxxxx |xxxxxxxxxxxxx |       0.9859 |       0.9859 |       0.9859 |xxxxxxxxxxxxx |xxxxxxxxxxxxx |xxxxxxxxxxxxx |xxxxxxxxxxxxx |       0.9859 |       0.9859 |       0.9859 |xxxxxxxxxxxxx |xxxxxxxxxxxxx |xxxxxxxxxxxxx |xxxxxxxxxxxxx |       1.0000 |       1.0000 |       1.0000 |xxxxxxxxxxxxx |xxxxxxxxxxxxx |xxxxxxxxxxxxx |xxxxxxxxxxxxx |       1.0000 |       1.0000 |       1.0000 |xxxxxxxxxxxxx |xxxxxxxxxxxxx |xxxxxxxxxxxxx |xxxxxxxxxxxxx |       1.0000 |       1.0000 |       1.0000 |xxxxxxxxxxxxx |xxxxxxxxxxxxx |xxxxxxxxxxxxx |xxxxxxxxxxxxx |       1.0000 |       1.0000 |       1.0000 |
bpred_2lev.lookups                   xxxxxxxxxxxxx |xxxxxxxxxxxxx |xxxxxxxxxxxxx |         9292 |         9292 |         9292 |         9292 |xxxxxxxxxxxxx |xxxxxxxxxxxxx |xxxxxxxxxxxxx |        17484 |        17484 |        17484 |        17484 |xxxxxxxxxxxxx |xxxxxxxxxxxxx |xxxxxxxxxxxxx |        33868 |        33868 |        33868 |        33868 |xxxxxxxxxxxxx |xxxxxxxxxxxxx |xxxxxxxxxxxxx |        66636 |        66636 |        66636 |        66636 |xxxxxxxxxxxxx |xxxxxxxxxxxxx |xxxxxxxxxxxxx |       132172 |       132172 |       132172 |       132172 |xxxxxxxxxxxxx |xxxxxxxxxxxxx |xxxxxxxxxxxxx |       263244 |       263244 |       263244 |       263244 |xxxxxxxxxxxxx |xxxxxxxxxxxxx |xxxxxxxxxxxxx |       525388 |       525388 |       525388 |       525388 |xxxxxxxxxxxxx |xxxxxxxxxxxxx |xxxxxxxxxxxxx |      1050469 |      1050469 |      1050469 |      1050469 |xxxxxxxxxxxxx |xxxxxxxxxxxxx |xxxxxxxxxxxxx |      2099045 |      2099045 |      2099045 |      2099045 |xxxxxxxxxxxxx |xxxxxxxxxxxxx |xxxxxxxxxxxxx |      4196968 |      4196968 |      4196968 |      4196968 |xxxxxxxxxxxxx |xxxxxxxxxxxxx |xxxxxxxxxxxxx |      8392811 |      8392811 |      8392811 |      8392811 |
[...]
bpred_2lev.retstack_pops             xxxxxxxxxxxxx |xxxxxxxxxxxxx |xxxxxxxxxxxxx |           71 |           71 |           71 |           71 |xxxxxxxxxxxxx |xxxxxxxxxxxxx |xxxxxxxxxxxxx |           71 |           71 |           71 |           71 |xxxxxxxxxxxxx |xxxxxxxxxxxxx |xxxxxxxxxxxxx |           71 |           71 |           71 |           71 |xxxxxxxxxxxxx |xxxxxxxxxxxxx |xxxxxxxxxxxxx |           71 |           71 |           71 |           71 |xxxxxxxxxxxxx |xxxxxxxxxxxxx |xxxxxxxxxxxxx |           71 |           71 |           71 |           71 |xxxxxxxxxxxxx |xxxxxxxxxxxxx |xxxxxxxxxxxxx |           71 |           71 |           71 |           71 |xxxxxxxxxxxxx |xxxxxxxxxxxxx |xxxxxxxxxxxxx |           71 |           71 |           71 |           71 |xxxxxxxxxxxxx |xxxxxxxxxxxxx |xxxxxxxxxxxxx |           73 |           73 |           73 |           73 |xxxxxxxxxxxxx |xxxxxxxxxxxxx |xxxxxxxxxxxxx |           73 |           73 |           73 |           73 |xxxxxxxxxxxxx |xxxxxxxxxxxxx |xxxxxxxxxxxxx |           73 |           73 |           73 |           73 |xxxxxxxxxxxxx |xxxxxxxxxxxxx |xxxxxxxxxxxxx |           73 |           73 |           73 |           73 |
bpred_2lev.used_ras.PP               xxxxxxxxxxxxx |xxxxxxxxxxxxx |xxxxxxxxxxxxx |           71 |           71 |           71 |           71 |xxxxxxxxxxxxx |xxxxxxxxxxxxx |xxxxxxxxxxxxx |           71 |           71 |           71 |           71 |xxxxxxxxxxxxx |xxxxxxxxxxxxx |xxxxxxxxxxxxx |           71 |           71 |           71 |           71 |xxxxxxxxxxxxx |xxxxxxxxxxxxx |xxxxxxxxxxxxx |           71 |           71 |           71 |           71 |xxxxxxxxxxxxx |xxxxxxxxxxxxx |xxxxxxxxxxxxx |           71 |           71 |           71 |           71 |xxxxxxxxxxxxx |xxxxxxxxxxxxx |xxxxxxxxxxxxx |           71 |           71 |           71 |           71 |xxxxxxxxxxxxx |xxxxxxxxxxxxx |xxxxxxxxxxxxx |           71 |           71 |           71 |           71 |xxxxxxxxxxxxx |xxxxxxxxxxxxx |xxxxxxxxxxxxx |           73 |           73 |           73 |           73 |xxxxxxxxxxxxx |xxxxxxxxxxxxx |xxxxxxxxxxxxx |           73 |           73 |           73 |           73 |xxxxxxxxxxxxx |xxxxxxxxxxxxx |xxxxxxxxxxxxx |           73 |           73 |           73 |           73 |xxxxxxxxxxxxx |xxxxxxxxxxxxx |xxxxxxxxxxxxx |           73 |           73 |           73 |           73 |
bpred_2lev.ras_hits.PP               xxxxxxxxxxxxx |xxxxxxxxxxxxx |xxxxxxxxxxxxx |           70 |           70 |           70 |           70 |xxxxxxxxxxxxx |xxxxxxxxxxxxx |xxxxxxxxxxxxx |           70 |           70 |           70 |           70 |xxxxxxxxxxxxx |xxxxxxxxxxxxx |xxxxxxxxxxxxx |           70 |           70 |           70 |           70 |xxxxxxxxxxxxx |xxxxxxxxxxxxx |xxxxxxxxxxxxx |           70 |           70 |           70 |           70 |xxxxxxxxxxxxx |xxxxxxxxxxxxx |xxxxxxxxxxxxx |           70 |           70 |           70 |           70 |xxxxxxxxxxxxx |xxxxxxxxxxxxx |xxxxxxxxxxxxx |           70 |           70 |           70 |           70 |xxxxxxxxxxxxx |xxxxxxxxxxxxx |xxxxxxxxxxxxx |           70 |           70 |           70 |           70 |xxxxxxxxxxxxx |xxxxxxxxxxxxx |xxxxxxxxxxxxx |           73 |           73 |           73 |           73 |xxxxxxxxxxxxx |xxxxxxxxxxxxx |xxxxxxxxxxxxx |           73 |           73 |           73 |           73 |xxxxxxxxxxxxx |xxxxxxxxxxxxx |xxxxxxxxxxxxx |           73 |           73 |           73 |           73 |xxxxxxxxxxxxx |xxxxxxxxxxxxx |xxxxxxxxxxxxx |           73 |           73 |           73 |           73 |
bpred_2lev.ras_rate.PP               xxxxxxxxxxxxx |xxxxxxxxxxxxx |xxxxxxxxxxxxx |       0.9859 |       0.9859 |       0.9859 |       0.9859 |xxxxxxxxxxxxx |xxxxxxxxxxxxx |xxxxxxxxxxxxx |       0.9859 |       0.9859 |       0.9859 |       0.9859 |xxxxxxxxxxxxx |xxxxxxxxxxxxx |xxxxxxxxxxxxx |       0.9859 |       0.9859 |       0.9859 |       0.9859 |xxxxxxxxxxxxx |xxxxxxxxxxxxx |xxxxxxxxxxxxx |       0.9859 |       0.9859 |       0.9859 |       0.9859 |xxxxxxxxxxxxx |xxxxxxxxxxxxx |xxxxxxxxxxxxx |       0.9859 |       0.9859 |       0.9859 |       0.9859 |xxxxxxxxxxxxx |xxxxxxxxxxxxx |xxxxxxxxxxxxx |       0.9859 |       0.9859 |       0.9859 |       0.9859 |xxxxxxxxxxxxx |xxxxxxxxxxxxx |xxxxxxxxxxxxx |       0.9859 |       0.9859 |       0.9859 |       0.9859 |xxxxxxxxxxxxx |xxxxxxxxxxxxx |xxxxxxxxxxxxx |       1.0000 |       1.0000 |       1.0000 |       1.0000 |xxxxxxxxxxxxx |xxxxxxxxxxxxx |xxxxxxxxxxxxx |       1.0000 |       1.0000 |       1.0000 |       1.0000 |xxxxxxxxxxxxx |xxxxxxxxxxxxx |xxxxxxxxxxxxx |       1.0000 |       1.0000 |       1.0000 |       1.0000 |xxxxxxxxxxxxx |xxxxxxxxxxxxx |xxxxxxxxxxxxx |       1.0000 |       1.0000 |       1.0000 |       1.0000 |

Command list: 
	sslittle-na-sstrix-gcc -Wall -O3 -funroll-loops -finline-functions  -DRANDOM_SIZE=4096 -DOFFSET=9 -DSORT=aligned_cache_radixsort sorts/aligned_cache_radixsort1704628100.c simpleMain.c -o aligned_cache_radixsort1118670933
	sim-cache -cache:dl1 dl1:256:32:1:l -cache:dl2 dl2:131072:32:1:l -cache:il1 il1:256:32:1:l -cache:il2 dl2 aligned_cache_radixsort1118670933
	sim-cache -cache:dl1 dl1:256:32:1:l -cache:dl2 dl2:65536:32:1:l -cache:il1 il1:256:32:1:l -cache:il2 dl2 aligned_cache_radixsort1118670933
	sim-cache -cache:dl1 dl1:1:32:256:l -cache:dl2 dl2:1:32:131072:l -cache:il1 il1:1:32:256:l -cache:il2 dl2 aligned_cache_radixsort1118670933
	sim-cache -cache:dl1 dl1:1:32:256:l -cache:dl2 dl2:1:32:65536:l -cache:il1 il1:1:32:256:l -cache:il2 dl2 aligned_cache_radixsort1118670933
	sim-bpred -bpred bimod -bpred:bimod 512 aligned_cache_radixsort1118670933
	sim-bpred -bpred bimod -bpred:bimod 1024 aligned_cache_radixsort1118670933
	sim-bpred -bpred bimod -bpred:bimod 2048 aligned_cache_radixsort1118670933
	sim-bpred -bpred 2lev -bpred:2lev 1 512 10 1 aligned_cache_radixsort1118670933
	sim-bpred -bpred 2lev -bpred:2lev 1 1024 10 1 aligned_cache_radixsort1118670933
	sim-bpred -bpred 2lev -bpred:2lev 1 2048 10 1 aligned_cache_radixsort1118670933
	sim-bpred -bpred 2lev -bpred:2lev 1 4096 10 1 aligned_cache_radixsort1118670933
	sslittle-na-sstrix-gcc -Wall -O3 -funroll-loops -finline-functions  -DRANDOM_SIZE=8192 -DOFFSET=9 -DSORT=aligned_cache_radixsort sorts/aligned_cache_radixsort1704628100.c simpleMain.c -o aligned_cache_radixsort1118670933
	sim-cache -cache:dl1 dl1:256:32:1:l -cache:dl2 dl2:131072:32:1:l -cache:il1 il1:256:32:1:l -cache:il2 dl2 aligned_cache_radixsort1118670933
	sim-cache -cache:dl1 dl1:256:32:1:l -cache:dl2 dl2:65536:32:1:l -cache:il1 il1:256:32:1:l -cache:il2 dl2 aligned_cache_radixsort1118670933
	sim-cache -cache:dl1 dl1:1:32:256:l -cache:dl2 dl2:1:32:131072:l -cache:il1 il1:1:32:256:l -cache:il2 dl2 aligned_cache_radixsort1118670933
	sim-cache -cache:dl1 dl1:1:32:256:l -cache:dl2 dl2:1:32:65536:l -cache:il1 il1:1:32:256:l -cache:il2 dl2 aligned_cache_radixsort1118670933
	sim-bpred -bpred bimod -bpred:bimod 512 aligned_cache_radixsort1118670933
	sim-bpred -bpred bimod -bpred:bimod 1024 aligned_cache_radixsort1118670933
	sim-bpred -bpred bimod -bpred:bimod 2048 aligned_cache_radixsort1118670933
	sim-bpred -bpred 2lev -bpred:2lev 1 512 10 1 aligned_cache_radixsort1118670933
	sim-bpred -bpred 2lev -bpred:2lev 1 1024 10 1 aligned_cache_radixsort1118670933
	sim-bpred -bpred 2lev -bpred:2lev 1 2048 10 1 aligned_cache_radixsort1118670933
	sim-bpred -bpred 2lev -bpred:2lev 1 4096 10 1 aligned_cache_radixsort1118670933
	sslittle-na-sstrix-gcc -Wall -O3 -funroll-loops -finline-functions  -DRANDOM_SIZE=16384 -DOFFSET=9 -DSORT=aligned_cache_radixsort sorts/aligned_cache_radixsort1704628100.c simpleMain.c -o aligned_cache_radixsort1118670933
	sim-cache -cache:dl1 dl1:256:32:1:l -cache:dl2 dl2:131072:32:1:l -cache:il1 il1:256:32:1:l -cache:il2 dl2 aligned_cache_radixsort1118670933
	sim-cache -cache:dl1 dl1:256:32:1:l -cache:dl2 dl2:65536:32:1:l -cache:il1 il1:256:32:1:l -cache:il2 dl2 aligned_cache_radixsort1118670933
	sim-cache -cache:dl1 dl1:1:32:256:l -cache:dl2 dl2:1:32:131072:l -cache:il1 il1:1:32:256:l -cache:il2 dl2 aligned_cache_radixsort1118670933
	sim-cache -cache:dl1 dl1:1:32:256:l -cache:dl2 dl2:1:32:65536:l -cache:il1 il1:1:32:256:l -cache:il2 dl2 aligned_cache_radixsort1118670933
	sim-bpred -bpred bimod -bpred:bimod 512 aligned_cache_radixsort1118670933
	sim-bpred -bpred bimod -bpred:bimod 1024 aligned_cache_radixsort1118670933
	sim-bpred -bpred bimod -bpred:bimod 2048 aligned_cache_radixsort1118670933
	sim-bpred -bpred 2lev -bpred:2lev 1 512 10 1 aligned_cache_radixsort1118670933
	sim-bpred -bpred 2lev -bpred:2lev 1 1024 10 1 aligned_cache_radixsort1118670933
	sim-bpred -bpred 2lev -bpred:2lev 1 2048 10 1 aligned_cache_radixsort1118670933
	sim-bpred -bpred 2lev -bpred:2lev 1 4096 10 1 aligned_cache_radixsort1118670933
	sslittle-na-sstrix-gcc -Wall -O3 -funroll-loops -finline-functions  -DRANDOM_SIZE=32768 -DOFFSET=9 -DSORT=aligned_cache_radixsort sorts/aligned_cache_radixsort1704628100.c simpleMain.c -o aligned_cache_radixsort1118670933
	sim-cache -cache:dl1 dl1:256:32:1:l -cache:dl2 dl2:131072:32:1:l -cache:il1 il1:256:32:1:l -cache:il2 dl2 aligned_cache_radixsort1118670933
	sim-cache -cache:dl1 dl1:256:32:1:l -cache:dl2 dl2:65536:32:1:l -cache:il1 il1:256:32:1:l -cache:il2 dl2 aligned_cache_radixsort1118670933
	sim-cache -cache:dl1 dl1:1:32:256:l -cache:dl2 dl2:1:32:131072:l -cache:il1 il1:1:32:256:l -cache:il2 dl2 aligned_cache_radixsort1118670933
	sim-cache -cache:dl1 dl1:1:32:256:l -cache:dl2 dl2:1:32:65536:l -cache:il1 il1:1:32:256:l -cache:il2 dl2 aligned_cache_radixsort1118670933
	sim-bpred -bpred bimod -bpred:bimod 512 aligned_cache_radixsort1118670933
	sim-bpred -bpred bimod -bpred:bimod 1024 aligned_cache_radixsort1118670933
	sim-bpred -bpred bimod -bpred:bimod 2048 aligned_cache_radixsort1118670933
	sim-bpred -bpred 2lev -bpred:2lev 1 512 10 1 aligned_cache_radixsort1118670933
	sim-bpred -bpred 2lev -bpred:2lev 1 1024 10 1 aligned_cache_radixsort1118670933
	sim-bpred -bpred 2lev -bpred:2lev 1 2048 10 1 aligned_cache_radixsort1118670933
	sim-bpred -bpred 2lev -bpred:2lev 1 4096 10 1 aligned_cache_radixsort1118670933
	sslittle-na-sstrix-gcc -Wall -O3 -funroll-loops -finline-functions  -DRANDOM_SIZE=65536 -DOFFSET=9 -DSORT=aligned_cache_radixsort sorts/aligned_cache_radixsort1704628100.c simpleMain.c -o aligned_cache_radixsort1118670933
	sim-cache -cache:dl1 dl1:256:32:1:l -cache:dl2 dl2:131072:32:1:l -cache:il1 il1:256:32:1:l -cache:il2 dl2 aligned_cache_radixsort1118670933
	sim-cache -cache:dl1 dl1:256:32:1:l -cache:dl2 dl2:65536:32:1:l -cache:il1 il1:256:32:1:l -cache:il2 dl2 aligned_cache_radixsort1118670933
	sim-cache -cache:dl1 dl1:1:32:256:l -cache:dl2 dl2:1:32:131072:l -cache:il1 il1:1:32:256:l -cache:il2 dl2 aligned_cache_radixsort1118670933
	sim-cache -cache:dl1 dl1:1:32:256:l -cache:dl2 dl2:1:32:65536:l -cache:il1 il1:1:32:256:l -cache:il2 dl2 aligned_cache_radixsort1118670933
	sim-bpred -bpred bimod -bpred:bimod 512 aligned_cache_radixsort1118670933
	sim-bpred -bpred bimod -bpred:bimod 1024 aligned_cache_radixsort1118670933
	sim-bpred -bpred bimod -bpred:bimod 2048 aligned_cache_radixsort1118670933
	sim-bpred -bpred 2lev -bpred:2lev 1 512 10 1 aligned_cache_radixsort1118670933
	sim-bpred -bpred 2lev -bpred:2lev 1 1024 10 1 aligned_cache_radixsort1118670933
	sim-bpred -bpred 2lev -bpred:2lev 1 2048 10 1 aligned_cache_radixsort1118670933
	sim-bpred -bpred 2lev -bpred:2lev 1 4096 10 1 aligned_cache_radixsort1118670933
	sslittle-na-sstrix-gcc -Wall -O3 -funroll-loops -finline-functions  -DRANDOM_SIZE=131072 -DOFFSET=9 -DSORT=aligned_cache_radixsort sorts/aligned_cache_radixsort1704628100.c simpleMain.c -o aligned_cache_radixsort1118670933
	sim-cache -cache:dl1 dl1:256:32:1:l -cache:dl2 dl2:131072:32:1:l -cache:il1 il1:256:32:1:l -cache:il2 dl2 aligned_cache_radixsort1118670933
	sim-cache -cache:dl1 dl1:256:32:1:l -cache:dl2 dl2:65536:32:1:l -cache:il1 il1:256:32:1:l -cache:il2 dl2 aligned_cache_radixsort1118670933
	sim-cache -cache:dl1 dl1:1:32:256:l -cache:dl2 dl2:1:32:131072:l -cache:il1 il1:1:32:256:l -cache:il2 dl2 aligned_cache_radixsort1118670933
	sim-cache -cache:dl1 dl1:1:32:256:l -cache:dl2 dl2:1:32:65536:l -cache:il1 il1:1:32:256:l -cache:il2 dl2 aligned_cache_radixsort1118670933
	sim-bpred -bpred bimod -bpred:bimod 512 aligned_cache_radixsort1118670933
	sim-bpred -bpred bimod -bpred:bimod 1024 aligned_cache_radixsort1118670933
	sim-bpred -bpred bimod -bpred:bimod 2048 aligned_cache_radixsort1118670933
	sim-bpred -bpred 2lev -bpred:2lev 1 512 10 1 aligned_cache_radixsort1118670933
	sim-bpred -bpred 2lev -bpred:2lev 1 1024 10 1 aligned_cache_radixsort1118670933
	sim-bpred -bpred 2lev -bpred:2lev 1 2048 10 1 aligned_cache_radixsort1118670933
	sim-bpred -bpred 2lev -bpred:2lev 1 4096 10 1 aligned_cache_radixsort1118670933
	sslittle-na-sstrix-gcc -Wall -O3 -funroll-loops -finline-functions  -DRANDOM_SIZE=262144 -DOFFSET=9 -DSORT=aligned_cache_radixsort sorts/aligned_cache_radixsort1704628100.c simpleMain.c -o aligned_cache_radixsort1118670933
	sim-cache -cache:dl1 dl1:256:32:1:l -cache:dl2 dl2:131072:32:1:l -cache:il1 il1:256:32:1:l -cache:il2 dl2 aligned_cache_radixsort1118670933
	sim-cache -cache:dl1 dl1:256:32:1:l -cache:dl2 dl2:65536:32:1:l -cache:il1 il1:256:32:1:l -cache:il2 dl2 aligned_cache_radixsort1118670933
	sim-cache -cache:dl1 dl1:1:32:256:l -cache:dl2 dl2:1:32:131072:l -cache:il1 il1:1:32:256:l -cache:il2 dl2 aligned_cache_radixsort1118670933
	sim-cache -cache:dl1 dl1:1:32:256:l -cache:dl2 dl2:1:32:65536:l -cache:il1 il1:1:32:256:l -cache:il2 dl2 aligned_cache_radixsort1118670933
	sim-bpred -bpred bimod -bpred:bimod 512 aligned_cache_radixsort1118670933
	sim-bpred -bpred bimod -bpred:bimod 1024 aligned_cache_radixsort1118670933
	sim-bpred -bpred bimod -bpred:bimod 2048 aligned_cache_radixsort1118670933
	sim-bpred -bpred 2lev -bpred:2lev 1 512 10 1 aligned_cache_radixsort1118670933
	sim-bpred -bpred 2lev -bpred:2lev 1 1024 10 1 aligned_cache_radixsort1118670933
	sim-bpred -bpred 2lev -bpred:2lev 1 2048 10 1 aligned_cache_radixsort1118670933
	sim-bpred -bpred 2lev -bpred:2lev 1 4096 10 1 aligned_cache_radixsort1118670933
	sslittle-na-sstrix-gcc -Wall -O3 -funroll-loops -finline-functions  -DRANDOM_SIZE=524288 -DOFFSET=9 -DSORT=aligned_cache_radixsort sorts/aligned_cache_radixsort1704628100.c simpleMain.c -o aligned_cache_radixsort1118670933
	sim-cache -cache:dl1 dl1:256:32:1:l -cache:dl2 dl2:131072:32:1:l -cache:il1 il1:256:32:1:l -cache:il2 dl2 aligned_cache_radixsort1118670933
	sim-cache -cache:dl1 dl1:256:32:1:l -cache:dl2 dl2:65536:32:1:l -cache:il1 il1:256:32:1:l -cache:il2 dl2 aligned_cache_radixsort1118670933
	sim-cache -cache:dl1 dl1:1:32:256:l -cache:dl2 dl2:1:32:131072:l -cache:il1 il1:1:32:256:l -cache:il2 dl2 aligned_cache_radixsort1118670933
	sim-cache -cache:dl1 dl1:1:32:256:l -cache:dl2 dl2:1:32:65536:l -cache:il1 il1:1:32:256:l -cache:il2 dl2 aligned_cache_radixsort1118670933
	sim-bpred -bpred bimod -bpred:bimod 512 aligned_cache_radixsort1118670933
	sim-bpred -bpred bimod -bpred:bimod 1024 aligned_cache_radixsort1118670933
	sim-bpred -bpred bimod -bpred:bimod 2048 aligned_cache_radixsort1118670933
	sim-bpred -bpred 2lev -bpred:2lev 1 512 10 1 aligned_cache_radixsort1118670933
	sim-bpred -bpred 2lev -bpred:2lev 1 1024 10 1 aligned_cache_radixsort1118670933
	sim-bpred -bpred 2lev -bpred:2lev 1 2048 10 1 aligned_cache_radixsort1118670933
	sim-bpred -bpred 2lev -bpred:2lev 1 4096 10 1 aligned_cache_radixsort1118670933
	sslittle-na-sstrix-gcc -Wall -O3 -funroll-loops -finline-functions  -DRANDOM_SIZE=1048576 -DOFFSET=9 -DSORT=aligned_cache_radixsort sorts/aligned_cache_radixsort1704628100.c simpleMain.c -o aligned_cache_radixsort1118670933
	sim-cache -cache:dl1 dl1:256:32:1:l -cache:dl2 dl2:131072:32:1:l -cache:il1 il1:256:32:1:l -cache:il2 dl2 aligned_cache_radixsort1118670933
	sim-cache -cache:dl1 dl1:256:32:1:l -cache:dl2 dl2:65536:32:1:l -cache:il1 il1:256:32:1:l -cache:il2 dl2 aligned_cache_radixsort1118670933
	sim-cache -cache:dl1 dl1:1:32:256:l -cache:dl2 dl2:1:32:131072:l -cache:il1 il1:1:32:256:l -cache:il2 dl2 aligned_cache_radixsort1118670933
	sim-cache -cache:dl1 dl1:1:32:256:l -cache:dl2 dl2:1:32:65536:l -cache:il1 il1:1:32:256:l -cache:il2 dl2 aligned_cache_radixsort1118670933
	sim-bpred -bpred bimod -bpred:bimod 512 aligned_cache_radixsort1118670933
	sim-bpred -bpred bimod -bpred:bimod 1024 aligned_cache_radixsort1118670933
	sim-bpred -bpred bimod -bpred:bimod 2048 aligned_cache_radixsort1118670933
	sim-bpred -bpred 2lev -bpred:2lev 1 512 10 1 aligned_cache_radixsort1118670933
	sim-bpred -bpred 2lev -bpred:2lev 1 1024 10 1 aligned_cache_radixsort1118670933
	sim-bpred -bpred 2lev -bpred:2lev 1 2048 10 1 aligned_cache_radixsort1118670933
	sim-bpred -bpred 2lev -bpred:2lev 1 4096 10 1 aligned_cache_radixsort1118670933
	sslittle-na-sstrix-gcc -Wall -O3 -funroll-loops -finline-functions  -DRANDOM_SIZE=2097152 -DOFFSET=9 -DSORT=aligned_cache_radixsort sorts/aligned_cache_radixsort1704628100.c simpleMain.c -o aligned_cache_radixsort1118670933
	sim-cache -cache:dl1 dl1:256:32:1:l -cache:dl2 dl2:131072:32:1:l -cache:il1 il1:256:32:1:l -cache:il2 dl2 aligned_cache_radixsort1118670933
	sim-cache -cache:dl1 dl1:256:32:1:l -cache:dl2 dl2:65536:32:1:l -cache:il1 il1:256:32:1:l -cache:il2 dl2 aligned_cache_radixsort1118670933
	sim-cache -cache:dl1 dl1:1:32:256:l -cache:dl2 dl2:1:32:131072:l -cache:il1 il1:1:32:256:l -cache:il2 dl2 aligned_cache_radixsort1118670933
	sim-cache -cache:dl1 dl1:1:32:256:l -cache:dl2 dl2:1:32:65536:l -cache:il1 il1:1:32:256:l -cache:il2 dl2 aligned_cache_radixsort1118670933
	sim-bpred -bpred bimod -bpred:bimod 512 aligned_cache_radixsort1118670933
	sim-bpred -bpred bimod -bpred:bimod 1024 aligned_cache_radixsort1118670933
	sim-bpred -bpred bimod -bpred:bimod 2048 aligned_cache_radixsort1118670933
	sim-bpred -bpred 2lev -bpred:2lev 1 512 10 1 aligned_cache_radixsort1118670933
	sim-bpred -bpred 2lev -bpred:2lev 1 1024 10 1 aligned_cache_radixsort1118670933
	sim-bpred -bpred 2lev -bpred:2lev 1 2048 10 1 aligned_cache_radixsort1118670933
	sim-bpred -bpred 2lev -bpred:2lev 1 4096 10 1 aligned_cache_radixsort1118670933
	sslittle-na-sstrix-gcc -Wall -O3 -funroll-loops -finline-functions  -DRANDOM_SIZE=4194304 -DOFFSET=9 -DSORT=aligned_cache_radixsort sorts/aligned_cache_radixsort1704628100.c simpleMain.c -o aligned_cache_radixsort1118670933
	sim-cache -cache:dl1 dl1:256:32:1:l -cache:dl2 dl2:131072:32:1:l -cache:il1 il1:256:32:1:l -cache:il2 dl2 aligned_cache_radixsort1118670933
	sim-cache -cache:dl1 dl1:256:32:1:l -cache:dl2 dl2:65536:32:1:l -cache:il1 il1:256:32:1:l -cache:il2 dl2 aligned_cache_radixsort1118670933
	sim-cache -cache:dl1 dl1:1:32:256:l -cache:dl2 dl2:1:32:131072:l -cache:il1 il1:1:32:256:l -cache:il2 dl2 aligned_cache_radixsort1118670933
	sim-cache -cache:dl1 dl1:1:32:256:l -cache:dl2 dl2:1:32:65536:l -cache:il1 il1:1:32:256:l -cache:il2 dl2 aligned_cache_radixsort1118670933
	sim-bpred -bpred bimod -bpred:bimod 512 aligned_cache_radixsort1118670933
	sim-bpred -bpred bimod -bpred:bimod 1024 aligned_cache_radixsort1118670933
	sim-bpred -bpred bimod -bpred:bimod 2048 aligned_cache_radixsort1118670933
	sim-bpred -bpred 2lev -bpred:2lev 1 512 10 1 aligned_cache_radixsort1118670933
	sim-bpred -bpred 2lev -bpred:2lev 1 1024 10 1 aligned_cache_radixsort1118670933
	sim-bpred -bpred 2lev -bpred:2lev 1 2048 10 1 aligned_cache_radixsort1118670933
	sim-bpred -bpred 2lev -bpred:2lev 1 4096 10 1 aligned_cache_radixsort1118670933
