Thu Jun 23 04:25:05 2005
Run as: "./do_simple -c random.org1 -o 1 aligned_memory_tuned_radixsort"
-------------------------------------------------------------------------------------------------
sim-cache                                     4096 |         4096 |         4096 |         4096 |         8192 |         8192 |         8192 |         8192 |        16384 |        16384 |        16384 |        16384 |        32768 |        32768 |        32768 |        32768 |        65536 |        65536 |        65536 |        65536 |       131072 |       131072 |       131072 |       131072 |       262144 |       262144 |       262144 |       262144 |       524288 |       524288 |       524288 |       524288 |      1048576 |      1048576 |      1048576 |      1048576 |      2097152 |      2097152 |      2097152 |      2097152 |      4194304 |      4194304 |      4194304 |      4194304 |
-cache:dl1 dl1:256:32:1:l -cache:dl2 dl2:131072:32:1:l -cache:il1 il1:256:32:1:l -cache:il2 dl2
-cache:dl1 dl1:256:32:1:l -cache:dl2 dl2:65536:32:1:l -cache:il1 il1:256:32:1:l -cache:il2 dl2
-cache:dl1 dl1:1:32:256:l -cache:dl2 dl2:1:32:131072:l -cache:il1 il1:1:32:256:l -cache:il2 dl2
-cache:dl1 dl1:1:32:256:l -cache:dl2 dl2:1:32:65536:l -cache:il1 il1:1:32:256:l -cache:il2 dl2
-------------------------------------------------------------------------------------------------
sim_num_insn                                378851 |       378851 |       378851 |       378851 |       744423 |       744423 |       744423 |       744423 |      1475561 |      1475561 |      1475561 |      1475561 |      2937834 |      2937834 |      2937834 |      2937834 |      5862378 |      5862378 |      5862378 |      5862378 |     11711467 |     11711467 |     11711467 |     11711467 |     23409643 |     23409643 |     23409643 |     23409643 |     46818471 |     46818471 |     46818471 |     46818471 |     93611175 |     93611175 |     93611175 |     93611175 |    187205807 |    187205807 |    187205807 |    187205807 |    374395063 |    374395063 |    374395063 |    374395063 |
sim_num_refs                                138964 |       138964 |       138964 |       138964 |       270036 |       270036 |       270036 |       270036 |       532180 |       532180 |       532180 |       532180 |      1056468 |      1056468 |      1056468 |      1056468 |      2105044 |      2105044 |      2105044 |      2105044 |      4202196 |      4202196 |      4202196 |      4202196 |      8396500 |      8396500 |      8396500 |      8396500 |     16794370 |     16794370 |     16794370 |     16794370 |     33571586 |     33571586 |     33571586 |     33571586 |     67132162 |     67132162 |     67132162 |     67132162 |    134253314 |    134253314 |    134253314 |    134253314 |
sim_elapsed_time                                 1 |            1 |           10 |            5 |            1 |            1 |           14 |            7 |            1 |            1 |           25 |           12 |            1 |            1 |           44 |           21 |            1 |            2 |           81 |           39 |            4 |            3 |          148 |           65 |            7 |            7 |          251 |           89 |           14 |           14 |          338 |           95 |           29 |           28 |          352 |          111 |           57 |           56 |          384 |          149 |          114 |          113 |          449 |          208 |
sim_inst_rate                          378851.0000 |  378851.0000 |   37885.1000 |   75770.2000 |  744423.0000 |  744423.0000 |   53173.0714 |  106346.1429 | 1475561.0000 | 1475561.0000 |   59022.4400 |  122963.4167 | 2937834.0000 | 2937834.0000 |   66768.9545 |  139896.8571 | 5862378.0000 | 2931189.0000 |   72375.0370 |  150317.3846 | 2927866.7500 | 3903822.3333 |   79131.5338 |  180176.4154 | 3344234.7143 | 3344234.7143 |   93265.5100 |  263029.6966 | 3344176.5000 | 3344176.5000 |  138516.1864 |  492826.0105 | 3227971.5517 | 3343256.2500 |  265940.8381 |  843343.9189 | 3284312.4035 | 3342960.8393 |  487515.1224 | 1256414.8121 | 3284167.2193 | 3313230.6460 |  833842.0111 | 1799976.2644 |
il1.accesses                                378851 |       378851 |       378851 |       378851 |       744423 |       744423 |       744423 |       744423 |      1475561 |      1475561 |      1475561 |      1475561 |      2937834 |      2937834 |      2937834 |      2937834 |      5862378 |      5862378 |      5862378 |      5862378 |     11711467 |     11711467 |     11711467 |     11711467 |     23409643 |     23409643 |     23409643 |     23409643 |     46818471 |     46818471 |     46818471 |     46818471 |     93611175 |     93611175 |     93611175 |     93611175 |    187205807 |    187205807 |    187205807 |    187205807 |    374395063 |    374395063 |    374395063 |    374395063 |
il1.hits                                    378320 |       378320 |       378417 |       378417 |       743891 |       743891 |       743989 |       743989 |      1475020 |      1475020 |      1475126 |      1475126 |      2937298 |      2937298 |      2937397 |      2937397 |      5861842 |      5861842 |      5861941 |      5861941 |     11710931 |     11710931 |     11711030 |     11711030 |     23409107 |     23409107 |     23409206 |     23409206 |     46817892 |     46817892 |     46817999 |     46817999 |     93610596 |     93610596 |     93610703 |     93610703 |    187205228 |    187205228 |    187205335 |    187205335 |    374394484 |    374394484 |    374394591 |    374394591 |
il1.misses                                     531 |          531 |          434 |          434 |          532 |          532 |          434 |          434 |          541 |          541 |          435 |          435 |          536 |          536 |          437 |          437 |          536 |          536 |          437 |          437 |          536 |          536 |          437 |          437 |          536 |          536 |          437 |          437 |          579 |          579 |          472 |          472 |          579 |          579 |          472 |          472 |          579 |          579 |          472 |          472 |          579 |          579 |          472 |          472 |
il1.replacements                               312 |          312 |          178 |          178 |          314 |          314 |          178 |          178 |          319 |          319 |          179 |          179 |          319 |          319 |          181 |          181 |          319 |          319 |          181 |          181 |          319 |          319 |          181 |          181 |          319 |          319 |          181 |          181 |          351 |          351 |          216 |          216 |          351 |          351 |          216 |          216 |          351 |          351 |          216 |          216 |          351 |          351 |          216 |          216 |
il1.writebacks                                   0 |            0 |            0 |            0 |            0 |            0 |            0 |            0 |            0 |            0 |            0 |            0 |            0 |            0 |            0 |            0 |            0 |            0 |            0 |            0 |            0 |            0 |            0 |            0 |            0 |            0 |            0 |            0 |            0 |            0 |            0 |            0 |            0 |            0 |            0 |            0 |            0 |            0 |            0 |            0 |            0 |            0 |            0 |            0 |
il1.invalidations                                0 |            0 |            0 |            0 |            0 |            0 |            0 |            0 |            0 |            0 |            0 |            0 |            0 |            0 |            0 |            0 |            0 |            0 |            0 |            0 |            0 |            0 |            0 |            0 |            0 |            0 |            0 |            0 |            0 |            0 |            0 |            0 |            0 |            0 |            0 |            0 |            0 |            0 |            0 |            0 |            0 |            0 |            0 |            0 |
il1.miss_rate                               0.0014 |       0.0014 |       0.0011 |       0.0011 |       0.0007 |       0.0007 |       0.0006 |       0.0006 |       0.0004 |       0.0004 |       0.0003 |       0.0003 |       0.0002 |       0.0002 |       0.0001 |       0.0001 |       0.0001 |       0.0001 |       0.0001 |       0.0001 |       0.0000 |       0.0000 |       0.0000 |       0.0000 |       0.0000 |       0.0000 |       0.0000 |       0.0000 |       0.0000 |       0.0000 |       0.0000 |       0.0000 |       0.0000 |       0.0000 |       0.0000 |       0.0000 |       0.0000 |       0.0000 |       0.0000 |       0.0000 |       0.0000 |       0.0000 |       0.0000 |       0.0000 |
il1.repl_rate                               0.0008 |       0.0008 |       0.0005 |       0.0005 |       0.0004 |       0.0004 |       0.0002 |       0.0002 |       0.0002 |       0.0002 |       0.0001 |       0.0001 |       0.0001 |       0.0001 |       0.0001 |       0.0001 |       0.0001 |       0.0001 |       0.0000 |       0.0000 |       0.0000 |       0.0000 |       0.0000 |       0.0000 |       0.0000 |       0.0000 |       0.0000 |       0.0000 |       0.0000 |       0.0000 |       0.0000 |       0.0000 |       0.0000 |       0.0000 |       0.0000 |       0.0000 |       0.0000 |       0.0000 |       0.0000 |       0.0000 |       0.0000 |       0.0000 |       0.0000 |       0.0000 |
il1.wb_rate                                 0.0000 |       0.0000 |       0.0000 |       0.0000 |       0.0000 |       0.0000 |       0.0000 |       0.0000 |       0.0000 |       0.0000 |       0.0000 |       0.0000 |       0.0000 |       0.0000 |       0.0000 |       0.0000 |       0.0000 |       0.0000 |       0.0000 |       0.0000 |       0.0000 |       0.0000 |       0.0000 |       0.0000 |       0.0000 |       0.0000 |       0.0000 |       0.0000 |       0.0000 |       0.0000 |       0.0000 |       0.0000 |       0.0000 |       0.0000 |       0.0000 |       0.0000 |       0.0000 |       0.0000 |       0.0000 |       0.0000 |       0.0000 |       0.0000 |       0.0000 |       0.0000 |
il1.inv_rate                                0.0000 |       0.0000 |       0.0000 |       0.0000 |       0.0000 |       0.0000 |       0.0000 |       0.0000 |       0.0000 |       0.0000 |       0.0000 |       0.0000 |       0.0000 |       0.0000 |       0.0000 |       0.0000 |       0.0000 |       0.0000 |       0.0000 |       0.0000 |       0.0000 |       0.0000 |       0.0000 |       0.0000 |       0.0000 |       0.0000 |       0.0000 |       0.0000 |       0.0000 |       0.0000 |       0.0000 |       0.0000 |       0.0000 |       0.0000 |       0.0000 |       0.0000 |       0.0000 |       0.0000 |       0.0000 |       0.0000 |       0.0000 |       0.0000 |       0.0000 |       0.0000 |
dl1.accesses                                155430 |       155430 |       155430 |       155430 |       302886 |       302886 |       302886 |       302886 |       597798 |       597798 |       597798 |       597798 |      1187622 |      1187622 |      1187622 |      1187622 |      2367270 |      2367270 |      2367270 |      2367270 |      4726566 |      4726566 |      4726566 |      4726566 |      9445158 |      9445158 |      9445158 |      9445158 |     18891604 |     18891604 |     18891604 |     18891604 |     37765972 |     37765972 |     37765972 |     37765972 |     75520852 |     75520852 |     75520852 |     75520852 |    151030612 |    151030612 |    151030612 |    151030612 |
dl1.hits                                    138895 |       138895 |       143990 |       143990 |       269858 |       269858 |       280733 |       280733 |       531016 |       531016 |       554350 |       554350 |      1052276 |      1052276 |      1101155 |      1101155 |      2099747 |      2099747 |      2195198 |      2195198 |      4173586 |      4173586 |      4383120 |      4383120 |      8291632 |      8291632 |      8759478 |      8759478 |     16488946 |     16488946 |     17519407 |     17519407 |     33178419 |     33178419 |     35024093 |     35024093 |     66675753 |     66675753 |     70036444 |     70036444 |    133646009 |    133646009 |    140064682 |    140064682 |
dl1.misses                                   16535 |        16535 |        11440 |        11440 |        33028 |        33028 |        22153 |        22153 |        66782 |        66782 |        43448 |        43448 |       135346 |       135346 |        86467 |        86467 |       267523 |       267523 |       172072 |       172072 |       552980 |       552980 |       343446 |       343446 |      1153526 |      1153526 |       685680 |       685680 |      2402658 |      2402658 |      1372197 |      1372197 |      4587553 |      4587553 |      2741879 |      2741879 |      8845099 |      8845099 |      5484408 |      5484408 |     17384603 |     17384603 |     10965930 |     10965930 |
dl1.replacements                             16279 |        16279 |        11184 |        11184 |        32772 |        32772 |        21897 |        21897 |        66526 |        66526 |        43192 |        43192 |       135090 |       135090 |        86211 |        86211 |       267267 |       267267 |       171816 |       171816 |       552724 |       552724 |       343190 |       343190 |      1153270 |      1153270 |       685424 |       685424 |      2402402 |      2402402 |      1371941 |      1371941 |      4587297 |      4587297 |      2741623 |      2741623 |      8844843 |      8844843 |      5484152 |      5484152 |     17384347 |     17384347 |     10965674 |     10965674 |
dl1.writebacks                               13660 |        13660 |         8663 |         8663 |        27395 |        27395 |        16808 |        16808 |        55653 |        55653 |        32969 |        32969 |       113222 |       113222 |        65747 |        65747 |       223501 |       223501 |       130870 |       130870 |       465123 |       465123 |       261284 |       261284 |       977814 |       977814 |       521598 |       521598 |      2050854 |      2050854 |      1043887 |      1043887 |      3884715 |      3884715 |      2085889 |      2085889 |      7439887 |      7439887 |      4173058 |      4173058 |     14576679 |     14576679 |      8343863 |      8343863 |
dl1.invalidations                                0 |            0 |            0 |            0 |            0 |            0 |            0 |            0 |            0 |            0 |            0 |            0 |            0 |            0 |            0 |            0 |            0 |            0 |            0 |            0 |            0 |            0 |            0 |            0 |            0 |            0 |            0 |            0 |            0 |            0 |            0 |            0 |            0 |            0 |            0 |            0 |            0 |            0 |            0 |            0 |            0 |            0 |            0 |            0 |
dl1.miss_rate                               0.1064 |       0.1064 |       0.0736 |       0.0736 |       0.1090 |       0.1090 |       0.0731 |       0.0731 |       0.1117 |       0.1117 |       0.0727 |       0.0727 |       0.1140 |       0.1140 |       0.0728 |       0.0728 |       0.1130 |       0.1130 |       0.0727 |       0.0727 |       0.1170 |       0.1170 |       0.0727 |       0.0727 |       0.1221 |       0.1221 |       0.0726 |       0.0726 |       0.1272 |       0.1272 |       0.0726 |       0.0726 |       0.1215 |       0.1215 |       0.0726 |       0.0726 |       0.1171 |       0.1171 |       0.0726 |       0.0726 |       0.1151 |       0.1151 |       0.0726 |       0.0726 |
dl1.repl_rate                               0.1047 |       0.1047 |       0.0720 |       0.0720 |       0.1082 |       0.1082 |       0.0723 |       0.0723 |       0.1113 |       0.1113 |       0.0723 |       0.0723 |       0.1137 |       0.1137 |       0.0726 |       0.0726 |       0.1129 |       0.1129 |       0.0726 |       0.0726 |       0.1169 |       0.1169 |       0.0726 |       0.0726 |       0.1221 |       0.1221 |       0.0726 |       0.0726 |       0.1272 |       0.1272 |       0.0726 |       0.0726 |       0.1215 |       0.1215 |       0.0726 |       0.0726 |       0.1171 |       0.1171 |       0.0726 |       0.0726 |       0.1151 |       0.1151 |       0.0726 |       0.0726 |
dl1.wb_rate                                 0.0879 |       0.0879 |       0.0557 |       0.0557 |       0.0904 |       0.0904 |       0.0555 |       0.0555 |       0.0931 |       0.0931 |       0.0552 |       0.0552 |       0.0953 |       0.0953 |       0.0554 |       0.0554 |       0.0944 |       0.0944 |       0.0553 |       0.0553 |       0.0984 |       0.0984 |       0.0553 |       0.0553 |       0.1035 |       0.1035 |       0.0552 |       0.0552 |       0.1086 |       0.1086 |       0.0553 |       0.0553 |       0.1029 |       0.1029 |       0.0552 |       0.0552 |       0.0985 |       0.0985 |       0.0553 |       0.0553 |       0.0965 |       0.0965 |       0.0552 |       0.0552 |
dl1.inv_rate                                0.0000 |       0.0000 |       0.0000 |       0.0000 |       0.0000 |       0.0000 |       0.0000 |       0.0000 |       0.0000 |       0.0000 |       0.0000 |       0.0000 |       0.0000 |       0.0000 |       0.0000 |       0.0000 |       0.0000 |       0.0000 |       0.0000 |       0.0000 |       0.0000 |       0.0000 |       0.0000 |       0.0000 |       0.0000 |       0.0000 |       0.0000 |       0.0000 |       0.0000 |       0.0000 |       0.0000 |       0.0000 |       0.0000 |       0.0000 |       0.0000 |       0.0000 |       0.0000 |       0.0000 |       0.0000 |       0.0000 |       0.0000 |       0.0000 |       0.0000 |       0.0000 |
dl2.accesses                                 30726 |        30726 |        20537 |        20537 |        60955 |        60955 |        39395 |        39395 |       122976 |       122976 |        76852 |        76852 |       249104 |       249104 |       152651 |       152651 |       491560 |       491560 |       303379 |       303379 |      1018639 |      1018639 |       605167 |       605167 |      2131876 |      2131876 |      1207715 |      1207715 |      4454091 |      4454091 |      2416556 |      2416556 |      8472847 |      8472847 |      4828240 |      4828240 |     16285565 |     16285565 |      9657938 |      9657938 |     31961861 |     31961861 |     19310265 |     19310265 |
dl2.hits                                     28808 |        28808 |        18636 |        18636 |        58012 |        58012 |        36470 |        36470 |       117984 |       117984 |        71877 |        71877 |       240011 |       240011 |       143580 |       143580 |       474275 |       474275 |       286116 |       286116 |       984970 |       984970 |       571520 |       571520 |      2065439 |      2064455 |      1141300 |      1138911 |      4160105 |      3974265 |      2280885 |      1818277 |      7564737 |      7189604 |      3634695 |      3541260 |     13712308 |     13613715 |      7085950 |      7045322 |     26673751 |     26527609 |     14087203 |     14067972 |
dl2.misses                                    1918 |         1918 |         1901 |         1901 |         2943 |         2943 |         2925 |         2925 |         4992 |         4992 |         4975 |         4975 |         9093 |         9093 |         9071 |         9071 |        17285 |        17285 |        17263 |        17263 |        33669 |        33669 |        33647 |        33647 |        66437 |        67421 |        66415 |        68804 |       293986 |       479826 |       135671 |       598279 |       908110 |      1283243 |      1193545 |      1286980 |      2573257 |      2671850 |      2571988 |      2612616 |      5288110 |      5434252 |      5223062 |      5242293 |
dl2.replacements                               130 |          130 |            0 |            0 |          129 |          129 |            0 |            0 |          128 |          128 |            0 |            0 |          133 |          133 |            0 |            0 |          133 |          133 |            0 |            0 |          133 |          133 |            0 |            0 |          133 |         1942 |            0 |         3268 |       194173 |       414290 |         4599 |       532743 |       777038 |      1217707 |      1062473 |      1221444 |      2442185 |      2606314 |      2440916 |      2547080 |      5157038 |      5368716 |      5091990 |      5176757 |
dl2.writebacks                                  66 |           66 |            0 |            0 |           64 |           64 |            0 |            0 |           64 |           64 |            0 |            0 |           64 |           64 |            0 |            0 |           64 |           64 |            0 |            0 |           64 |           64 |            0 |            0 |           64 |         1172 |            0 |         3028 |       158129 |       301270 |         4288 |       297023 |       596150 |       648682 |       591922 |       624744 |      1289107 |      1354565 |      1248063 |      1280918 |      2661237 |      2805530 |      2560399 |      2593329 |
dl2.invalidations                                0 |            0 |            0 |            0 |            0 |            0 |            0 |            0 |            0 |            0 |            0 |            0 |            0 |            0 |            0 |            0 |            0 |            0 |            0 |            0 |            0 |            0 |            0 |            0 |            0 |            0 |            0 |            0 |            0 |            0 |            0 |            0 |            0 |            0 |            0 |            0 |            0 |            0 |            0 |            0 |            0 |            0 |            0 |            0 |
dl2.miss_rate                               0.0624 |       0.0624 |       0.0926 |       0.0926 |       0.0483 |       0.0483 |       0.0742 |       0.0742 |       0.0406 |       0.0406 |       0.0647 |       0.0647 |       0.0365 |       0.0365 |       0.0594 |       0.0594 |       0.0352 |       0.0352 |       0.0569 |       0.0569 |       0.0331 |       0.0331 |       0.0556 |       0.0556 |       0.0312 |       0.0316 |       0.0550 |       0.0570 |       0.0660 |       0.1077 |       0.0561 |       0.2476 |       0.1072 |       0.1515 |       0.2472 |       0.2666 |       0.1580 |       0.1641 |       0.2663 |       0.2705 |       0.1655 |       0.1700 |       0.2705 |       0.2715 |
dl2.repl_rate                               0.0042 |       0.0042 |       0.0000 |       0.0000 |       0.0021 |       0.0021 |       0.0000 |       0.0000 |       0.0010 |       0.0010 |       0.0000 |       0.0000 |       0.0005 |       0.0005 |       0.0000 |       0.0000 |       0.0003 |       0.0003 |       0.0000 |       0.0000 |       0.0001 |       0.0001 |       0.0000 |       0.0000 |       0.0001 |       0.0009 |       0.0000 |       0.0027 |       0.0436 |       0.0930 |       0.0019 |       0.2205 |       0.0917 |       0.1437 |       0.2201 |       0.2530 |       0.1500 |       0.1600 |       0.2527 |       0.2637 |       0.1613 |       0.1680 |       0.2637 |       0.2681 |
dl2.wb_rate                                 0.0021 |       0.0021 |       0.0000 |       0.0000 |       0.0010 |       0.0010 |       0.0000 |       0.0000 |       0.0005 |       0.0005 |       0.0000 |       0.0000 |       0.0003 |       0.0003 |       0.0000 |       0.0000 |       0.0001 |       0.0001 |       0.0000 |       0.0000 |       0.0001 |       0.0001 |       0.0000 |       0.0000 |       0.0000 |       0.0005 |       0.0000 |       0.0025 |       0.0355 |       0.0676 |       0.0018 |       0.1229 |       0.0704 |       0.0766 |       0.1226 |       0.1294 |       0.0792 |       0.0832 |       0.1292 |       0.1326 |       0.0833 |       0.0878 |       0.1326 |       0.1343 |
dl2.inv_rate                                0.0000 |       0.0000 |       0.0000 |       0.0000 |       0.0000 |       0.0000 |       0.0000 |       0.0000 |       0.0000 |       0.0000 |       0.0000 |       0.0000 |       0.0000 |       0.0000 |       0.0000 |       0.0000 |       0.0000 |       0.0000 |       0.0000 |       0.0000 |       0.0000 |       0.0000 |       0.0000 |       0.0000 |       0.0000 |       0.0000 |       0.0000 |       0.0000 |       0.0000 |       0.0000 |       0.0000 |       0.0000 |       0.0000 |       0.0000 |       0.0000 |       0.0000 |       0.0000 |       0.0000 |       0.0000 |       0.0000 |       0.0000 |       0.0000 |       0.0000 |       0.0000 |
itlb.accesses                               378851 |       378851 |       378851 |       378851 |       744423 |       744423 |       744423 |       744423 |      1475561 |      1475561 |      1475561 |      1475561 |      2937834 |      2937834 |      2937834 |      2937834 |      5862378 |      5862378 |      5862378 |      5862378 |     11711467 |     11711467 |     11711467 |     11711467 |     23409643 |     23409643 |     23409643 |     23409643 |     46818471 |     46818471 |     46818471 |     46818471 |     93611175 |     93611175 |     93611175 |     93611175 |    187205807 |    187205807 |    187205807 |    187205807 |    374395063 |    374395063 |    374395063 |    374395063 |
itlb.hits                                   378842 |       378842 |       378842 |       378842 |       744414 |       744414 |       744414 |       744414 |      1475552 |      1475552 |      1475552 |      1475552 |      2937825 |      2937825 |      2937825 |      2937825 |      5862369 |      5862369 |      5862369 |      5862369 |     11711458 |     11711458 |     11711458 |     11711458 |     23409634 |     23409634 |     23409634 |     23409634 |     46818462 |     46818462 |     46818462 |     46818462 |     93611166 |     93611166 |     93611166 |     93611166 |    187205798 |    187205798 |    187205798 |    187205798 |    374395054 |    374395054 |    374395054 |    374395054 |
itlb.misses                                      9 |            9 |            9 |            9 |            9 |            9 |            9 |            9 |            9 |            9 |            9 |            9 |            9 |            9 |            9 |            9 |            9 |            9 |            9 |            9 |            9 |            9 |            9 |            9 |            9 |            9 |            9 |            9 |            9 |            9 |            9 |            9 |            9 |            9 |            9 |            9 |            9 |            9 |            9 |            9 |            9 |            9 |            9 |            9 |
itlb.replacements                                0 |            0 |            0 |            0 |            0 |            0 |            0 |            0 |            0 |            0 |            0 |            0 |            0 |            0 |            0 |            0 |            0 |            0 |            0 |            0 |            0 |            0 |            0 |            0 |            0 |            0 |            0 |            0 |            0 |            0 |            0 |            0 |            0 |            0 |            0 |            0 |            0 |            0 |            0 |            0 |            0 |            0 |            0 |            0 |
itlb.writebacks                                  0 |            0 |            0 |            0 |            0 |            0 |            0 |            0 |            0 |            0 |            0 |            0 |            0 |            0 |            0 |            0 |            0 |            0 |            0 |            0 |            0 |            0 |            0 |            0 |            0 |            0 |            0 |            0 |            0 |            0 |            0 |            0 |            0 |            0 |            0 |            0 |            0 |            0 |            0 |            0 |            0 |            0 |            0 |            0 |
itlb.invalidations                               0 |            0 |            0 |            0 |            0 |            0 |            0 |            0 |            0 |            0 |            0 |            0 |            0 |            0 |            0 |            0 |            0 |            0 |            0 |            0 |            0 |            0 |            0 |            0 |            0 |            0 |            0 |            0 |            0 |            0 |            0 |            0 |            0 |            0 |            0 |            0 |            0 |            0 |            0 |            0 |            0 |            0 |            0 |            0 |
itlb.miss_rate                              0.0000 |       0.0000 |       0.0000 |       0.0000 |       0.0000 |       0.0000 |       0.0000 |       0.0000 |       0.0000 |       0.0000 |       0.0000 |       0.0000 |       0.0000 |       0.0000 |       0.0000 |       0.0000 |       0.0000 |       0.0000 |       0.0000 |       0.0000 |       0.0000 |       0.0000 |       0.0000 |       0.0000 |       0.0000 |       0.0000 |       0.0000 |       0.0000 |       0.0000 |       0.0000 |       0.0000 |       0.0000 |       0.0000 |       0.0000 |       0.0000 |       0.0000 |       0.0000 |       0.0000 |       0.0000 |       0.0000 |       0.0000 |       0.0000 |       0.0000 |       0.0000 |
itlb.repl_rate                              0.0000 |       0.0000 |       0.0000 |       0.0000 |       0.0000 |       0.0000 |       0.0000 |       0.0000 |       0.0000 |       0.0000 |       0.0000 |       0.0000 |       0.0000 |       0.0000 |       0.0000 |       0.0000 |       0.0000 |       0.0000 |       0.0000 |       0.0000 |       0.0000 |       0.0000 |       0.0000 |       0.0000 |       0.0000 |       0.0000 |       0.0000 |       0.0000 |       0.0000 |       0.0000 |       0.0000 |       0.0000 |       0.0000 |       0.0000 |       0.0000 |       0.0000 |       0.0000 |       0.0000 |       0.0000 |       0.0000 |       0.0000 |       0.0000 |       0.0000 |       0.0000 |
itlb.wb_rate                                0.0000 |       0.0000 |       0.0000 |       0.0000 |       0.0000 |       0.0000 |       0.0000 |       0.0000 |       0.0000 |       0.0000 |       0.0000 |       0.0000 |       0.0000 |       0.0000 |       0.0000 |       0.0000 |       0.0000 |       0.0000 |       0.0000 |       0.0000 |       0.0000 |       0.0000 |       0.0000 |       0.0000 |       0.0000 |       0.0000 |       0.0000 |       0.0000 |       0.0000 |       0.0000 |       0.0000 |       0.0000 |       0.0000 |       0.0000 |       0.0000 |       0.0000 |       0.0000 |       0.0000 |       0.0000 |       0.0000 |       0.0000 |       0.0000 |       0.0000 |       0.0000 |
itlb.inv_rate                               0.0000 |       0.0000 |       0.0000 |       0.0000 |       0.0000 |       0.0000 |       0.0000 |       0.0000 |       0.0000 |       0.0000 |       0.0000 |       0.0000 |       0.0000 |       0.0000 |       0.0000 |       0.0000 |       0.0000 |       0.0000 |       0.0000 |       0.0000 |       0.0000 |       0.0000 |       0.0000 |       0.0000 |       0.0000 |       0.0000 |       0.0000 |       0.0000 |       0.0000 |       0.0000 |       0.0000 |       0.0000 |       0.0000 |       0.0000 |       0.0000 |       0.0000 |       0.0000 |       0.0000 |       0.0000 |       0.0000 |       0.0000 |       0.0000 |       0.0000 |       0.0000 |
dtlb.accesses                               155430 |       155430 |       155430 |       155430 |       302886 |       302886 |       302886 |       302886 |       597798 |       597798 |       597798 |       597798 |      1187622 |      1187622 |      1187622 |      1187622 |      2367270 |      2367270 |      2367270 |      2367270 |      4726566 |      4726566 |      4726566 |      4726566 |      9445158 |      9445158 |      9445158 |      9445158 |     18891604 |     18891604 |     18891604 |     18891604 |     37765972 |     37765972 |     37765972 |     37765972 |     75520852 |     75520852 |     75520852 |     75520852 |    151030612 |    151030612 |    151030612 |    151030612 |
dtlb.hits                                   155414 |       155414 |       155414 |       155414 |       302862 |       302862 |       302862 |       302862 |       597758 |       597758 |       597758 |       597758 |      1187550 |      1187550 |      1187550 |      1187550 |      2367108 |      2367108 |      2367108 |      2367108 |      4715944 |      4715944 |      4715944 |      4715944 |      8918574 |      8918574 |      8918574 |      8918574 |     17639379 |     17639379 |     17639379 |     17639379 |     34653188 |     34653188 |     34653188 |     34653188 |     68439061 |     68439061 |     68439061 |     68439061 |    135985634 |    135985634 |    135985634 |    135985634 |
dtlb.misses                                     16 |           16 |           16 |           16 |           24 |           24 |           24 |           24 |           40 |           40 |           40 |           40 |           72 |           72 |           72 |           72 |          162 |          162 |          162 |          162 |        10622 |        10622 |        10622 |        10622 |       526584 |       526584 |       526584 |       526584 |      1252225 |      1252225 |      1252225 |      1252225 |      3112784 |      3112784 |      3112784 |      3112784 |      7081791 |      7081791 |      7081791 |      7081791 |     15044978 |     15044978 |     15044978 |     15044978 |
dtlb.replacements                                0 |            0 |            0 |            0 |            0 |            0 |            0 |            0 |            0 |            0 |            0 |            0 |            0 |            0 |            0 |            0 |           34 |           34 |           34 |           34 |        10494 |        10494 |        10494 |        10494 |       526456 |       526456 |       526456 |       526456 |      1252097 |      1252097 |      1252097 |      1252097 |      3112656 |      3112656 |      3112656 |      3112656 |      7081663 |      7081663 |      7081663 |      7081663 |     15044850 |     15044850 |     15044850 |     15044850 |
dtlb.writebacks                                  0 |            0 |            0 |            0 |            0 |            0 |            0 |            0 |            0 |            0 |            0 |            0 |            0 |            0 |            0 |            0 |           26 |           26 |           26 |           26 |         9964 |         9964 |         9964 |         9964 |       525175 |       525175 |       525175 |       525175 |      1249539 |      1249539 |      1249539 |      1249539 |      3107597 |      3107597 |      3107597 |      3107597 |      7071512 |      7071512 |      7071512 |      7071512 |     15024465 |     15024465 |     15024465 |     15024465 |
dtlb.invalidations                               0 |            0 |            0 |            0 |            0 |            0 |            0 |            0 |            0 |            0 |            0 |            0 |            0 |            0 |            0 |            0 |            0 |            0 |            0 |            0 |            0 |            0 |            0 |            0 |            0 |            0 |            0 |            0 |            0 |            0 |            0 |            0 |            0 |            0 |            0 |            0 |            0 |            0 |            0 |            0 |            0 |            0 |            0 |            0 |
dtlb.miss_rate                              0.0001 |       0.0001 |       0.0001 |       0.0001 |       0.0001 |       0.0001 |       0.0001 |       0.0001 |       0.0001 |       0.0001 |       0.0001 |       0.0001 |       0.0001 |       0.0001 |       0.0001 |       0.0001 |       0.0001 |       0.0001 |       0.0001 |       0.0001 |       0.0022 |       0.0022 |       0.0022 |       0.0022 |       0.0558 |       0.0558 |       0.0558 |       0.0558 |       0.0663 |       0.0663 |       0.0663 |       0.0663 |       0.0824 |       0.0824 |       0.0824 |       0.0824 |       0.0938 |       0.0938 |       0.0938 |       0.0938 |       0.0996 |       0.0996 |       0.0996 |       0.0996 |
dtlb.repl_rate                              0.0000 |       0.0000 |       0.0000 |       0.0000 |       0.0000 |       0.0000 |       0.0000 |       0.0000 |       0.0000 |       0.0000 |       0.0000 |       0.0000 |       0.0000 |       0.0000 |       0.0000 |       0.0000 |       0.0000 |       0.0000 |       0.0000 |       0.0000 |       0.0022 |       0.0022 |       0.0022 |       0.0022 |       0.0557 |       0.0557 |       0.0557 |       0.0557 |       0.0663 |       0.0663 |       0.0663 |       0.0663 |       0.0824 |       0.0824 |       0.0824 |       0.0824 |       0.0938 |       0.0938 |       0.0938 |       0.0938 |       0.0996 |       0.0996 |       0.0996 |       0.0996 |
dtlb.wb_rate                                0.0000 |       0.0000 |       0.0000 |       0.0000 |       0.0000 |       0.0000 |       0.0000 |       0.0000 |       0.0000 |       0.0000 |       0.0000 |       0.0000 |       0.0000 |       0.0000 |       0.0000 |       0.0000 |       0.0000 |       0.0000 |       0.0000 |       0.0000 |       0.0021 |       0.0021 |       0.0021 |       0.0021 |       0.0556 |       0.0556 |       0.0556 |       0.0556 |       0.0661 |       0.0661 |       0.0661 |       0.0661 |       0.0823 |       0.0823 |       0.0823 |       0.0823 |       0.0936 |       0.0936 |       0.0936 |       0.0936 |       0.0995 |       0.0995 |       0.0995 |       0.0995 |
dtlb.inv_rate                               0.0000 |       0.0000 |       0.0000 |       0.0000 |       0.0000 |       0.0000 |       0.0000 |       0.0000 |       0.0000 |       0.0000 |       0.0000 |       0.0000 |       0.0000 |       0.0000 |       0.0000 |       0.0000 |       0.0000 |       0.0000 |       0.0000 |       0.0000 |       0.0000 |       0.0000 |       0.0000 |       0.0000 |       0.0000 |       0.0000 |       0.0000 |       0.0000 |       0.0000 |       0.0000 |       0.0000 |       0.0000 |       0.0000 |       0.0000 |       0.0000 |       0.0000 |       0.0000 |       0.0000 |       0.0000 |       0.0000 |       0.0000 |       0.0000 |       0.0000 |       0.0000 |
ld_text_base                            0x00400000 |   0x00400000 |   0x00400000 |   0x00400000 |   0x00400000 |   0x00400000 |   0x00400000 |   0x00400000 |   0x00400000 |   0x00400000 |   0x00400000 |   0x00400000 |   0x00400000 |   0x00400000 |   0x00400000 |   0x00400000 |   0x00400000 |   0x00400000 |   0x00400000 |   0x00400000 |   0x00400000 |   0x00400000 |   0x00400000 |   0x00400000 |   0x00400000 |   0x00400000 |   0x00400000 |   0x00400000 |   0x00400000 |   0x00400000 |   0x00400000 |   0x00400000 |   0x00400000 |   0x00400000 |   0x00400000 |   0x00400000 |   0x00400000 |   0x00400000 |   0x00400000 |   0x00400000 |   0x00400000 |   0x00400000 |   0x00400000 |   0x00400000 |
ld_text_size                                 74416 |        74416 |        74416 |        74416 |        74448 |        74448 |        74448 |        74448 |        74464 |        74464 |        74464 |        74464 |        74480 |        74480 |        74480 |        74480 |        74480 |        74480 |        74480 |        74480 |        74480 |        74480 |        74480 |        74480 |        74480 |        74480 |        74480 |        74480 |        74480 |        74480 |        74480 |        74480 |        74480 |        74480 |        74480 |        74480 |        74480 |        74480 |        74480 |        74480 |        74480 |        74480 |        74480 |        74480 |
ld_data_base                            0x10000000 |   0x10000000 |   0x10000000 |   0x10000000 |   0x10000000 |   0x10000000 |   0x10000000 |   0x10000000 |   0x10000000 |   0x10000000 |   0x10000000 |   0x10000000 |   0x10000000 |   0x10000000 |   0x10000000 |   0x10000000 |   0x10000000 |   0x10000000 |   0x10000000 |   0x10000000 |   0x10000000 |   0x10000000 |   0x10000000 |   0x10000000 |   0x10000000 |   0x10000000 |   0x10000000 |   0x10000000 |   0x10000000 |   0x10000000 |   0x10000000 |   0x10000000 |   0x10000000 |   0x10000000 |   0x10000000 |   0x10000000 |   0x10000000 |   0x10000000 |   0x10000000 |   0x10000000 |   0x10000000 |   0x10000000 |   0x10000000 |   0x10000000 |
ld_data_size                                  8192 |         8192 |         8192 |         8192 |         8192 |         8192 |         8192 |         8192 |         8192 |         8192 |         8192 |         8192 |         8192 |         8192 |         8192 |         8192 |         8192 |         8192 |         8192 |         8192 |         8192 |         8192 |         8192 |         8192 |         8192 |         8192 |         8192 |         8192 |         8192 |         8192 |         8192 |         8192 |         8192 |         8192 |         8192 |         8192 |         8192 |         8192 |         8192 |         8192 |         8192 |         8192 |         8192 |         8192 |
ld_stack_base                           0x7fffc000 |   0x7fffc000 |   0x7fffc000 |   0x7fffc000 |   0x7fffc000 |   0x7fffc000 |   0x7fffc000 |   0x7fffc000 |   0x7fffc000 |   0x7fffc000 |   0x7fffc000 |   0x7fffc000 |   0x7fffc000 |   0x7fffc000 |   0x7fffc000 |   0x7fffc000 |   0x7fffc000 |   0x7fffc000 |   0x7fffc000 |   0x7fffc000 |   0x7fffc000 |   0x7fffc000 |   0x7fffc000 |   0x7fffc000 |   0x7fffc000 |   0x7fffc000 |   0x7fffc000 |   0x7fffc000 |   0x7fffc000 |   0x7fffc000 |   0x7fffc000 |   0x7fffc000 |   0x7fffc000 |   0x7fffc000 |   0x7fffc000 |   0x7fffc000 |   0x7fffc000 |   0x7fffc000 |   0x7fffc000 |   0x7fffc000 |   0x7fffc000 |   0x7fffc000 |   0x7fffc000 |   0x7fffc000 |
ld_stack_size                                16384 |        16384 |        16384 |        16384 |        16384 |        16384 |        16384 |        16384 |        16384 |        16384 |        16384 |        16384 |        16384 |        16384 |        16384 |        16384 |        16384 |        16384 |        16384 |        16384 |        16384 |        16384 |        16384 |        16384 |        16384 |        16384 |        16384 |        16384 |        16384 |        16384 |        16384 |        16384 |        16384 |        16384 |        16384 |        16384 |        16384 |        16384 |        16384 |        16384 |        16384 |        16384 |        16384 |        16384 |
ld_prog_entry                           0x00400140 |   0x00400140 |   0x00400140 |   0x00400140 |   0x00400140 |   0x00400140 |   0x00400140 |   0x00400140 |   0x00400140 |   0x00400140 |   0x00400140 |   0x00400140 |   0x00400140 |   0x00400140 |   0x00400140 |   0x00400140 |   0x00400140 |   0x00400140 |   0x00400140 |   0x00400140 |   0x00400140 |   0x00400140 |   0x00400140 |   0x00400140 |   0x00400140 |   0x00400140 |   0x00400140 |   0x00400140 |   0x00400140 |   0x00400140 |   0x00400140 |   0x00400140 |   0x00400140 |   0x00400140 |   0x00400140 |   0x00400140 |   0x00400140 |   0x00400140 |   0x00400140 |   0x00400140 |   0x00400140 |   0x00400140 |   0x00400140 |   0x00400140 |
ld_environ_base                         0x7fff8000 |   0x7fff8000 |   0x7fff8000 |   0x7fff8000 |   0x7fff8000 |   0x7fff8000 |   0x7fff8000 |   0x7fff8000 |   0x7fff8000 |   0x7fff8000 |   0x7fff8000 |   0x7fff8000 |   0x7fff8000 |   0x7fff8000 |   0x7fff8000 |   0x7fff8000 |   0x7fff8000 |   0x7fff8000 |   0x7fff8000 |   0x7fff8000 |   0x7fff8000 |   0x7fff8000 |   0x7fff8000 |   0x7fff8000 |   0x7fff8000 |   0x7fff8000 |   0x7fff8000 |   0x7fff8000 |   0x7fff8000 |   0x7fff8000 |   0x7fff8000 |   0x7fff8000 |   0x7fff8000 |   0x7fff8000 |   0x7fff8000 |   0x7fff8000 |   0x7fff8000 |   0x7fff8000 |   0x7fff8000 |   0x7fff8000 |   0x7fff8000 |   0x7fff8000 |   0x7fff8000 |   0x7fff8000 |
ld_target_big_endian                             0 |            0 |            0 |            0 |            0 |            0 |            0 |            0 |            0 |            0 |            0 |            0 |            0 |            0 |            0 |            0 |            0 |            0 |            0 |            0 |            0 |            0 |            0 |            0 |            0 |            0 |            0 |            0 |            0 |            0 |            0 |            0 |            0 |            0 |            0 |            0 |            0 |            0 |            0 |            0 |            0 |            0 |            0 |            0 |
mem.page_count                                  35 |           35 |           35 |           35 |           43 |           43 |           43 |           43 |           59 |           59 |           59 |           59 |           91 |           91 |           91 |           91 |          155 |          155 |          155 |          155 |          283 |          283 |          283 |          283 |          539 |          539 |          539 |          539 |         1057 |         1057 |         1057 |         1057 |         2081 |         2081 |         2081 |         2081 |         4135 |         4135 |         4135 |         4135 |         8243 |         8243 |         8243 |         8243 |
mem.page_mem                                  140k |         140k |         140k |         140k |         172k |         172k |         172k |         172k |         236k |         236k |         236k |         236k |         364k |         364k |         364k |         364k |         620k |         620k |         620k |         620k |        1132k |        1132k |        1132k |        1132k |        2156k |        2156k |        2156k |        2156k |        4228k |        4228k |        4228k |        4228k |        8324k |        8324k |        8324k |        8324k |       16540k |       16540k |       16540k |       16540k |       32972k |       32972k |       32972k |       32972k |
mem.ptab_misses                                 35 |           35 |           35 |           35 |           43 |           43 |           43 |           43 |           59 |           59 |           59 |           59 |           91 |           91 |           91 |           91 |          155 |          155 |          155 |          155 |          283 |          283 |          283 |          283 |          539 |          539 |          539 |          539 |         1060 |         1060 |         1060 |         1060 |        16424 |        16424 |        16424 |        16424 |        18478 |        18478 |        18478 |        18478 |        22586 |        22586 |        22586 |        22586 |
mem.ptab_accesses                          2287368 |      2287368 |      2287368 |      2287368 |      4044760 |      4044760 |      4044760 |      4044760 |      7559232 |      7559232 |      7559232 |      7559232 |     14588068 |     14588068 |     14588068 |     14588068 |     28645540 |     28645540 |     28645540 |     28645540 |     56760488 |     56760488 |     56760488 |     56760488 |    112990376 |    112990376 |    112990376 |    112990376 |    225518580 |    225518580 |    225518580 |    225518580 |    450438132 |    450438132 |    450438132 |    450438132 |    900326420 |    900326420 |    900326420 |    900326420 |   1800102964 |   1800102964 |   1800102964 |   1800102964 |
mem.ptab_miss_rate                          0.0000 |       0.0000 |       0.0000 |       0.0000 |       0.0000 |       0.0000 |       0.0000 |       0.0000 |       0.0000 |       0.0000 |       0.0000 |       0.0000 |       0.0000 |       0.0000 |       0.0000 |       0.0000 |       0.0000 |       0.0000 |       0.0000 |       0.0000 |       0.0000 |       0.0000 |       0.0000 |       0.0000 |       0.0000 |       0.0000 |       0.0000 |       0.0000 |       0.0000 |       0.0000 |       0.0000 |       0.0000 |       0.0000 |       0.0000 |       0.0000 |       0.0000 |       0.0000 |       0.0000 |       0.0000 |       0.0000 |       0.0000 |       0.0000 |       0.0000 |       0.0000 |
-------------------------------------------------------------------------------------------------
sim-bpred                                     4096 |         4096 |         4096 |         4096 |         4096 |         4096 |         4096 |         8192 |         8192 |         8192 |         8192 |         8192 |         8192 |         8192 |        16384 |        16384 |        16384 |        16384 |        16384 |        16384 |        16384 |        32768 |        32768 |        32768 |        32768 |        32768 |        32768 |        32768 |        65536 |        65536 |        65536 |        65536 |        65536 |        65536 |        65536 |       131072 |       131072 |       131072 |       131072 |       131072 |       131072 |       131072 |       262144 |       262144 |       262144 |       262144 |       262144 |       262144 |       262144 |       524288 |       524288 |       524288 |       524288 |       524288 |       524288 |       524288 |      1048576 |      1048576 |      1048576 |      1048576 |      1048576 |      1048576 |      1048576 |      2097152 |      2097152 |      2097152 |      2097152 |      2097152 |      2097152 |      2097152 |      4194304 |      4194304 |      4194304 |      4194304 |      4194304 |      4194304 |      4194304 |
-bpred bimod -bpred:bimod 512
-bpred bimod -bpred:bimod 1024
-bpred bimod -bpred:bimod 2048
-bpred 2lev -bpred:2lev 1 512 10 1
-bpred 2lev -bpred:2lev 1 1024 10 1
-bpred 2lev -bpred:2lev 1 2048 10 1
-bpred 2lev -bpred:2lev 1 4096 10 1
-------------------------------------------------------------------------------------------------
sim_num_insn                                378851 |       378851 |       378851 |       378851 |       378851 |       378851 |       378851 |       744423 |       744423 |       744423 |       744423 |       744423 |       744423 |       744423 |      1475561 |      1475561 |      1475561 |      1475561 |      1475561 |      1475561 |      1475561 |      2937834 |      2937834 |      2937834 |      2937834 |      2937834 |      2937834 |      2937834 |      5862378 |      5862378 |      5862378 |      5862378 |      5862378 |      5862378 |      5862378 |     11711467 |     11711467 |     11711467 |     11711467 |     11711467 |     11711467 |     11711467 |     23409643 |     23409643 |     23409643 |     23409643 |     23409643 |     23409643 |     23409643 |     46818471 |     46818471 |     46818471 |     46818471 |     46818471 |     46818471 |     46818471 |     93611175 |     93611175 |     93611175 |     93611175 |     93611175 |     93611175 |     93611175 |    187205807 |    187205807 |    187205807 |    187205807 |    187205807 |    187205807 |    187205807 |    374395063 |    374395063 |    374395063 |    374395063 |    374395063 |    374395063 |    374395063 |
sim_num_refs                                138964 |       138964 |       138964 |       138964 |       138964 |       138964 |       138964 |       270036 |       270036 |       270036 |       270036 |       270036 |       270036 |       270036 |       532180 |       532180 |       532180 |       532180 |       532180 |       532180 |       532180 |      1056468 |      1056468 |      1056468 |      1056468 |      1056468 |      1056468 |      1056468 |      2105044 |      2105044 |      2105044 |      2105044 |      2105044 |      2105044 |      2105044 |      4202196 |      4202196 |      4202196 |      4202196 |      4202196 |      4202196 |      4202196 |      8396500 |      8396500 |      8396500 |      8396500 |      8396500 |      8396500 |      8396500 |     16794370 |     16794370 |     16794370 |     16794370 |     16794370 |     16794370 |     16794370 |     33571586 |     33571586 |     33571586 |     33571586 |     33571586 |     33571586 |     33571586 |     67132162 |     67132162 |     67132162 |     67132162 |     67132162 |     67132162 |     67132162 |    134253314 |    134253314 |    134253314 |    134253314 |    134253314 |    134253314 |    134253314 |
sim_elapsed_time                                 1 |            1 |            1 |            1 |            1 |            1 |            1 |            1 |            1 |            1 |            1 |            1 |            1 |            1 |            1 |            1 |            1 |            1 |            1 |            1 |            1 |            1 |            1 |            1 |            1 |            1 |            1 |            1 |            1 |            1 |            1 |            1 |            1 |            1 |            1 |            1 |            1 |            1 |            1 |            1 |            1 |            1 |            2 |            2 |            2 |            2 |            2 |            3 |            2 |            4 |            4 |            4 |            4 |            5 |            4 |            4 |            9 |            8 |            9 |            8 |            9 |            8 |            9 |           17 |           17 |           18 |           17 |           17 |           17 |           17 |           34 |           34 |           35 |           34 |           34 |           34 |           34 |
sim_inst_rate                          378851.0000 |  378851.0000 |  378851.0000 |  378851.0000 |  378851.0000 |  378851.0000 |  378851.0000 |  744423.0000 |  744423.0000 |  744423.0000 |  744423.0000 |  744423.0000 |  744423.0000 |  744423.0000 | 1475561.0000 | 1475561.0000 | 1475561.0000 | 1475561.0000 | 1475561.0000 | 1475561.0000 | 1475561.0000 | 2937834.0000 | 2937834.0000 | 2937834.0000 | 2937834.0000 | 2937834.0000 | 2937834.0000 | 2937834.0000 | 5862378.0000 | 5862378.0000 | 5862378.0000 | 5862378.0000 | 5862378.0000 | 5862378.0000 | 5862378.0000 |11711467.0000 |11711467.0000 |11711467.0000 |11711467.0000 |11711467.0000 |11711467.0000 |11711467.0000 |11704821.5000 |11704821.5000 |11704821.5000 |11704821.5000 |11704821.5000 | 7803214.3333 |11704821.5000 |11704617.7500 |11704617.7500 |11704617.7500 |11704617.7500 | 9363694.2000 |11704617.7500 |11704617.7500 |10401241.6667 |11701396.8750 |10401241.6667 |11701396.8750 |10401241.6667 |11701396.8750 |10401241.6667 |11012106.2941 |11012106.2941 |10400322.6111 |11012106.2941 |11012106.2941 |11012106.2941 |11012106.2941 |11011619.5000 |11011619.5000 |10697001.8000 |11011619.5000 |11011619.5000 |11011619.5000 |11011619.5000 |
sim_num_branches                              9292 |         9292 |         9292 |         9292 |         9292 |         9292 |         9292 |        17484 |        17484 |        17484 |        17484 |        17484 |        17484 |        17484 |        33868 |        33868 |        33868 |        33868 |        33868 |        33868 |        33868 |        66636 |        66636 |        66636 |        66636 |        66636 |        66636 |        66636 |       132172 |       132172 |       132172 |       132172 |       132172 |       132172 |       132172 |       263244 |       263244 |       263244 |       263244 |       263244 |       263244 |       263244 |       525388 |       525388 |       525388 |       525388 |       525388 |       525388 |       525388 |      1050469 |      1050469 |      1050469 |      1050469 |      1050469 |      1050469 |      1050469 |      2099045 |      2099045 |      2099045 |      2099045 |      2099045 |      2099045 |      2099045 |      4196968 |      4196968 |      4196968 |      4196968 |      4196968 |      4196968 |      4196968 |      8392811 |      8392811 |      8392811 |      8392811 |      8392811 |      8392811 |      8392811 |
sim_IPB                                    40.7717 |      40.7717 |      40.7717 |      40.7717 |      40.7717 |      40.7717 |      40.7717 |      42.5774 |      42.5774 |      42.5774 |      42.5774 |      42.5774 |      42.5774 |      42.5774 |      43.5680 |      43.5680 |      43.5680 |      43.5680 |      43.5680 |      43.5680 |      43.5680 |      44.0878 |      44.0878 |      44.0878 |      44.0878 |      44.0878 |      44.0878 |      44.0878 |      44.3542 |      44.3542 |      44.3542 |      44.3542 |      44.3542 |      44.3542 |      44.3542 |      44.4890 |      44.4890 |      44.4890 |      44.4890 |      44.4890 |      44.4890 |      44.4890 |      44.5569 |      44.5569 |      44.5569 |      44.5569 |      44.5569 |      44.5569 |      44.5569 |      44.5691 |      44.5691 |      44.5691 |      44.5691 |      44.5691 |      44.5691 |      44.5691 |      44.5970 |      44.5970 |      44.5970 |      44.5970 |      44.5970 |      44.5970 |      44.5970 |      44.6050 |      44.6050 |      44.6050 |      44.6050 |      44.6050 |      44.6050 |      44.6050 |      44.6090 |      44.6090 |      44.6090 |      44.6090 |      44.6090 |      44.6090 |      44.6090 |
bpred_bimod.lookups                           9292 |         9292 |         9292 |xxxxxxxxxxxxx |xxxxxxxxxxxxx |xxxxxxxxxxxxx |xxxxxxxxxxxxx |        17484 |        17484 |        17484 |xxxxxxxxxxxxx |xxxxxxxxxxxxx |xxxxxxxxxxxxx |xxxxxxxxxxxxx |        33868 |        33868 |        33868 |xxxxxxxxxxxxx |xxxxxxxxxxxxx |xxxxxxxxxxxxx |xxxxxxxxxxxxx |        66636 |        66636 |        66636 |xxxxxxxxxxxxx |xxxxxxxxxxxxx |xxxxxxxxxxxxx |xxxxxxxxxxxxx |       132172 |       132172 |       132172 |xxxxxxxxxxxxx |xxxxxxxxxxxxx |xxxxxxxxxxxxx |xxxxxxxxxxxxx |       263244 |       263244 |       263244 |xxxxxxxxxxxxx |xxxxxxxxxxxxx |xxxxxxxxxxxxx |xxxxxxxxxxxxx |       525388 |       525388 |       525388 |xxxxxxxxxxxxx |xxxxxxxxxxxxx |xxxxxxxxxxxxx |xxxxxxxxxxxxx |      1050469 |      1050469 |      1050469 |xxxxxxxxxxxxx |xxxxxxxxxxxxx |xxxxxxxxxxxxx |xxxxxxxxxxxxx |      2099045 |      2099045 |      2099045 |xxxxxxxxxxxxx |xxxxxxxxxxxxx |xxxxxxxxxxxxx |xxxxxxxxxxxxx |      4196968 |      4196968 |      4196968 |xxxxxxxxxxxxx |xxxxxxxxxxxxx |xxxxxxxxxxxxx |xxxxxxxxxxxxx |      8392811 |      8392811 |      8392811 |
bpred_bimod.updates                           9292 |         9292 |         9292 |xxxxxxxxxxxxx |xxxxxxxxxxxxx |xxxxxxxxxxxxx |xxxxxxxxxxxxx |        17484 |        17484 |        17484 |xxxxxxxxxxxxx |xxxxxxxxxxxxx |xxxxxxxxxxxxx |xxxxxxxxxxxxx |        33868 |        33868 |        33868 |xxxxxxxxxxxxx |xxxxxxxxxxxxx |xxxxxxxxxxxxx |xxxxxxxxxxxxx |        66636 |        66636 |        66636 |xxxxxxxxxxxxx |xxxxxxxxxxxxx |xxxxxxxxxxxxx |xxxxxxxxxxxxx |       132172 |       132172 |       132172 |xxxxxxxxxxxxx |xxxxxxxxxxxxx |xxxxxxxxxxxxx |xxxxxxxxxxxxx |       263244 |       263244 |       263244 |xxxxxxxxxxxxx |xxxxxxxxxxxxx |xxxxxxxxxxxxx |xxxxxxxxxxxxx |       525388 |       525388 |       525388 |xxxxxxxxxxxxx |xxxxxxxxxxxxx |xxxxxxxxxxxxx |xxxxxxxxxxxxx |      1050469 |      1050469 |      1050469 |xxxxxxxxxxxxx |xxxxxxxxxxxxx |xxxxxxxxxxxxx |xxxxxxxxxxxxx |      2099045 |      2099045 |      2099045 |xxxxxxxxxxxxx |xxxxxxxxxxxxx |xxxxxxxxxxxxx |xxxxxxxxxxxxx |      4196968 |      4196968 |      4196968 |xxxxxxxxxxxxx |xxxxxxxxxxxxx |xxxxxxxxxxxxx |xxxxxxxxxxxxx |      8392811 |      8392811 |      8392811 |
bpred_bimod.addr_hits                         9076 |         9079 |         9080 |xxxxxxxxxxxxx |xxxxxxxxxxxxx |xxxxxxxxxxxxx |xxxxxxxxxxxxx |        17267 |        17271 |        17272 |xxxxxxxxxxxxx |xxxxxxxxxxxxx |xxxxxxxxxxxxx |xxxxxxxxxxxxx |        33654 |        33656 |        33657 |xxxxxxxxxxxxx |xxxxxxxxxxxxx |xxxxxxxxxxxxx |xxxxxxxxxxxxx |        66421 |        66424 |        66425 |xxxxxxxxxxxxx |xxxxxxxxxxxxx |xxxxxxxxxxxxx |xxxxxxxxxxxxx |       131957 |       131960 |       131961 |xxxxxxxxxxxxx |xxxxxxxxxxxxx |xxxxxxxxxxxxx |xxxxxxxxxxxxx |       263029 |       263032 |       263033 |xxxxxxxxxxxxx |xxxxxxxxxxxxx |xxxxxxxxxxxxx |xxxxxxxxxxxxx |       525173 |       525176 |       525177 |xxxxxxxxxxxxx |xxxxxxxxxxxxx |xxxxxxxxxxxxx |xxxxxxxxxxxxx |      1050228 |      1050231 |      1050231 |xxxxxxxxxxxxx |xxxxxxxxxxxxx |xxxxxxxxxxxxx |xxxxxxxxxxxxx |      2098804 |      2098807 |      2098807 |xxxxxxxxxxxxx |xxxxxxxxxxxxx |xxxxxxxxxxxxx |xxxxxxxxxxxxx |      4196727 |      4196730 |      4196730 |xxxxxxxxxxxxx |xxxxxxxxxxxxx |xxxxxxxxxxxxx |xxxxxxxxxxxxx |      8392570 |      8392573 |      8392573 |
bpred_bimod.dir_hits                          9186 |         9185 |         9185 |xxxxxxxxxxxxx |xxxxxxxxxxxxx |xxxxxxxxxxxxx |xxxxxxxxxxxxx |        17372 |        17377 |        17377 |xxxxxxxxxxxxx |xxxxxxxxxxxxx |xxxxxxxxxxxxx |xxxxxxxxxxxxx |        33761 |        33761 |        33762 |xxxxxxxxxxxxx |xxxxxxxxxxxxx |xxxxxxxxxxxxx |xxxxxxxxxxxxx |        66526 |        66527 |        66529 |xxxxxxxxxxxxx |xxxxxxxxxxxxx |xxxxxxxxxxxxx |xxxxxxxxxxxxx |       132062 |       132063 |       132065 |xxxxxxxxxxxxx |xxxxxxxxxxxxx |xxxxxxxxxxxxx |xxxxxxxxxxxxx |       263135 |       263136 |       263138 |xxxxxxxxxxxxx |xxxxxxxxxxxxx |xxxxxxxxxxxxx |xxxxxxxxxxxxx |       525279 |       525280 |       525282 |xxxxxxxxxxxxx |xxxxxxxxxxxxx |xxxxxxxxxxxxx |xxxxxxxxxxxxx |      1050345 |      1050346 |      1050347 |xxxxxxxxxxxxx |xxxxxxxxxxxxx |xxxxxxxxxxxxx |xxxxxxxxxxxxx |      2098921 |      2098922 |      2098923 |xxxxxxxxxxxxx |xxxxxxxxxxxxx |xxxxxxxxxxxxx |xxxxxxxxxxxxx |      4196844 |      4196845 |      4196846 |xxxxxxxxxxxxx |xxxxxxxxxxxxx |xxxxxxxxxxxxx |xxxxxxxxxxxxx |      8392687 |      8392688 |      8392689 |
bpred_bimod.misses                             106 |          107 |          107 |xxxxxxxxxxxxx |xxxxxxxxxxxxx |xxxxxxxxxxxxx |xxxxxxxxxxxxx |          112 |          107 |          107 |xxxxxxxxxxxxx |xxxxxxxxxxxxx |xxxxxxxxxxxxx |xxxxxxxxxxxxx |          107 |          107 |          106 |xxxxxxxxxxxxx |xxxxxxxxxxxxx |xxxxxxxxxxxxx |xxxxxxxxxxxxx |          110 |          109 |          107 |xxxxxxxxxxxxx |xxxxxxxxxxxxx |xxxxxxxxxxxxx |xxxxxxxxxxxxx |          110 |          109 |          107 |xxxxxxxxxxxxx |xxxxxxxxxxxxx |xxxxxxxxxxxxx |xxxxxxxxxxxxx |          109 |          108 |          106 |xxxxxxxxxxxxx |xxxxxxxxxxxxx |xxxxxxxxxxxxx |xxxxxxxxxxxxx |          109 |          108 |          106 |xxxxxxxxxxxxx |xxxxxxxxxxxxx |xxxxxxxxxxxxx |xxxxxxxxxxxxx |          124 |          123 |          122 |xxxxxxxxxxxxx |xxxxxxxxxxxxx |xxxxxxxxxxxxx |xxxxxxxxxxxxx |          124 |          123 |          122 |xxxxxxxxxxxxx |xxxxxxxxxxxxx |xxxxxxxxxxxxx |xxxxxxxxxxxxx |          124 |          123 |          122 |xxxxxxxxxxxxx |xxxxxxxxxxxxx |xxxxxxxxxxxxx |xxxxxxxxxxxxx |          124 |          123 |          122 |
bpred_bimod.jr_hits                             70 |           70 |           70 |xxxxxxxxxxxxx |xxxxxxxxxxxxx |xxxxxxxxxxxxx |xxxxxxxxxxxxx |           70 |           70 |           70 |xxxxxxxxxxxxx |xxxxxxxxxxxxx |xxxxxxxxxxxxx |xxxxxxxxxxxxx |           70 |           70 |           70 |xxxxxxxxxxxxx |xxxxxxxxxxxxx |xxxxxxxxxxxxx |xxxxxxxxxxxxx |           70 |           70 |           70 |xxxxxxxxxxxxx |xxxxxxxxxxxxx |xxxxxxxxxxxxx |xxxxxxxxxxxxx |           70 |           70 |           70 |xxxxxxxxxxxxx |xxxxxxxxxxxxx |xxxxxxxxxxxxx |xxxxxxxxxxxxx |           70 |           70 |           70 |xxxxxxxxxxxxx |xxxxxxxxxxxxx |xxxxxxxxxxxxx |xxxxxxxxxxxxx |           70 |           70 |           70 |xxxxxxxxxxxxx |xxxxxxxxxxxxx |xxxxxxxxxxxxx |xxxxxxxxxxxxx |           73 |           73 |           73 |xxxxxxxxxxxxx |xxxxxxxxxxxxx |xxxxxxxxxxxxx |xxxxxxxxxxxxx |           73 |           73 |           73 |xxxxxxxxxxxxx |xxxxxxxxxxxxx |xxxxxxxxxxxxx |xxxxxxxxxxxxx |           73 |           73 |           73 |xxxxxxxxxxxxx |xxxxxxxxxxxxx |xxxxxxxxxxxxx |xxxxxxxxxxxxx |           73 |           73 |           73 |
bpred_bimod.jr_seen                             71 |           71 |           71 |xxxxxxxxxxxxx |xxxxxxxxxxxxx |xxxxxxxxxxxxx |xxxxxxxxxxxxx |           71 |           71 |           71 |xxxxxxxxxxxxx |xxxxxxxxxxxxx |xxxxxxxxxxxxx |xxxxxxxxxxxxx |           71 |           71 |           71 |xxxxxxxxxxxxx |xxxxxxxxxxxxx |xxxxxxxxxxxxx |xxxxxxxxxxxxx |           71 |           71 |           71 |xxxxxxxxxxxxx |xxxxxxxxxxxxx |xxxxxxxxxxxxx |xxxxxxxxxxxxx |           71 |           71 |           71 |xxxxxxxxxxxxx |xxxxxxxxxxxxx |xxxxxxxxxxxxx |xxxxxxxxxxxxx |           71 |           71 |           71 |xxxxxxxxxxxxx |xxxxxxxxxxxxx |xxxxxxxxxxxxx |xxxxxxxxxxxxx |           71 |           71 |           71 |xxxxxxxxxxxxx |xxxxxxxxxxxxx |xxxxxxxxxxxxx |xxxxxxxxxxxxx |           74 |           74 |           74 |xxxxxxxxxxxxx |xxxxxxxxxxxxx |xxxxxxxxxxxxx |xxxxxxxxxxxxx |           74 |           74 |           74 |xxxxxxxxxxxxx |xxxxxxxxxxxxx |xxxxxxxxxxxxx |xxxxxxxxxxxxx |           74 |           74 |           74 |xxxxxxxxxxxxx |xxxxxxxxxxxxx |xxxxxxxxxxxxx |xxxxxxxxxxxxx |           74 |           74 |           74 |
bpred_bimod.jr_non_ras_hits.PP                   0 |            0 |            0 |xxxxxxxxxxxxx |xxxxxxxxxxxxx |xxxxxxxxxxxxx |xxxxxxxxxxxxx |            0 |            0 |            0 |xxxxxxxxxxxxx |xxxxxxxxxxxxx |xxxxxxxxxxxxx |xxxxxxxxxxxxx |            0 |            0 |            0 |xxxxxxxxxxxxx |xxxxxxxxxxxxx |xxxxxxxxxxxxx |xxxxxxxxxxxxx |            0 |            0 |            0 |xxxxxxxxxxxxx |xxxxxxxxxxxxx |xxxxxxxxxxxxx |xxxxxxxxxxxxx |            0 |            0 |            0 |xxxxxxxxxxxxx |xxxxxxxxxxxxx |xxxxxxxxxxxxx |xxxxxxxxxxxxx |            0 |            0 |            0 |xxxxxxxxxxxxx |xxxxxxxxxxxxx |xxxxxxxxxxxxx |xxxxxxxxxxxxx |            0 |            0 |            0 |xxxxxxxxxxxxx |xxxxxxxxxxxxx |xxxxxxxxxxxxx |xxxxxxxxxxxxx |            0 |            0 |            0 |xxxxxxxxxxxxx |xxxxxxxxxxxxx |xxxxxxxxxxxxx |xxxxxxxxxxxxx |            0 |            0 |            0 |xxxxxxxxxxxxx |xxxxxxxxxxxxx |xxxxxxxxxxxxx |xxxxxxxxxxxxx |            0 |            0 |            0 |xxxxxxxxxxxxx |xxxxxxxxxxxxx |xxxxxxxxxxxxx |xxxxxxxxxxxxx |            0 |            0 |            0 |
bpred_bimod.jr_non_ras_seen.PP                   0 |            0 |            0 |xxxxxxxxxxxxx |xxxxxxxxxxxxx |xxxxxxxxxxxxx |xxxxxxxxxxxxx |            0 |            0 |            0 |xxxxxxxxxxxxx |xxxxxxxxxxxxx |xxxxxxxxxxxxx |xxxxxxxxxxxxx |            0 |            0 |            0 |xxxxxxxxxxxxx |xxxxxxxxxxxxx |xxxxxxxxxxxxx |xxxxxxxxxxxxx |            0 |            0 |            0 |xxxxxxxxxxxxx |xxxxxxxxxxxxx |xxxxxxxxxxxxx |xxxxxxxxxxxxx |            0 |            0 |            0 |xxxxxxxxxxxxx |xxxxxxxxxxxxx |xxxxxxxxxxxxx |xxxxxxxxxxxxx |            0 |            0 |            0 |xxxxxxxxxxxxx |xxxxxxxxxxxxx |xxxxxxxxxxxxx |xxxxxxxxxxxxx |            0 |            0 |            0 |xxxxxxxxxxxxx |xxxxxxxxxxxxx |xxxxxxxxxxxxx |xxxxxxxxxxxxx |            1 |            1 |            1 |xxxxxxxxxxxxx |xxxxxxxxxxxxx |xxxxxxxxxxxxx |xxxxxxxxxxxxx |            1 |            1 |            1 |xxxxxxxxxxxxx |xxxxxxxxxxxxx |xxxxxxxxxxxxx |xxxxxxxxxxxxx |            1 |            1 |            1 |xxxxxxxxxxxxx |xxxxxxxxxxxxx |xxxxxxxxxxxxx |xxxxxxxxxxxxx |            1 |            1 |            1 |
bpred_bimod.bpred_addr_rate                 0.9768 |       0.9771 |       0.9772 |xxxxxxxxxxxxx |xxxxxxxxxxxxx |xxxxxxxxxxxxx |xxxxxxxxxxxxx |       0.9876 |       0.9878 |       0.9879 |xxxxxxxxxxxxx |xxxxxxxxxxxxx |xxxxxxxxxxxxx |xxxxxxxxxxxxx |       0.9937 |       0.9937 |       0.9938 |xxxxxxxxxxxxx |xxxxxxxxxxxxx |xxxxxxxxxxxxx |xxxxxxxxxxxxx |       0.9968 |       0.9968 |       0.9968 |xxxxxxxxxxxxx |xxxxxxxxxxxxx |xxxxxxxxxxxxx |xxxxxxxxxxxxx |       0.9984 |       0.9984 |       0.9984 |xxxxxxxxxxxxx |xxxxxxxxxxxxx |xxxxxxxxxxxxx |xxxxxxxxxxxxx |       0.9992 |       0.9992 |       0.9992 |xxxxxxxxxxxxx |xxxxxxxxxxxxx |xxxxxxxxxxxxx |xxxxxxxxxxxxx |       0.9996 |       0.9996 |       0.9996 |xxxxxxxxxxxxx |xxxxxxxxxxxxx |xxxxxxxxxxxxx |xxxxxxxxxxxxx |       0.9998 |       0.9998 |       0.9998 |xxxxxxxxxxxxx |xxxxxxxxxxxxx |xxxxxxxxxxxxx |xxxxxxxxxxxxx |       0.9999 |       0.9999 |       0.9999 |xxxxxxxxxxxxx |xxxxxxxxxxxxx |xxxxxxxxxxxxx |xxxxxxxxxxxxx |       0.9999 |       0.9999 |       0.9999 |xxxxxxxxxxxxx |xxxxxxxxxxxxx |xxxxxxxxxxxxx |xxxxxxxxxxxxx |       1.0000 |       1.0000 |       1.0000 |
bpred_bimod.bpred_dir_rate                  0.9886 |       0.9885 |       0.9885 |xxxxxxxxxxxxx |xxxxxxxxxxxxx |xxxxxxxxxxxxx |xxxxxxxxxxxxx |       0.9936 |       0.9939 |       0.9939 |xxxxxxxxxxxxx |xxxxxxxxxxxxx |xxxxxxxxxxxxx |xxxxxxxxxxxxx |       0.9968 |       0.9968 |       0.9969 |xxxxxxxxxxxxx |xxxxxxxxxxxxx |xxxxxxxxxxxxx |xxxxxxxxxxxxx |       0.9983 |       0.9984 |       0.9984 |xxxxxxxxxxxxx |xxxxxxxxxxxxx |xxxxxxxxxxxxx |xxxxxxxxxxxxx |       0.9992 |       0.9992 |       0.9992 |xxxxxxxxxxxxx |xxxxxxxxxxxxx |xxxxxxxxxxxxx |xxxxxxxxxxxxx |       0.9996 |       0.9996 |       0.9996 |xxxxxxxxxxxxx |xxxxxxxxxxxxx |xxxxxxxxxxxxx |xxxxxxxxxxxxx |       0.9998 |       0.9998 |       0.9998 |xxxxxxxxxxxxx |xxxxxxxxxxxxx |xxxxxxxxxxxxx |xxxxxxxxxxxxx |       0.9999 |       0.9999 |       0.9999 |xxxxxxxxxxxxx |xxxxxxxxxxxxx |xxxxxxxxxxxxx |xxxxxxxxxxxxx |       0.9999 |       0.9999 |       0.9999 |xxxxxxxxxxxxx |xxxxxxxxxxxxx |xxxxxxxxxxxxx |xxxxxxxxxxxxx |       1.0000 |       1.0000 |       1.0000 |xxxxxxxxxxxxx |xxxxxxxxxxxxx |xxxxxxxxxxxxx |xxxxxxxxxxxxx |       1.0000 |       1.0000 |       1.0000 |
bpred_bimod.bpred_jr_rate                   0.9859 |       0.9859 |       0.9859 |xxxxxxxxxxxxx |xxxxxxxxxxxxx |xxxxxxxxxxxxx |xxxxxxxxxxxxx |       0.9859 |       0.9859 |       0.9859 |xxxxxxxxxxxxx |xxxxxxxxxxxxx |xxxxxxxxxxxxx |xxxxxxxxxxxxx |       0.9859 |       0.9859 |       0.9859 |xxxxxxxxxxxxx |xxxxxxxxxxxxx |xxxxxxxxxxxxx |xxxxxxxxxxxxx |       0.9859 |       0.9859 |       0.9859 |xxxxxxxxxxxxx |xxxxxxxxxxxxx |xxxxxxxxxxxxx |xxxxxxxxxxxxx |       0.9859 |       0.9859 |       0.9859 |xxxxxxxxxxxxx |xxxxxxxxxxxxx |xxxxxxxxxxxxx |xxxxxxxxxxxxx |       0.9859 |       0.9859 |       0.9859 |xxxxxxxxxxxxx |xxxxxxxxxxxxx |xxxxxxxxxxxxx |xxxxxxxxxxxxx |       0.9859 |       0.9859 |       0.9859 |xxxxxxxxxxxxx |xxxxxxxxxxxxx |xxxxxxxxxxxxx |xxxxxxxxxxxxx |       0.9865 |       0.9865 |       0.9865 |xxxxxxxxxxxxx |xxxxxxxxxxxxx |xxxxxxxxxxxxx |xxxxxxxxxxxxx |       0.9865 |       0.9865 |       0.9865 |xxxxxxxxxxxxx |xxxxxxxxxxxxx |xxxxxxxxxxxxx |xxxxxxxxxxxxx |       0.9865 |       0.9865 |       0.9865 |xxxxxxxxxxxxx |xxxxxxxxxxxxx |xxxxxxxxxxxxx |xxxxxxxxxxxxx |       0.9865 |       0.9865 |       0.9865 |
bpred_bimod.bpred_jr_non_ras_rate.PP       <error: |      <error: |      <error: |xxxxxxxxxxxxx |xxxxxxxxxxxxx |xxxxxxxxxxxxx |xxxxxxxxxxxxx |      <error: |      <error: |      <error: |xxxxxxxxxxxxx |xxxxxxxxxxxxx |xxxxxxxxxxxxx |xxxxxxxxxxxxx |      <error: |      <error: |      <error: |xxxxxxxxxxxxx |xxxxxxxxxxxxx |xxxxxxxxxxxxx |xxxxxxxxxxxxx |      <error: |      <error: |      <error: |xxxxxxxxxxxxx |xxxxxxxxxxxxx |xxxxxxxxxxxxx |xxxxxxxxxxxxx |      <error: |      <error: |      <error: |xxxxxxxxxxxxx |xxxxxxxxxxxxx |xxxxxxxxxxxxx |xxxxxxxxxxxxx |      <error: |      <error: |      <error: |xxxxxxxxxxxxx |xxxxxxxxxxxxx |xxxxxxxxxxxxx |xxxxxxxxxxxxx |      <error: |      <error: |      <error: |xxxxxxxxxxxxx |xxxxxxxxxxxxx |xxxxxxxxxxxxx |xxxxxxxxxxxxx |       0.0000 |       0.0000 |       0.0000 |xxxxxxxxxxxxx |xxxxxxxxxxxxx |xxxxxxxxxxxxx |xxxxxxxxxxxxx |       0.0000 |       0.0000 |       0.0000 |xxxxxxxxxxxxx |xxxxxxxxxxxxx |xxxxxxxxxxxxx |xxxxxxxxxxxxx |       0.0000 |       0.0000 |       0.0000 |xxxxxxxxxxxxx |xxxxxxxxxxxxx |xxxxxxxxxxxxx |xxxxxxxxxxxxx |       0.0000 |       0.0000 |       0.0000 |
bpred_bimod.retstack_pushes                     73 |           73 |           73 |xxxxxxxxxxxxx |xxxxxxxxxxxxx |xxxxxxxxxxxxx |xxxxxxxxxxxxx |           73 |           73 |           73 |xxxxxxxxxxxxx |xxxxxxxxxxxxx |xxxxxxxxxxxxx |xxxxxxxxxxxxx |           73 |           73 |           73 |xxxxxxxxxxxxx |xxxxxxxxxxxxx |xxxxxxxxxxxxx |xxxxxxxxxxxxx |           73 |           73 |           73 |xxxxxxxxxxxxx |xxxxxxxxxxxxx |xxxxxxxxxxxxx |xxxxxxxxxxxxx |           73 |           73 |           73 |xxxxxxxxxxxxx |xxxxxxxxxxxxx |xxxxxxxxxxxxx |xxxxxxxxxxxxx |           73 |           73 |           73 |xxxxxxxxxxxxx |xxxxxxxxxxxxx |xxxxxxxxxxxxx |xxxxxxxxxxxxx |           73 |           73 |           73 |xxxxxxxxxxxxx |xxxxxxxxxxxxx |xxxxxxxxxxxxx |xxxxxxxxxxxxx |           75 |           75 |           75 |xxxxxxxxxxxxx |xxxxxxxxxxxxx |xxxxxxxxxxxxx |xxxxxxxxxxxxx |           75 |           75 |           75 |xxxxxxxxxxxxx |xxxxxxxxxxxxx |xxxxxxxxxxxxx |xxxxxxxxxxxxx |           75 |           75 |           75 |xxxxxxxxxxxxx |xxxxxxxxxxxxx |xxxxxxxxxxxxx |xxxxxxxxxxxxx |           75 |           75 |           75 |
bpred_bimod.retstack_pops                       71 |           71 |           71 |xxxxxxxxxxxxx |xxxxxxxxxxxxx |xxxxxxxxxxxxx |xxxxxxxxxxxxx |           71 |           71 |           71 |xxxxxxxxxxxxx |xxxxxxxxxxxxx |xxxxxxxxxxxxx |xxxxxxxxxxxxx |           71 |           71 |           71 |xxxxxxxxxxxxx |xxxxxxxxxxxxx |xxxxxxxxxxxxx |xxxxxxxxxxxxx |           71 |           71 |           71 |xxxxxxxxxxxxx |xxxxxxxxxxxxx |xxxxxxxxxxxxx |xxxxxxxxxxxxx |           71 |           71 |           71 |xxxxxxxxxxxxx |xxxxxxxxxxxxx |xxxxxxxxxxxxx |xxxxxxxxxxxxx |           71 |           71 |           71 |xxxxxxxxxxxxx |xxxxxxxxxxxxx |xxxxxxxxxxxxx |xxxxxxxxxxxxx |           71 |           71 |           71 |xxxxxxxxxxxxx |xxxxxxxxxxxxx |xxxxxxxxxxxxx |xxxxxxxxxxxxx |           73 |           73 |           73 |xxxxxxxxxxxxx |xxxxxxxxxxxxx |xxxxxxxxxxxxx |xxxxxxxxxxxxx |           73 |           73 |           73 |xxxxxxxxxxxxx |xxxxxxxxxxxxx |xxxxxxxxxxxxx |xxxxxxxxxxxxx |           73 |           73 |           73 |xxxxxxxxxxxxx |xxxxxxxxxxxxx |xxxxxxxxxxxxx |xxxxxxxxxxxxx |           73 |           73 |           73 |
bpred_bimod.used_ras.PP                         71 |           71 |           71 |xxxxxxxxxxxxx |xxxxxxxxxxxxx |xxxxxxxxxxxxx |xxxxxxxxxxxxx |           71 |           71 |           71 |xxxxxxxxxxxxx |xxxxxxxxxxxxx |xxxxxxxxxxxxx |xxxxxxxxxxxxx |           71 |           71 |           71 |xxxxxxxxxxxxx |xxxxxxxxxxxxx |xxxxxxxxxxxxx |xxxxxxxxxxxxx |           71 |           71 |           71 |xxxxxxxxxxxxx |xxxxxxxxxxxxx |xxxxxxxxxxxxx |xxxxxxxxxxxxx |           71 |           71 |           71 |xxxxxxxxxxxxx |xxxxxxxxxxxxx |xxxxxxxxxxxxx |xxxxxxxxxxxxx |           71 |           71 |           71 |xxxxxxxxxxxxx |xxxxxxxxxxxxx |xxxxxxxxxxxxx |xxxxxxxxxxxxx |           71 |           71 |           71 |xxxxxxxxxxxxx |xxxxxxxxxxxxx |xxxxxxxxxxxxx |xxxxxxxxxxxxx |           73 |           73 |           73 |xxxxxxxxxxxxx |xxxxxxxxxxxxx |xxxxxxxxxxxxx |xxxxxxxxxxxxx |           73 |           73 |           73 |xxxxxxxxxxxxx |xxxxxxxxxxxxx |xxxxxxxxxxxxx |xxxxxxxxxxxxx |           73 |           73 |           73 |xxxxxxxxxxxxx |xxxxxxxxxxxxx |xxxxxxxxxxxxx |xxxxxxxxxxxxx |           73 |           73 |           73 |
bpred_bimod.ras_hits.PP                         70 |           70 |           70 |xxxxxxxxxxxxx |xxxxxxxxxxxxx |xxxxxxxxxxxxx |xxxxxxxxxxxxx |           70 |           70 |           70 |xxxxxxxxxxxxx |xxxxxxxxxxxxx |xxxxxxxxxxxxx |xxxxxxxxxxxxx |           70 |           70 |           70 |xxxxxxxxxxxxx |xxxxxxxxxxxxx |xxxxxxxxxxxxx |xxxxxxxxxxxxx |           70 |           70 |           70 |xxxxxxxxxxxxx |xxxxxxxxxxxxx |xxxxxxxxxxxxx |xxxxxxxxxxxxx |           70 |           70 |           70 |xxxxxxxxxxxxx |xxxxxxxxxxxxx |xxxxxxxxxxxxx |xxxxxxxxxxxxx |           70 |           70 |           70 |xxxxxxxxxxxxx |xxxxxxxxxxxxx |xxxxxxxxxxxxx |xxxxxxxxxxxxx |           70 |           70 |           70 |xxxxxxxxxxxxx |xxxxxxxxxxxxx |xxxxxxxxxxxxx |xxxxxxxxxxxxx |           73 |           73 |           73 |xxxxxxxxxxxxx |xxxxxxxxxxxxx |xxxxxxxxxxxxx |xxxxxxxxxxxxx |           73 |           73 |           73 |xxxxxxxxxxxxx |xxxxxxxxxxxxx |xxxxxxxxxxxxx |xxxxxxxxxxxxx |           73 |           73 |           73 |xxxxxxxxxxxxx |xxxxxxxxxxxxx |xxxxxxxxxxxxx |xxxxxxxxxxxxx |           73 |           73 |           73 |
bpred_bimod.ras_rate.PP                     0.9859 |       0.9859 |       0.9859 |xxxxxxxxxxxxx |xxxxxxxxxxxxx |xxxxxxxxxxxxx |xxxxxxxxxxxxx |       0.9859 |       0.9859 |       0.9859 |xxxxxxxxxxxxx |xxxxxxxxxxxxx |xxxxxxxxxxxxx |xxxxxxxxxxxxx |       0.9859 |       0.9859 |       0.9859 |xxxxxxxxxxxxx |xxxxxxxxxxxxx |xxxxxxxxxxxxx |xxxxxxxxxxxxx |       0.9859 |       0.9859 |       0.9859 |xxxxxxxxxxxxx |xxxxxxxxxxxxx |xxxxxxxxxxxxx |xxxxxxxxxxxxx |       0.9859 |       0.9859 |       0.9859 |xxxxxxxxxxxxx |xxxxxxxxxxxxx |xxxxxxxxxxxxx |xxxxxxxxxxxxx |       0.9859 |       0.9859 |       0.9859 |xxxxxxxxxxxxx |xxxxxxxxxxxxx |xxxxxxxxxxxxx |xxxxxxxxxxxxx |       0.9859 |       0.9859 |       0.9859 |xxxxxxxxxxxxx |xxxxxxxxxxxxx |xxxxxxxxxxxxx |xxxxxxxxxxxxx |       1.0000 |       1.0000 |       1.0000 |xxxxxxxxxxxxx |xxxxxxxxxxxxx |xxxxxxxxxxxxx |xxxxxxxxxxxxx |       1.0000 |       1.0000 |       1.0000 |xxxxxxxxxxxxx |xxxxxxxxxxxxx |xxxxxxxxxxxxx |xxxxxxxxxxxxx |       1.0000 |       1.0000 |       1.0000 |xxxxxxxxxxxxx |xxxxxxxxxxxxx |xxxxxxxxxxxxx |xxxxxxxxxxxxx |       1.0000 |       1.0000 |       1.0000 |
bpred_2lev.lookups                   xxxxxxxxxxxxx |xxxxxxxxxxxxx |xxxxxxxxxxxxx |         9292 |         9292 |         9292 |         9292 |xxxxxxxxxxxxx |xxxxxxxxxxxxx |xxxxxxxxxxxxx |        17484 |        17484 |        17484 |        17484 |xxxxxxxxxxxxx |xxxxxxxxxxxxx |xxxxxxxxxxxxx |        33868 |        33868 |        33868 |        33868 |xxxxxxxxxxxxx |xxxxxxxxxxxxx |xxxxxxxxxxxxx |        66636 |        66636 |        66636 |        66636 |xxxxxxxxxxxxx |xxxxxxxxxxxxx |xxxxxxxxxxxxx |       132172 |       132172 |       132172 |       132172 |xxxxxxxxxxxxx |xxxxxxxxxxxxx |xxxxxxxxxxxxx |       263244 |       263244 |       263244 |       263244 |xxxxxxxxxxxxx |xxxxxxxxxxxxx |xxxxxxxxxxxxx |       525388 |       525388 |       525388 |       525388 |xxxxxxxxxxxxx |xxxxxxxxxxxxx |xxxxxxxxxxxxx |      1050469 |      1050469 |      1050469 |      1050469 |xxxxxxxxxxxxx |xxxxxxxxxxxxx |xxxxxxxxxxxxx |      2099045 |      2099045 |      2099045 |      2099045 |xxxxxxxxxxxxx |xxxxxxxxxxxxx |xxxxxxxxxxxxx |      4196968 |      4196968 |      4196968 |      4196968 |xxxxxxxxxxxxx |xxxxxxxxxxxxx |xxxxxxxxxxxxx |      8392811 |      8392811 |      8392811 |      8392811 |
[...]
bpred_2lev.used_ras.PP               xxxxxxxxxxxxx |xxxxxxxxxxxxx |xxxxxxxxxxxxx |           71 |           71 |           71 |           71 |xxxxxxxxxxxxx |xxxxxxxxxxxxx |xxxxxxxxxxxxx |           71 |           71 |           71 |           71 |xxxxxxxxxxxxx |xxxxxxxxxxxxx |xxxxxxxxxxxxx |           71 |           71 |           71 |           71 |xxxxxxxxxxxxx |xxxxxxxxxxxxx |xxxxxxxxxxxxx |           71 |           71 |           71 |           71 |xxxxxxxxxxxxx |xxxxxxxxxxxxx |xxxxxxxxxxxxx |           71 |           71 |           71 |           71 |xxxxxxxxxxxxx |xxxxxxxxxxxxx |xxxxxxxxxxxxx |           71 |           71 |           71 |           71 |xxxxxxxxxxxxx |xxxxxxxxxxxxx |xxxxxxxxxxxxx |           71 |           71 |           71 |           71 |xxxxxxxxxxxxx |xxxxxxxxxxxxx |xxxxxxxxxxxxx |           73 |           73 |           73 |           73 |xxxxxxxxxxxxx |xxxxxxxxxxxxx |xxxxxxxxxxxxx |           73 |           73 |           73 |           73 |xxxxxxxxxxxxx |xxxxxxxxxxxxx |xxxxxxxxxxxxx |           73 |           73 |           73 |           73 |xxxxxxxxxxxxx |xxxxxxxxxxxxx |xxxxxxxxxxxxx |           73 |           73 |           73 |           73 |
bpred_2lev.ras_hits.PP               xxxxxxxxxxxxx |xxxxxxxxxxxxx |xxxxxxxxxxxxx |           70 |           70 |           70 |           70 |xxxxxxxxxxxxx |xxxxxxxxxxxxx |xxxxxxxxxxxxx |           70 |           70 |           70 |           70 |xxxxxxxxxxxxx |xxxxxxxxxxxxx |xxxxxxxxxxxxx |           70 |           70 |           70 |           70 |xxxxxxxxxxxxx |xxxxxxxxxxxxx |xxxxxxxxxxxxx |           70 |           70 |           70 |           70 |xxxxxxxxxxxxx |xxxxxxxxxxxxx |xxxxxxxxxxxxx |           70 |           70 |           70 |           70 |xxxxxxxxxxxxx |xxxxxxxxxxxxx |xxxxxxxxxxxxx |           70 |           70 |           70 |           70 |xxxxxxxxxxxxx |xxxxxxxxxxxxx |xxxxxxxxxxxxx |           70 |           70 |           70 |           70 |xxxxxxxxxxxxx |xxxxxxxxxxxxx |xxxxxxxxxxxxx |           73 |           73 |           73 |           73 |xxxxxxxxxxxxx |xxxxxxxxxxxxx |xxxxxxxxxxxxx |           73 |           73 |           73 |           73 |xxxxxxxxxxxxx |xxxxxxxxxxxxx |xxxxxxxxxxxxx |           73 |           73 |           73 |           73 |xxxxxxxxxxxxx |xxxxxxxxxxxxx |xxxxxxxxxxxxx |           73 |           73 |           73 |           73 |
bpred_2lev.ras_rate.PP               xxxxxxxxxxxxx |xxxxxxxxxxxxx |xxxxxxxxxxxxx |       0.9859 |       0.9859 |       0.9859 |       0.9859 |xxxxxxxxxxxxx |xxxxxxxxxxxxx |xxxxxxxxxxxxx |       0.9859 |       0.9859 |       0.9859 |       0.9859 |xxxxxxxxxxxxx |xxxxxxxxxxxxx |xxxxxxxxxxxxx |       0.9859 |       0.9859 |       0.9859 |       0.9859 |xxxxxxxxxxxxx |xxxxxxxxxxxxx |xxxxxxxxxxxxx |       0.9859 |       0.9859 |       0.9859 |       0.9859 |xxxxxxxxxxxxx |xxxxxxxxxxxxx |xxxxxxxxxxxxx |       0.9859 |       0.9859 |       0.9859 |       0.9859 |xxxxxxxxxxxxx |xxxxxxxxxxxxx |xxxxxxxxxxxxx |       0.9859 |       0.9859 |       0.9859 |       0.9859 |xxxxxxxxxxxxx |xxxxxxxxxxxxx |xxxxxxxxxxxxx |       0.9859 |       0.9859 |       0.9859 |       0.9859 |xxxxxxxxxxxxx |xxxxxxxxxxxxx |xxxxxxxxxxxxx |       1.0000 |       1.0000 |       1.0000 |       1.0000 |xxxxxxxxxxxxx |xxxxxxxxxxxxx |xxxxxxxxxxxxx |       1.0000 |       1.0000 |       1.0000 |       1.0000 |xxxxxxxxxxxxx |xxxxxxxxxxxxx |xxxxxxxxxxxxx |       1.0000 |       1.0000 |       1.0000 |       1.0000 |xxxxxxxxxxxxx |xxxxxxxxxxxxx |xxxxxxxxxxxxx |       1.0000 |       1.0000 |       1.0000 |       1.0000 |

Command list: 
	sslittle-na-sstrix-gcc -Wall -O3 -funroll-loops -finline-functions  -DRANDOM_SIZE=4096 -DOFFSET=1 -DSORT=aligned_memory_tuned_radixsort sorts/aligned_memory_tuned_radixsort646919884.c simpleMain.c -o aligned_memory_tuned_radixsort1879901894
	sim-cache -cache:dl1 dl1:256:32:1:l -cache:dl2 dl2:131072:32:1:l -cache:il1 il1:256:32:1:l -cache:il2 dl2 aligned_memory_tuned_radixsort1879901894
	sim-cache -cache:dl1 dl1:256:32:1:l -cache:dl2 dl2:65536:32:1:l -cache:il1 il1:256:32:1:l -cache:il2 dl2 aligned_memory_tuned_radixsort1879901894
	sim-cache -cache:dl1 dl1:1:32:256:l -cache:dl2 dl2:1:32:131072:l -cache:il1 il1:1:32:256:l -cache:il2 dl2 aligned_memory_tuned_radixsort1879901894
	sim-cache -cache:dl1 dl1:1:32:256:l -cache:dl2 dl2:1:32:65536:l -cache:il1 il1:1:32:256:l -cache:il2 dl2 aligned_memory_tuned_radixsort1879901894
	sim-bpred -bpred bimod -bpred:bimod 512 aligned_memory_tuned_radixsort1879901894
	sim-bpred -bpred bimod -bpred:bimod 1024 aligned_memory_tuned_radixsort1879901894
	sim-bpred -bpred bimod -bpred:bimod 2048 aligned_memory_tuned_radixsort1879901894
	sim-bpred -bpred 2lev -bpred:2lev 1 512 10 1 aligned_memory_tuned_radixsort1879901894
	sim-bpred -bpred 2lev -bpred:2lev 1 1024 10 1 aligned_memory_tuned_radixsort1879901894
	sim-bpred -bpred 2lev -bpred:2lev 1 2048 10 1 aligned_memory_tuned_radixsort1879901894
	sim-bpred -bpred 2lev -bpred:2lev 1 4096 10 1 aligned_memory_tuned_radixsort1879901894
	sslittle-na-sstrix-gcc -Wall -O3 -funroll-loops -finline-functions  -DRANDOM_SIZE=8192 -DOFFSET=1 -DSORT=aligned_memory_tuned_radixsort sorts/aligned_memory_tuned_radixsort646919884.c simpleMain.c -o aligned_memory_tuned_radixsort1879901894
	sim-cache -cache:dl1 dl1:256:32:1:l -cache:dl2 dl2:131072:32:1:l -cache:il1 il1:256:32:1:l -cache:il2 dl2 aligned_memory_tuned_radixsort1879901894
	sim-cache -cache:dl1 dl1:256:32:1:l -cache:dl2 dl2:65536:32:1:l -cache:il1 il1:256:32:1:l -cache:il2 dl2 aligned_memory_tuned_radixsort1879901894
	sim-cache -cache:dl1 dl1:1:32:256:l -cache:dl2 dl2:1:32:131072:l -cache:il1 il1:1:32:256:l -cache:il2 dl2 aligned_memory_tuned_radixsort1879901894
	sim-cache -cache:dl1 dl1:1:32:256:l -cache:dl2 dl2:1:32:65536:l -cache:il1 il1:1:32:256:l -cache:il2 dl2 aligned_memory_tuned_radixsort1879901894
	sim-bpred -bpred bimod -bpred:bimod 512 aligned_memory_tuned_radixsort1879901894
	sim-bpred -bpred bimod -bpred:bimod 1024 aligned_memory_tuned_radixsort1879901894
	sim-bpred -bpred bimod -bpred:bimod 2048 aligned_memory_tuned_radixsort1879901894
	sim-bpred -bpred 2lev -bpred:2lev 1 512 10 1 aligned_memory_tuned_radixsort1879901894
	sim-bpred -bpred 2lev -bpred:2lev 1 1024 10 1 aligned_memory_tuned_radixsort1879901894
	sim-bpred -bpred 2lev -bpred:2lev 1 2048 10 1 aligned_memory_tuned_radixsort1879901894
	sim-bpred -bpred 2lev -bpred:2lev 1 4096 10 1 aligned_memory_tuned_radixsort1879901894
	sslittle-na-sstrix-gcc -Wall -O3 -funroll-loops -finline-functions  -DRANDOM_SIZE=16384 -DOFFSET=1 -DSORT=aligned_memory_tuned_radixsort sorts/aligned_memory_tuned_radixsort646919884.c simpleMain.c -o aligned_memory_tuned_radixsort1879901894
	sim-cache -cache:dl1 dl1:256:32:1:l -cache:dl2 dl2:131072:32:1:l -cache:il1 il1:256:32:1:l -cache:il2 dl2 aligned_memory_tuned_radixsort1879901894
	sim-cache -cache:dl1 dl1:256:32:1:l -cache:dl2 dl2:65536:32:1:l -cache:il1 il1:256:32:1:l -cache:il2 dl2 aligned_memory_tuned_radixsort1879901894
	sim-cache -cache:dl1 dl1:1:32:256:l -cache:dl2 dl2:1:32:131072:l -cache:il1 il1:1:32:256:l -cache:il2 dl2 aligned_memory_tuned_radixsort1879901894
	sim-cache -cache:dl1 dl1:1:32:256:l -cache:dl2 dl2:1:32:65536:l -cache:il1 il1:1:32:256:l -cache:il2 dl2 aligned_memory_tuned_radixsort1879901894
	sim-bpred -bpred bimod -bpred:bimod 512 aligned_memory_tuned_radixsort1879901894
	sim-bpred -bpred bimod -bpred:bimod 1024 aligned_memory_tuned_radixsort1879901894
	sim-bpred -bpred bimod -bpred:bimod 2048 aligned_memory_tuned_radixsort1879901894
	sim-bpred -bpred 2lev -bpred:2lev 1 512 10 1 aligned_memory_tuned_radixsort1879901894
	sim-bpred -bpred 2lev -bpred:2lev 1 1024 10 1 aligned_memory_tuned_radixsort1879901894
	sim-bpred -bpred 2lev -bpred:2lev 1 2048 10 1 aligned_memory_tuned_radixsort1879901894
	sim-bpred -bpred 2lev -bpred:2lev 1 4096 10 1 aligned_memory_tuned_radixsort1879901894
	sslittle-na-sstrix-gcc -Wall -O3 -funroll-loops -finline-functions  -DRANDOM_SIZE=32768 -DOFFSET=1 -DSORT=aligned_memory_tuned_radixsort sorts/aligned_memory_tuned_radixsort646919884.c simpleMain.c -o aligned_memory_tuned_radixsort1879901894
	sim-cache -cache:dl1 dl1:256:32:1:l -cache:dl2 dl2:131072:32:1:l -cache:il1 il1:256:32:1:l -cache:il2 dl2 aligned_memory_tuned_radixsort1879901894
	sim-cache -cache:dl1 dl1:256:32:1:l -cache:dl2 dl2:65536:32:1:l -cache:il1 il1:256:32:1:l -cache:il2 dl2 aligned_memory_tuned_radixsort1879901894
	sim-cache -cache:dl1 dl1:1:32:256:l -cache:dl2 dl2:1:32:131072:l -cache:il1 il1:1:32:256:l -cache:il2 dl2 aligned_memory_tuned_radixsort1879901894
	sim-cache -cache:dl1 dl1:1:32:256:l -cache:dl2 dl2:1:32:65536:l -cache:il1 il1:1:32:256:l -cache:il2 dl2 aligned_memory_tuned_radixsort1879901894
	sim-bpred -bpred bimod -bpred:bimod 512 aligned_memory_tuned_radixsort1879901894
	sim-bpred -bpred bimod -bpred:bimod 1024 aligned_memory_tuned_radixsort1879901894
	sim-bpred -bpred bimod -bpred:bimod 2048 aligned_memory_tuned_radixsort1879901894
	sim-bpred -bpred 2lev -bpred:2lev 1 512 10 1 aligned_memory_tuned_radixsort1879901894
	sim-bpred -bpred 2lev -bpred:2lev 1 1024 10 1 aligned_memory_tuned_radixsort1879901894
	sim-bpred -bpred 2lev -bpred:2lev 1 2048 10 1 aligned_memory_tuned_radixsort1879901894
	sim-bpred -bpred 2lev -bpred:2lev 1 4096 10 1 aligned_memory_tuned_radixsort1879901894
	sslittle-na-sstrix-gcc -Wall -O3 -funroll-loops -finline-functions  -DRANDOM_SIZE=65536 -DOFFSET=1 -DSORT=aligned_memory_tuned_radixsort sorts/aligned_memory_tuned_radixsort646919884.c simpleMain.c -o aligned_memory_tuned_radixsort1879901894
	sim-cache -cache:dl1 dl1:256:32:1:l -cache:dl2 dl2:131072:32:1:l -cache:il1 il1:256:32:1:l -cache:il2 dl2 aligned_memory_tuned_radixsort1879901894
	sim-cache -cache:dl1 dl1:256:32:1:l -cache:dl2 dl2:65536:32:1:l -cache:il1 il1:256:32:1:l -cache:il2 dl2 aligned_memory_tuned_radixsort1879901894
	sim-cache -cache:dl1 dl1:1:32:256:l -cache:dl2 dl2:1:32:131072:l -cache:il1 il1:1:32:256:l -cache:il2 dl2 aligned_memory_tuned_radixsort1879901894
	sim-cache -cache:dl1 dl1:1:32:256:l -cache:dl2 dl2:1:32:65536:l -cache:il1 il1:1:32:256:l -cache:il2 dl2 aligned_memory_tuned_radixsort1879901894
	sim-bpred -bpred bimod -bpred:bimod 512 aligned_memory_tuned_radixsort1879901894
	sim-bpred -bpred bimod -bpred:bimod 1024 aligned_memory_tuned_radixsort1879901894
	sim-bpred -bpred bimod -bpred:bimod 2048 aligned_memory_tuned_radixsort1879901894
	sim-bpred -bpred 2lev -bpred:2lev 1 512 10 1 aligned_memory_tuned_radixsort1879901894
	sim-bpred -bpred 2lev -bpred:2lev 1 1024 10 1 aligned_memory_tuned_radixsort1879901894
	sim-bpred -bpred 2lev -bpred:2lev 1 2048 10 1 aligned_memory_tuned_radixsort1879901894
	sim-bpred -bpred 2lev -bpred:2lev 1 4096 10 1 aligned_memory_tuned_radixsort1879901894
	sslittle-na-sstrix-gcc -Wall -O3 -funroll-loops -finline-functions  -DRANDOM_SIZE=131072 -DOFFSET=1 -DSORT=aligned_memory_tuned_radixsort sorts/aligned_memory_tuned_radixsort646919884.c simpleMain.c -o aligned_memory_tuned_radixsort1879901894
	sim-cache -cache:dl1 dl1:256:32:1:l -cache:dl2 dl2:131072:32:1:l -cache:il1 il1:256:32:1:l -cache:il2 dl2 aligned_memory_tuned_radixsort1879901894
	sim-cache -cache:dl1 dl1:256:32:1:l -cache:dl2 dl2:65536:32:1:l -cache:il1 il1:256:32:1:l -cache:il2 dl2 aligned_memory_tuned_radixsort1879901894
	sim-cache -cache:dl1 dl1:1:32:256:l -cache:dl2 dl2:1:32:131072:l -cache:il1 il1:1:32:256:l -cache:il2 dl2 aligned_memory_tuned_radixsort1879901894
	sim-cache -cache:dl1 dl1:1:32:256:l -cache:dl2 dl2:1:32:65536:l -cache:il1 il1:1:32:256:l -cache:il2 dl2 aligned_memory_tuned_radixsort1879901894
	sim-bpred -bpred bimod -bpred:bimod 512 aligned_memory_tuned_radixsort1879901894
	sim-bpred -bpred bimod -bpred:bimod 1024 aligned_memory_tuned_radixsort1879901894
	sim-bpred -bpred bimod -bpred:bimod 2048 aligned_memory_tuned_radixsort1879901894
	sim-bpred -bpred 2lev -bpred:2lev 1 512 10 1 aligned_memory_tuned_radixsort1879901894
	sim-bpred -bpred 2lev -bpred:2lev 1 1024 10 1 aligned_memory_tuned_radixsort1879901894
	sim-bpred -bpred 2lev -bpred:2lev 1 2048 10 1 aligned_memory_tuned_radixsort1879901894
	sim-bpred -bpred 2lev -bpred:2lev 1 4096 10 1 aligned_memory_tuned_radixsort1879901894
	sslittle-na-sstrix-gcc -Wall -O3 -funroll-loops -finline-functions  -DRANDOM_SIZE=262144 -DOFFSET=1 -DSORT=aligned_memory_tuned_radixsort sorts/aligned_memory_tuned_radixsort646919884.c simpleMain.c -o aligned_memory_tuned_radixsort1879901894
	sim-cache -cache:dl1 dl1:256:32:1:l -cache:dl2 dl2:131072:32:1:l -cache:il1 il1:256:32:1:l -cache:il2 dl2 aligned_memory_tuned_radixsort1879901894
	sim-cache -cache:dl1 dl1:256:32:1:l -cache:dl2 dl2:65536:32:1:l -cache:il1 il1:256:32:1:l -cache:il2 dl2 aligned_memory_tuned_radixsort1879901894
	sim-cache -cache:dl1 dl1:1:32:256:l -cache:dl2 dl2:1:32:131072:l -cache:il1 il1:1:32:256:l -cache:il2 dl2 aligned_memory_tuned_radixsort1879901894
	sim-cache -cache:dl1 dl1:1:32:256:l -cache:dl2 dl2:1:32:65536:l -cache:il1 il1:1:32:256:l -cache:il2 dl2 aligned_memory_tuned_radixsort1879901894
	sim-bpred -bpred bimod -bpred:bimod 512 aligned_memory_tuned_radixsort1879901894
	sim-bpred -bpred bimod -bpred:bimod 1024 aligned_memory_tuned_radixsort1879901894
	sim-bpred -bpred bimod -bpred:bimod 2048 aligned_memory_tuned_radixsort1879901894
	sim-bpred -bpred 2lev -bpred:2lev 1 512 10 1 aligned_memory_tuned_radixsort1879901894
	sim-bpred -bpred 2lev -bpred:2lev 1 1024 10 1 aligned_memory_tuned_radixsort1879901894
	sim-bpred -bpred 2lev -bpred:2lev 1 2048 10 1 aligned_memory_tuned_radixsort1879901894
	sim-bpred -bpred 2lev -bpred:2lev 1 4096 10 1 aligned_memory_tuned_radixsort1879901894
	sslittle-na-sstrix-gcc -Wall -O3 -funroll-loops -finline-functions  -DRANDOM_SIZE=524288 -DOFFSET=1 -DSORT=aligned_memory_tuned_radixsort sorts/aligned_memory_tuned_radixsort646919884.c simpleMain.c -o aligned_memory_tuned_radixsort1879901894
	sim-cache -cache:dl1 dl1:256:32:1:l -cache:dl2 dl2:131072:32:1:l -cache:il1 il1:256:32:1:l -cache:il2 dl2 aligned_memory_tuned_radixsort1879901894
	sim-cache -cache:dl1 dl1:256:32:1:l -cache:dl2 dl2:65536:32:1:l -cache:il1 il1:256:32:1:l -cache:il2 dl2 aligned_memory_tuned_radixsort1879901894
	sim-cache -cache:dl1 dl1:1:32:256:l -cache:dl2 dl2:1:32:131072:l -cache:il1 il1:1:32:256:l -cache:il2 dl2 aligned_memory_tuned_radixsort1879901894
	sim-cache -cache:dl1 dl1:1:32:256:l -cache:dl2 dl2:1:32:65536:l -cache:il1 il1:1:32:256:l -cache:il2 dl2 aligned_memory_tuned_radixsort1879901894
	sim-bpred -bpred bimod -bpred:bimod 512 aligned_memory_tuned_radixsort1879901894
	sim-bpred -bpred bimod -bpred:bimod 1024 aligned_memory_tuned_radixsort1879901894
	sim-bpred -bpred bimod -bpred:bimod 2048 aligned_memory_tuned_radixsort1879901894
	sim-bpred -bpred 2lev -bpred:2lev 1 512 10 1 aligned_memory_tuned_radixsort1879901894
	sim-bpred -bpred 2lev -bpred:2lev 1 1024 10 1 aligned_memory_tuned_radixsort1879901894
	sim-bpred -bpred 2lev -bpred:2lev 1 2048 10 1 aligned_memory_tuned_radixsort1879901894
	sim-bpred -bpred 2lev -bpred:2lev 1 4096 10 1 aligned_memory_tuned_radixsort1879901894
	sslittle-na-sstrix-gcc -Wall -O3 -funroll-loops -finline-functions  -DRANDOM_SIZE=1048576 -DOFFSET=1 -DSORT=aligned_memory_tuned_radixsort sorts/aligned_memory_tuned_radixsort646919884.c simpleMain.c -o aligned_memory_tuned_radixsort1879901894
	sim-cache -cache:dl1 dl1:256:32:1:l -cache:dl2 dl2:131072:32:1:l -cache:il1 il1:256:32:1:l -cache:il2 dl2 aligned_memory_tuned_radixsort1879901894
	sim-cache -cache:dl1 dl1:256:32:1:l -cache:dl2 dl2:65536:32:1:l -cache:il1 il1:256:32:1:l -cache:il2 dl2 aligned_memory_tuned_radixsort1879901894
	sim-cache -cache:dl1 dl1:1:32:256:l -cache:dl2 dl2:1:32:131072:l -cache:il1 il1:1:32:256:l -cache:il2 dl2 aligned_memory_tuned_radixsort1879901894
	sim-cache -cache:dl1 dl1:1:32:256:l -cache:dl2 dl2:1:32:65536:l -cache:il1 il1:1:32:256:l -cache:il2 dl2 aligned_memory_tuned_radixsort1879901894
	sim-bpred -bpred bimod -bpred:bimod 512 aligned_memory_tuned_radixsort1879901894
	sim-bpred -bpred bimod -bpred:bimod 1024 aligned_memory_tuned_radixsort1879901894
	sim-bpred -bpred bimod -bpred:bimod 2048 aligned_memory_tuned_radixsort1879901894
	sim-bpred -bpred 2lev -bpred:2lev 1 512 10 1 aligned_memory_tuned_radixsort1879901894
	sim-bpred -bpred 2lev -bpred:2lev 1 1024 10 1 aligned_memory_tuned_radixsort1879901894
	sim-bpred -bpred 2lev -bpred:2lev 1 2048 10 1 aligned_memory_tuned_radixsort1879901894
	sim-bpred -bpred 2lev -bpred:2lev 1 4096 10 1 aligned_memory_tuned_radixsort1879901894
	sslittle-na-sstrix-gcc -Wall -O3 -funroll-loops -finline-functions  -DRANDOM_SIZE=2097152 -DOFFSET=1 -DSORT=aligned_memory_tuned_radixsort sorts/aligned_memory_tuned_radixsort646919884.c simpleMain.c -o aligned_memory_tuned_radixsort1879901894
	sim-cache -cache:dl1 dl1:256:32:1:l -cache:dl2 dl2:131072:32:1:l -cache:il1 il1:256:32:1:l -cache:il2 dl2 aligned_memory_tuned_radixsort1879901894
	sim-cache -cache:dl1 dl1:256:32:1:l -cache:dl2 dl2:65536:32:1:l -cache:il1 il1:256:32:1:l -cache:il2 dl2 aligned_memory_tuned_radixsort1879901894
	sim-cache -cache:dl1 dl1:1:32:256:l -cache:dl2 dl2:1:32:131072:l -cache:il1 il1:1:32:256:l -cache:il2 dl2 aligned_memory_tuned_radixsort1879901894
	sim-cache -cache:dl1 dl1:1:32:256:l -cache:dl2 dl2:1:32:65536:l -cache:il1 il1:1:32:256:l -cache:il2 dl2 aligned_memory_tuned_radixsort1879901894
	sim-bpred -bpred bimod -bpred:bimod 512 aligned_memory_tuned_radixsort1879901894
	sim-bpred -bpred bimod -bpred:bimod 1024 aligned_memory_tuned_radixsort1879901894
	sim-bpred -bpred bimod -bpred:bimod 2048 aligned_memory_tuned_radixsort1879901894
	sim-bpred -bpred 2lev -bpred:2lev 1 512 10 1 aligned_memory_tuned_radixsort1879901894
	sim-bpred -bpred 2lev -bpred:2lev 1 1024 10 1 aligned_memory_tuned_radixsort1879901894
	sim-bpred -bpred 2lev -bpred:2lev 1 2048 10 1 aligned_memory_tuned_radixsort1879901894
	sim-bpred -bpred 2lev -bpred:2lev 1 4096 10 1 aligned_memory_tuned_radixsort1879901894
	sslittle-na-sstrix-gcc -Wall -O3 -funroll-loops -finline-functions  -DRANDOM_SIZE=4194304 -DOFFSET=1 -DSORT=aligned_memory_tuned_radixsort sorts/aligned_memory_tuned_radixsort646919884.c simpleMain.c -o aligned_memory_tuned_radixsort1879901894
	sim-cache -cache:dl1 dl1:256:32:1:l -cache:dl2 dl2:131072:32:1:l -cache:il1 il1:256:32:1:l -cache:il2 dl2 aligned_memory_tuned_radixsort1879901894
	sim-cache -cache:dl1 dl1:256:32:1:l -cache:dl2 dl2:65536:32:1:l -cache:il1 il1:256:32:1:l -cache:il2 dl2 aligned_memory_tuned_radixsort1879901894
	sim-cache -cache:dl1 dl1:1:32:256:l -cache:dl2 dl2:1:32:131072:l -cache:il1 il1:1:32:256:l -cache:il2 dl2 aligned_memory_tuned_radixsort1879901894
	sim-cache -cache:dl1 dl1:1:32:256:l -cache:dl2 dl2:1:32:65536:l -cache:il1 il1:1:32:256:l -cache:il2 dl2 aligned_memory_tuned_radixsort1879901894
	sim-bpred -bpred bimod -bpred:bimod 512 aligned_memory_tuned_radixsort1879901894
	sim-bpred -bpred bimod -bpred:bimod 1024 aligned_memory_tuned_radixsort1879901894
	sim-bpred -bpred bimod -bpred:bimod 2048 aligned_memory_tuned_radixsort1879901894
	sim-bpred -bpred 2lev -bpred:2lev 1 512 10 1 aligned_memory_tuned_radixsort1879901894
	sim-bpred -bpred 2lev -bpred:2lev 1 1024 10 1 aligned_memory_tuned_radixsort1879901894
	sim-bpred -bpred 2lev -bpred:2lev 1 2048 10 1 aligned_memory_tuned_radixsort1879901894
	sim-bpred -bpred 2lev -bpred:2lev 1 4096 10 1 aligned_memory_tuned_radixsort1879901894
