Wed Jun 22 23:59:47 2005
Run as: "./do_simple -c random.org0 -o 0 aligned_memory_tuned_radixsort"
-------------------------------------------------------------------------------------------------
sim-cache                                     4096 |         4096 |         4096 |         4096 |         8192 |         8192 |         8192 |         8192 |        16384 |        16384 |        16384 |        16384 |        32768 |        32768 |        32768 |        32768 |        65536 |        65536 |        65536 |        65536 |       131072 |       131072 |       131072 |       131072 |       262144 |       262144 |       262144 |       262144 |       524288 |       524288 |       524288 |       524288 |      1048576 |      1048576 |      1048576 |      1048576 |      2097152 |      2097152 |      2097152 |      2097152 |      4194304 |      4194304 |      4194304 |      4194304 |
-cache:dl1 dl1:256:32:1:l -cache:dl2 dl2:131072:32:1:l -cache:il1 il1:256:32:1:l -cache:il2 dl2
-cache:dl1 dl1:256:32:1:l -cache:dl2 dl2:65536:32:1:l -cache:il1 il1:256:32:1:l -cache:il2 dl2
-cache:dl1 dl1:1:32:256:l -cache:dl2 dl2:1:32:131072:l -cache:il1 il1:1:32:256:l -cache:il2 dl2
-cache:dl1 dl1:1:32:256:l -cache:dl2 dl2:1:32:65536:l -cache:il1 il1:1:32:256:l -cache:il2 dl2
-------------------------------------------------------------------------------------------------
sim_num_insn                                378846 |       378846 |       378846 |       378846 |       744418 |       744418 |       744418 |       744418 |      1475556 |      1475556 |      1475556 |      1475556 |      2937829 |      2937829 |      2937829 |      2937829 |      5862373 |      5862373 |      5862373 |      5862373 |     11711462 |     11711462 |     11711462 |     11711462 |     23409638 |     23409638 |     23409638 |     23409638 |     46818466 |     46818466 |     46818466 |     46818466 |     93611170 |     93611170 |     93611170 |     93611170 |    187205802 |    187205802 |    187205802 |    187205802 |    374395058 |    374395058 |    374395058 |    374395058 |
sim_num_refs                                138963 |       138963 |       138963 |       138963 |       270035 |       270035 |       270035 |       270035 |       532179 |       532179 |       532179 |       532179 |      1056467 |      1056467 |      1056467 |      1056467 |      2105043 |      2105043 |      2105043 |      2105043 |      4202195 |      4202195 |      4202195 |      4202195 |      8396499 |      8396499 |      8396499 |      8396499 |     16794369 |     16794369 |     16794369 |     16794369 |     33571585 |     33571585 |     33571585 |     33571585 |     67132161 |     67132161 |     67132161 |     67132161 |    134253313 |    134253313 |    134253313 |    134253313 |
sim_elapsed_time                                 1 |            1 |            9 |            5 |            1 |            1 |           15 |            7 |            1 |            1 |           24 |           12 |            1 |            1 |           43 |           22 |            2 |            2 |           81 |           39 |            3 |            4 |          147 |           66 |            7 |            7 |          251 |           89 |           14 |           14 |          338 |           96 |           28 |           29 |          351 |          112 |           57 |           57 |          385 |          144 |          113 |          113 |          450 |          211 |
sim_inst_rate                          378846.0000 |  378846.0000 |   42094.0000 |   75769.2000 |  744418.0000 |  744418.0000 |   49627.8667 |  106345.4286 | 1475556.0000 | 1475556.0000 |   61481.5000 |  122963.0000 | 2937829.0000 | 2937829.0000 |   68321.6047 |  133537.6818 | 2931186.5000 | 2931186.5000 |   72374.9753 |  150317.2564 | 3903820.6667 | 2927865.5000 |   79669.8095 |  177446.3939 | 3344234.0000 | 3344234.0000 |   93265.4900 |  263029.6404 | 3344176.1429 | 3344176.1429 |  138516.1716 |  487692.3542 | 3343256.0714 | 3227971.3793 |  266698.4900 |  835814.0179 | 3284312.3158 | 3284312.3158 |  486248.8364 | 1300040.2917 | 3313230.6018 | 3313230.6018 |  831989.0178 | 1774384.1611 |
il1.accesses                                378846 |       378846 |       378846 |       378846 |       744418 |       744418 |       744418 |       744418 |      1475556 |      1475556 |      1475556 |      1475556 |      2937829 |      2937829 |      2937829 |      2937829 |      5862373 |      5862373 |      5862373 |      5862373 |     11711462 |     11711462 |     11711462 |     11711462 |     23409638 |     23409638 |     23409638 |     23409638 |     46818466 |     46818466 |     46818466 |     46818466 |     93611170 |     93611170 |     93611170 |     93611170 |    187205802 |    187205802 |    187205802 |    187205802 |    374395058 |    374395058 |    374395058 |    374395058 |
il1.hits                                    378317 |       378317 |       378415 |       378415 |       743884 |       743884 |       743984 |       743984 |      1475016 |      1475016 |      1475122 |      1475122 |      2937290 |      2937290 |      2937396 |      2937396 |      5861834 |      5861834 |      5861940 |      5861940 |     11710928 |     11710928 |     11711028 |     11711028 |     23409104 |     23409104 |     23409204 |     23409204 |     46817889 |     46817889 |     46817996 |     46817996 |     93610593 |     93610593 |     93610700 |     93610700 |    187205225 |    187205225 |    187205332 |    187205332 |    374394481 |    374394481 |    374394588 |    374394588 |
il1.misses                                     529 |          529 |          431 |          431 |          534 |          534 |          434 |          434 |          540 |          540 |          434 |          434 |          539 |          539 |          433 |          433 |          539 |          539 |          433 |          433 |          534 |          534 |          434 |          434 |          534 |          534 |          434 |          434 |          577 |          577 |          470 |          470 |          577 |          577 |          470 |          470 |          577 |          577 |          470 |          470 |          577 |          577 |          470 |          470 |
il1.replacements                               310 |          310 |          175 |          175 |          316 |          316 |          178 |          178 |          318 |          318 |          178 |          178 |          317 |          317 |          177 |          177 |          317 |          317 |          177 |          177 |          318 |          318 |          178 |          178 |          318 |          318 |          178 |          178 |          350 |          350 |          214 |          214 |          350 |          350 |          214 |          214 |          350 |          350 |          214 |          214 |          350 |          350 |          214 |          214 |
il1.writebacks                                   0 |            0 |            0 |            0 |            0 |            0 |            0 |            0 |            0 |            0 |            0 |            0 |            0 |            0 |            0 |            0 |            0 |            0 |            0 |            0 |            0 |            0 |            0 |            0 |            0 |            0 |            0 |            0 |            0 |            0 |            0 |            0 |            0 |            0 |            0 |            0 |            0 |            0 |            0 |            0 |            0 |            0 |            0 |            0 |
il1.invalidations                                0 |            0 |            0 |            0 |            0 |            0 |            0 |            0 |            0 |            0 |            0 |            0 |            0 |            0 |            0 |            0 |            0 |            0 |            0 |            0 |            0 |            0 |            0 |            0 |            0 |            0 |            0 |            0 |            0 |            0 |            0 |            0 |            0 |            0 |            0 |            0 |            0 |            0 |            0 |            0 |            0 |            0 |            0 |            0 |
il1.miss_rate                               0.0014 |       0.0014 |       0.0011 |       0.0011 |       0.0007 |       0.0007 |       0.0006 |       0.0006 |       0.0004 |       0.0004 |       0.0003 |       0.0003 |       0.0002 |       0.0002 |       0.0001 |       0.0001 |       0.0001 |       0.0001 |       0.0001 |       0.0001 |       0.0000 |       0.0000 |       0.0000 |       0.0000 |       0.0000 |       0.0000 |       0.0000 |       0.0000 |       0.0000 |       0.0000 |       0.0000 |       0.0000 |       0.0000 |       0.0000 |       0.0000 |       0.0000 |       0.0000 |       0.0000 |       0.0000 |       0.0000 |       0.0000 |       0.0000 |       0.0000 |       0.0000 |
il1.repl_rate                               0.0008 |       0.0008 |       0.0005 |       0.0005 |       0.0004 |       0.0004 |       0.0002 |       0.0002 |       0.0002 |       0.0002 |       0.0001 |       0.0001 |       0.0001 |       0.0001 |       0.0001 |       0.0001 |       0.0001 |       0.0001 |       0.0000 |       0.0000 |       0.0000 |       0.0000 |       0.0000 |       0.0000 |       0.0000 |       0.0000 |       0.0000 |       0.0000 |       0.0000 |       0.0000 |       0.0000 |       0.0000 |       0.0000 |       0.0000 |       0.0000 |       0.0000 |       0.0000 |       0.0000 |       0.0000 |       0.0000 |       0.0000 |       0.0000 |       0.0000 |       0.0000 |
il1.wb_rate                                 0.0000 |       0.0000 |       0.0000 |       0.0000 |       0.0000 |       0.0000 |       0.0000 |       0.0000 |       0.0000 |       0.0000 |       0.0000 |       0.0000 |       0.0000 |       0.0000 |       0.0000 |       0.0000 |       0.0000 |       0.0000 |       0.0000 |       0.0000 |       0.0000 |       0.0000 |       0.0000 |       0.0000 |       0.0000 |       0.0000 |       0.0000 |       0.0000 |       0.0000 |       0.0000 |       0.0000 |       0.0000 |       0.0000 |       0.0000 |       0.0000 |       0.0000 |       0.0000 |       0.0000 |       0.0000 |       0.0000 |       0.0000 |       0.0000 |       0.0000 |       0.0000 |
il1.inv_rate                                0.0000 |       0.0000 |       0.0000 |       0.0000 |       0.0000 |       0.0000 |       0.0000 |       0.0000 |       0.0000 |       0.0000 |       0.0000 |       0.0000 |       0.0000 |       0.0000 |       0.0000 |       0.0000 |       0.0000 |       0.0000 |       0.0000 |       0.0000 |       0.0000 |       0.0000 |       0.0000 |       0.0000 |       0.0000 |       0.0000 |       0.0000 |       0.0000 |       0.0000 |       0.0000 |       0.0000 |       0.0000 |       0.0000 |       0.0000 |       0.0000 |       0.0000 |       0.0000 |       0.0000 |       0.0000 |       0.0000 |       0.0000 |       0.0000 |       0.0000 |       0.0000 |
dl1.accesses                                155429 |       155429 |       155429 |       155429 |       302885 |       302885 |       302885 |       302885 |       597797 |       597797 |       597797 |       597797 |      1187621 |      1187621 |      1187621 |      1187621 |      2367269 |      2367269 |      2367269 |      2367269 |      4726565 |      4726565 |      4726565 |      4726565 |      9445157 |      9445157 |      9445157 |      9445157 |     18891603 |     18891603 |     18891603 |     18891603 |     37765971 |     37765971 |     37765971 |     37765971 |     75520851 |     75520851 |     75520851 |     75520851 |    151030611 |    151030611 |    151030611 |    151030611 |
dl1.hits                                    139070 |       139070 |       144041 |       144041 |       269294 |       269294 |       280779 |       280779 |       531704 |       531704 |       554230 |       554230 |      1053207 |      1053207 |      1101383 |      1101383 |      2097397 |      2097397 |      2195298 |      2195298 |      4157612 |      4157612 |      4383586 |      4383586 |      8262032 |      8262032 |      8759324 |      8759324 |     16466831 |     16466831 |     17520279 |     17520279 |     33158578 |     33158578 |     35024435 |     35024435 |     66664141 |     66664141 |     70038418 |     70038418 |    133659508 |    133659508 |    140062072 |    140062072 |
dl1.misses                                   16359 |        16359 |        11388 |        11388 |        33591 |        33591 |        22106 |        22106 |        66093 |        66093 |        43567 |        43567 |       134414 |       134414 |        86238 |        86238 |       269872 |       269872 |       171971 |       171971 |       568953 |       568953 |       342979 |       342979 |      1183125 |      1183125 |       685833 |       685833 |      2424772 |      2424772 |      1371324 |      1371324 |      4607393 |      4607393 |      2741536 |      2741536 |      8856710 |      8856710 |      5482433 |      5482433 |     17371103 |     17371103 |     10968539 |     10968539 |
dl1.replacements                             16103 |        16103 |        11132 |        11132 |        33335 |        33335 |        21850 |        21850 |        65837 |        65837 |        43311 |        43311 |       134158 |       134158 |        85982 |        85982 |       269616 |       269616 |       171715 |       171715 |       568697 |       568697 |       342723 |       342723 |      1182869 |      1182869 |       685577 |       685577 |      2424516 |      2424516 |      1371068 |      1371068 |      4607137 |      4607137 |      2741280 |      2741280 |      8856454 |      8856454 |      5482177 |      5482177 |     17370847 |     17370847 |     10968283 |     10968283 |
dl1.writebacks                               13457 |        13457 |         8614 |         8614 |        27926 |        27926 |        16755 |        16755 |        54911 |        54911 |        33089 |        33089 |       112204 |       112204 |        65518 |        65518 |       225825 |       225825 |       130770 |       130770 |       480950 |       480950 |       260817 |       260817 |      1007535 |      1007535 |       521753 |       521753 |      2073191 |      2073191 |      1043014 |      1043014 |      3904652 |      3904652 |      2085546 |      2085546 |      7451886 |      7451886 |      4171084 |      4171084 |     14562979 |     14562979 |      8346469 |      8346469 |
dl1.invalidations                                0 |            0 |            0 |            0 |            0 |            0 |            0 |            0 |            0 |            0 |            0 |            0 |            0 |            0 |            0 |            0 |            0 |            0 |            0 |            0 |            0 |            0 |            0 |            0 |            0 |            0 |            0 |            0 |            0 |            0 |            0 |            0 |            0 |            0 |            0 |            0 |            0 |            0 |            0 |            0 |            0 |            0 |            0 |            0 |
dl1.miss_rate                               0.1053 |       0.1053 |       0.0733 |       0.0733 |       0.1109 |       0.1109 |       0.0730 |       0.0730 |       0.1106 |       0.1106 |       0.0729 |       0.0729 |       0.1132 |       0.1132 |       0.0726 |       0.0726 |       0.1140 |       0.1140 |       0.0726 |       0.0726 |       0.1204 |       0.1204 |       0.0726 |       0.0726 |       0.1253 |       0.1253 |       0.0726 |       0.0726 |       0.1284 |       0.1284 |       0.0726 |       0.0726 |       0.1220 |       0.1220 |       0.0726 |       0.0726 |       0.1173 |       0.1173 |       0.0726 |       0.0726 |       0.1150 |       0.1150 |       0.0726 |       0.0726 |
dl1.repl_rate                               0.1036 |       0.1036 |       0.0716 |       0.0716 |       0.1101 |       0.1101 |       0.0721 |       0.0721 |       0.1101 |       0.1101 |       0.0725 |       0.0725 |       0.1130 |       0.1130 |       0.0724 |       0.0724 |       0.1139 |       0.1139 |       0.0725 |       0.0725 |       0.1203 |       0.1203 |       0.0725 |       0.0725 |       0.1252 |       0.1252 |       0.0726 |       0.0726 |       0.1283 |       0.1283 |       0.0726 |       0.0726 |       0.1220 |       0.1220 |       0.0726 |       0.0726 |       0.1173 |       0.1173 |       0.0726 |       0.0726 |       0.1150 |       0.1150 |       0.0726 |       0.0726 |
dl1.wb_rate                                 0.0866 |       0.0866 |       0.0554 |       0.0554 |       0.0922 |       0.0922 |       0.0553 |       0.0553 |       0.0919 |       0.0919 |       0.0554 |       0.0554 |       0.0945 |       0.0945 |       0.0552 |       0.0552 |       0.0954 |       0.0954 |       0.0552 |       0.0552 |       0.1018 |       0.1018 |       0.0552 |       0.0552 |       0.1067 |       0.1067 |       0.0552 |       0.0552 |       0.1097 |       0.1097 |       0.0552 |       0.0552 |       0.1034 |       0.1034 |       0.0552 |       0.0552 |       0.0987 |       0.0987 |       0.0552 |       0.0552 |       0.0964 |       0.0964 |       0.0553 |       0.0553 |
dl1.inv_rate                                0.0000 |       0.0000 |       0.0000 |       0.0000 |       0.0000 |       0.0000 |       0.0000 |       0.0000 |       0.0000 |       0.0000 |       0.0000 |       0.0000 |       0.0000 |       0.0000 |       0.0000 |       0.0000 |       0.0000 |       0.0000 |       0.0000 |       0.0000 |       0.0000 |       0.0000 |       0.0000 |       0.0000 |       0.0000 |       0.0000 |       0.0000 |       0.0000 |       0.0000 |       0.0000 |       0.0000 |       0.0000 |       0.0000 |       0.0000 |       0.0000 |       0.0000 |       0.0000 |       0.0000 |       0.0000 |       0.0000 |       0.0000 |       0.0000 |       0.0000 |       0.0000 |
dl2.accesses                                 30345 |        30345 |        20433 |        20433 |        62051 |        62051 |        39295 |        39295 |       121544 |       121544 |        77090 |        77090 |       247157 |       247157 |       152189 |       152189 |       496236 |       496236 |       303174 |       303174 |      1050437 |      1050437 |       604230 |       604230 |      2191194 |      2191194 |      1208020 |      1208020 |      4498540 |      4498540 |      2414808 |      2414808 |      8512622 |      8512622 |      4827552 |      4827552 |     16309173 |     16309173 |      9653987 |      9653987 |     31934659 |     31934659 |     19315478 |     19315478 |
dl2.hits                                     28429 |        28429 |        18534 |        18534 |        59107 |        59107 |        36370 |        36370 |       116553 |       116553 |        72116 |        72116 |       238071 |       238071 |       143120 |       143120 |       478958 |       478958 |       285913 |       285913 |      1016770 |      1016770 |       570585 |       570585 |      2124759 |      2123775 |      1141607 |      1139246 |      4205823 |      4012920 |      2279135 |      1816599 |      7549544 |      7214753 |      3633863 |      3540617 |     13748051 |     13638280 |      7082105 |      7041369 |     26650909 |     26497055 |     14092415 |     14073259 |
dl2.misses                                    1916 |         1916 |         1899 |         1899 |         2944 |         2944 |         2925 |         2925 |         4991 |         4991 |         4974 |         4974 |         9086 |         9086 |         9069 |         9069 |        17278 |        17278 |        17261 |        17261 |        33667 |        33667 |        33645 |        33645 |        66435 |        67419 |        66413 |        68774 |       292717 |       485620 |       135673 |       598209 |       963078 |      1297869 |      1193689 |      1286935 |      2561122 |      2670893 |      2571882 |      2612618 |      5283750 |      5437604 |      5223063 |      5242219 |
dl2.replacements                               130 |          130 |            0 |            0 |          130 |          130 |            0 |            0 |          128 |          128 |            0 |            0 |          128 |          128 |            0 |            0 |          128 |          128 |            0 |            0 |          133 |          133 |            0 |            0 |          133 |         1940 |            0 |         3238 |       192905 |       420084 |         4601 |       532673 |       832006 |      1232333 |      1062617 |      1221399 |      2430050 |      2605357 |      2440810 |      2547082 |      5152678 |      5372068 |      5091991 |      5176683 |
dl2.writebacks                                  66 |           66 |            0 |            0 |           65 |           65 |            0 |            0 |           64 |           64 |            0 |            0 |           64 |           64 |            0 |            0 |           64 |           64 |            0 |            0 |           64 |           64 |            0 |            0 |           64 |         1173 |            0 |         3000 |       158126 |       301233 |         4292 |       297010 |       596109 |       651259 |       591916 |       624730 |      1292520 |      1359873 |      1248079 |      1280936 |      2654455 |      2805469 |      2560361 |      2593306 |
dl2.invalidations                                0 |            0 |            0 |            0 |            0 |            0 |            0 |            0 |            0 |            0 |            0 |            0 |            0 |            0 |            0 |            0 |            0 |            0 |            0 |            0 |            0 |            0 |            0 |            0 |            0 |            0 |            0 |            0 |            0 |            0 |            0 |            0 |            0 |            0 |            0 |            0 |            0 |            0 |            0 |            0 |            0 |            0 |            0 |            0 |
dl2.miss_rate                               0.0631 |       0.0631 |       0.0929 |       0.0929 |       0.0474 |       0.0474 |       0.0744 |       0.0744 |       0.0411 |       0.0411 |       0.0645 |       0.0645 |       0.0368 |       0.0368 |       0.0596 |       0.0596 |       0.0348 |       0.0348 |       0.0569 |       0.0569 |       0.0321 |       0.0321 |       0.0557 |       0.0557 |       0.0303 |       0.0308 |       0.0550 |       0.0569 |       0.0651 |       0.1080 |       0.0562 |       0.2477 |       0.1131 |       0.1525 |       0.2473 |       0.2666 |       0.1570 |       0.1638 |       0.2664 |       0.2706 |       0.1655 |       0.1703 |       0.2704 |       0.2714 |
dl2.repl_rate                               0.0043 |       0.0043 |       0.0000 |       0.0000 |       0.0021 |       0.0021 |       0.0000 |       0.0000 |       0.0011 |       0.0011 |       0.0000 |       0.0000 |       0.0005 |       0.0005 |       0.0000 |       0.0000 |       0.0003 |       0.0003 |       0.0000 |       0.0000 |       0.0001 |       0.0001 |       0.0000 |       0.0000 |       0.0001 |       0.0009 |       0.0000 |       0.0027 |       0.0429 |       0.0934 |       0.0019 |       0.2206 |       0.0977 |       0.1448 |       0.2201 |       0.2530 |       0.1490 |       0.1597 |       0.2528 |       0.2638 |       0.1614 |       0.1682 |       0.2636 |       0.2680 |
dl2.wb_rate                                 0.0022 |       0.0022 |       0.0000 |       0.0000 |       0.0010 |       0.0010 |       0.0000 |       0.0000 |       0.0005 |       0.0005 |       0.0000 |       0.0000 |       0.0003 |       0.0003 |       0.0000 |       0.0000 |       0.0001 |       0.0001 |       0.0000 |       0.0000 |       0.0001 |       0.0001 |       0.0000 |       0.0000 |       0.0000 |       0.0005 |       0.0000 |       0.0025 |       0.0352 |       0.0670 |       0.0018 |       0.1230 |       0.0700 |       0.0765 |       0.1226 |       0.1294 |       0.0793 |       0.0834 |       0.1293 |       0.1327 |       0.0831 |       0.0879 |       0.1326 |       0.1343 |
dl2.inv_rate                                0.0000 |       0.0000 |       0.0000 |       0.0000 |       0.0000 |       0.0000 |       0.0000 |       0.0000 |       0.0000 |       0.0000 |       0.0000 |       0.0000 |       0.0000 |       0.0000 |       0.0000 |       0.0000 |       0.0000 |       0.0000 |       0.0000 |       0.0000 |       0.0000 |       0.0000 |       0.0000 |       0.0000 |       0.0000 |       0.0000 |       0.0000 |       0.0000 |       0.0000 |       0.0000 |       0.0000 |       0.0000 |       0.0000 |       0.0000 |       0.0000 |       0.0000 |       0.0000 |       0.0000 |       0.0000 |       0.0000 |       0.0000 |       0.0000 |       0.0000 |       0.0000 |
itlb.accesses                               378846 |       378846 |       378846 |       378846 |       744418 |       744418 |       744418 |       744418 |      1475556 |      1475556 |      1475556 |      1475556 |      2937829 |      2937829 |      2937829 |      2937829 |      5862373 |      5862373 |      5862373 |      5862373 |     11711462 |     11711462 |     11711462 |     11711462 |     23409638 |     23409638 |     23409638 |     23409638 |     46818466 |     46818466 |     46818466 |     46818466 |     93611170 |     93611170 |     93611170 |     93611170 |    187205802 |    187205802 |    187205802 |    187205802 |    374395058 |    374395058 |    374395058 |    374395058 |
itlb.hits                                   378837 |       378837 |       378837 |       378837 |       744409 |       744409 |       744409 |       744409 |      1475547 |      1475547 |      1475547 |      1475547 |      2937820 |      2937820 |      2937820 |      2937820 |      5862364 |      5862364 |      5862364 |      5862364 |     11711453 |     11711453 |     11711453 |     11711453 |     23409629 |     23409629 |     23409629 |     23409629 |     46818457 |     46818457 |     46818457 |     46818457 |     93611161 |     93611161 |     93611161 |     93611161 |    187205793 |    187205793 |    187205793 |    187205793 |    374395049 |    374395049 |    374395049 |    374395049 |
itlb.misses                                      9 |            9 |            9 |            9 |            9 |            9 |            9 |            9 |            9 |            9 |            9 |            9 |            9 |            9 |            9 |            9 |            9 |            9 |            9 |            9 |            9 |            9 |            9 |            9 |            9 |            9 |            9 |            9 |            9 |            9 |            9 |            9 |            9 |            9 |            9 |            9 |            9 |            9 |            9 |            9 |            9 |            9 |            9 |            9 |
itlb.replacements                                0 |            0 |            0 |            0 |            0 |            0 |            0 |            0 |            0 |            0 |            0 |            0 |            0 |            0 |            0 |            0 |            0 |            0 |            0 |            0 |            0 |            0 |            0 |            0 |            0 |            0 |            0 |            0 |            0 |            0 |            0 |            0 |            0 |            0 |            0 |            0 |            0 |            0 |            0 |            0 |            0 |            0 |            0 |            0 |
itlb.writebacks                                  0 |            0 |            0 |            0 |            0 |            0 |            0 |            0 |            0 |            0 |            0 |            0 |            0 |            0 |            0 |            0 |            0 |            0 |            0 |            0 |            0 |            0 |            0 |            0 |            0 |            0 |            0 |            0 |            0 |            0 |            0 |            0 |            0 |            0 |            0 |            0 |            0 |            0 |            0 |            0 |            0 |            0 |            0 |            0 |
itlb.invalidations                               0 |            0 |            0 |            0 |            0 |            0 |            0 |            0 |            0 |            0 |            0 |            0 |            0 |            0 |            0 |            0 |            0 |            0 |            0 |            0 |            0 |            0 |            0 |            0 |            0 |            0 |            0 |            0 |            0 |            0 |            0 |            0 |            0 |            0 |            0 |            0 |            0 |            0 |            0 |            0 |            0 |            0 |            0 |            0 |
itlb.miss_rate                              0.0000 |       0.0000 |       0.0000 |       0.0000 |       0.0000 |       0.0000 |       0.0000 |       0.0000 |       0.0000 |       0.0000 |       0.0000 |       0.0000 |       0.0000 |       0.0000 |       0.0000 |       0.0000 |       0.0000 |       0.0000 |       0.0000 |       0.0000 |       0.0000 |       0.0000 |       0.0000 |       0.0000 |       0.0000 |       0.0000 |       0.0000 |       0.0000 |       0.0000 |       0.0000 |       0.0000 |       0.0000 |       0.0000 |       0.0000 |       0.0000 |       0.0000 |       0.0000 |       0.0000 |       0.0000 |       0.0000 |       0.0000 |       0.0000 |       0.0000 |       0.0000 |
itlb.repl_rate                              0.0000 |       0.0000 |       0.0000 |       0.0000 |       0.0000 |       0.0000 |       0.0000 |       0.0000 |       0.0000 |       0.0000 |       0.0000 |       0.0000 |       0.0000 |       0.0000 |       0.0000 |       0.0000 |       0.0000 |       0.0000 |       0.0000 |       0.0000 |       0.0000 |       0.0000 |       0.0000 |       0.0000 |       0.0000 |       0.0000 |       0.0000 |       0.0000 |       0.0000 |       0.0000 |       0.0000 |       0.0000 |       0.0000 |       0.0000 |       0.0000 |       0.0000 |       0.0000 |       0.0000 |       0.0000 |       0.0000 |       0.0000 |       0.0000 |       0.0000 |       0.0000 |
itlb.wb_rate                                0.0000 |       0.0000 |       0.0000 |       0.0000 |       0.0000 |       0.0000 |       0.0000 |       0.0000 |       0.0000 |       0.0000 |       0.0000 |       0.0000 |       0.0000 |       0.0000 |       0.0000 |       0.0000 |       0.0000 |       0.0000 |       0.0000 |       0.0000 |       0.0000 |       0.0000 |       0.0000 |       0.0000 |       0.0000 |       0.0000 |       0.0000 |       0.0000 |       0.0000 |       0.0000 |       0.0000 |       0.0000 |       0.0000 |       0.0000 |       0.0000 |       0.0000 |       0.0000 |       0.0000 |       0.0000 |       0.0000 |       0.0000 |       0.0000 |       0.0000 |       0.0000 |
itlb.inv_rate                               0.0000 |       0.0000 |       0.0000 |       0.0000 |       0.0000 |       0.0000 |       0.0000 |       0.0000 |       0.0000 |       0.0000 |       0.0000 |       0.0000 |       0.0000 |       0.0000 |       0.0000 |       0.0000 |       0.0000 |       0.0000 |       0.0000 |       0.0000 |       0.0000 |       0.0000 |       0.0000 |       0.0000 |       0.0000 |       0.0000 |       0.0000 |       0.0000 |       0.0000 |       0.0000 |       0.0000 |       0.0000 |       0.0000 |       0.0000 |       0.0000 |       0.0000 |       0.0000 |       0.0000 |       0.0000 |       0.0000 |       0.0000 |       0.0000 |       0.0000 |       0.0000 |
dtlb.accesses                               155429 |       155429 |       155429 |       155429 |       302885 |       302885 |       302885 |       302885 |       597797 |       597797 |       597797 |       597797 |      1187621 |      1187621 |      1187621 |      1187621 |      2367269 |      2367269 |      2367269 |      2367269 |      4726565 |      4726565 |      4726565 |      4726565 |      9445157 |      9445157 |      9445157 |      9445157 |     18891603 |     18891603 |     18891603 |     18891603 |     37765971 |     37765971 |     37765971 |     37765971 |     75520851 |     75520851 |     75520851 |     75520851 |    151030611 |    151030611 |    151030611 |    151030611 |
dtlb.hits                                   155413 |       155413 |       155413 |       155413 |       302861 |       302861 |       302861 |       302861 |       597757 |       597757 |       597757 |       597757 |      1187549 |      1187549 |      1187549 |      1187549 |      2367107 |      2367107 |      2367107 |      2367107 |      4716263 |      4716263 |      4716263 |      4716263 |      8919449 |      8919449 |      8919449 |      8919449 |     17569925 |     17569925 |     17569925 |     17569925 |     34592798 |     34592798 |     34592798 |     34592798 |     68529017 |     68529017 |     68529017 |     68529017 |    136189197 |    136189197 |    136189197 |    136189197 |
dtlb.misses                                     16 |           16 |           16 |           16 |           24 |           24 |           24 |           24 |           40 |           40 |           40 |           40 |           72 |           72 |           72 |           72 |          162 |          162 |          162 |          162 |        10302 |        10302 |        10302 |        10302 |       525708 |       525708 |       525708 |       525708 |      1321678 |      1321678 |      1321678 |      1321678 |      3173173 |      3173173 |      3173173 |      3173173 |      6991834 |      6991834 |      6991834 |      6991834 |     14841414 |     14841414 |     14841414 |     14841414 |
dtlb.replacements                                0 |            0 |            0 |            0 |            0 |            0 |            0 |            0 |            0 |            0 |            0 |            0 |            0 |            0 |            0 |            0 |           34 |           34 |           34 |           34 |        10174 |        10174 |        10174 |        10174 |       525580 |       525580 |       525580 |       525580 |      1321550 |      1321550 |      1321550 |      1321550 |      3173045 |      3173045 |      3173045 |      3173045 |      6991706 |      6991706 |      6991706 |      6991706 |     14841286 |     14841286 |     14841286 |     14841286 |
dtlb.writebacks                                  0 |            0 |            0 |            0 |            0 |            0 |            0 |            0 |            0 |            0 |            0 |            0 |            0 |            0 |            0 |            0 |           25 |           25 |           25 |           25 |         9643 |         9643 |         9643 |         9643 |       524299 |       524299 |       524299 |       524299 |      1319037 |      1319037 |      1319037 |      1319037 |      3167980 |      3167980 |      3167980 |      3167980 |      6981542 |      6981542 |      6981542 |      6981542 |     14820886 |     14820886 |     14820886 |     14820886 |
dtlb.invalidations                               0 |            0 |            0 |            0 |            0 |            0 |            0 |            0 |            0 |            0 |            0 |            0 |            0 |            0 |            0 |            0 |            0 |            0 |            0 |            0 |            0 |            0 |            0 |            0 |            0 |            0 |            0 |            0 |            0 |            0 |            0 |            0 |            0 |            0 |            0 |            0 |            0 |            0 |            0 |            0 |            0 |            0 |            0 |            0 |
dtlb.miss_rate                              0.0001 |       0.0001 |       0.0001 |       0.0001 |       0.0001 |       0.0001 |       0.0001 |       0.0001 |       0.0001 |       0.0001 |       0.0001 |       0.0001 |       0.0001 |       0.0001 |       0.0001 |       0.0001 |       0.0001 |       0.0001 |       0.0001 |       0.0001 |       0.0022 |       0.0022 |       0.0022 |       0.0022 |       0.0557 |       0.0557 |       0.0557 |       0.0557 |       0.0700 |       0.0700 |       0.0700 |       0.0700 |       0.0840 |       0.0840 |       0.0840 |       0.0840 |       0.0926 |       0.0926 |       0.0926 |       0.0926 |       0.0983 |       0.0983 |       0.0983 |       0.0983 |
dtlb.repl_rate                              0.0000 |       0.0000 |       0.0000 |       0.0000 |       0.0000 |       0.0000 |       0.0000 |       0.0000 |       0.0000 |       0.0000 |       0.0000 |       0.0000 |       0.0000 |       0.0000 |       0.0000 |       0.0000 |       0.0000 |       0.0000 |       0.0000 |       0.0000 |       0.0022 |       0.0022 |       0.0022 |       0.0022 |       0.0556 |       0.0556 |       0.0556 |       0.0556 |       0.0700 |       0.0700 |       0.0700 |       0.0700 |       0.0840 |       0.0840 |       0.0840 |       0.0840 |       0.0926 |       0.0926 |       0.0926 |       0.0926 |       0.0983 |       0.0983 |       0.0983 |       0.0983 |
dtlb.wb_rate                                0.0000 |       0.0000 |       0.0000 |       0.0000 |       0.0000 |       0.0000 |       0.0000 |       0.0000 |       0.0000 |       0.0000 |       0.0000 |       0.0000 |       0.0000 |       0.0000 |       0.0000 |       0.0000 |       0.0000 |       0.0000 |       0.0000 |       0.0000 |       0.0020 |       0.0020 |       0.0020 |       0.0020 |       0.0555 |       0.0555 |       0.0555 |       0.0555 |       0.0698 |       0.0698 |       0.0698 |       0.0698 |       0.0839 |       0.0839 |       0.0839 |       0.0839 |       0.0924 |       0.0924 |       0.0924 |       0.0924 |       0.0981 |       0.0981 |       0.0981 |       0.0981 |
dtlb.inv_rate                               0.0000 |       0.0000 |       0.0000 |       0.0000 |       0.0000 |       0.0000 |       0.0000 |       0.0000 |       0.0000 |       0.0000 |       0.0000 |       0.0000 |       0.0000 |       0.0000 |       0.0000 |       0.0000 |       0.0000 |       0.0000 |       0.0000 |       0.0000 |       0.0000 |       0.0000 |       0.0000 |       0.0000 |       0.0000 |       0.0000 |       0.0000 |       0.0000 |       0.0000 |       0.0000 |       0.0000 |       0.0000 |       0.0000 |       0.0000 |       0.0000 |       0.0000 |       0.0000 |       0.0000 |       0.0000 |       0.0000 |       0.0000 |       0.0000 |       0.0000 |       0.0000 |
ld_text_base                            0x00400000 |   0x00400000 |   0x00400000 |   0x00400000 |   0x00400000 |   0x00400000 |   0x00400000 |   0x00400000 |   0x00400000 |   0x00400000 |   0x00400000 |   0x00400000 |   0x00400000 |   0x00400000 |   0x00400000 |   0x00400000 |   0x00400000 |   0x00400000 |   0x00400000 |   0x00400000 |   0x00400000 |   0x00400000 |   0x00400000 |   0x00400000 |   0x00400000 |   0x00400000 |   0x00400000 |   0x00400000 |   0x00400000 |   0x00400000 |   0x00400000 |   0x00400000 |   0x00400000 |   0x00400000 |   0x00400000 |   0x00400000 |   0x00400000 |   0x00400000 |   0x00400000 |   0x00400000 |   0x00400000 |   0x00400000 |   0x00400000 |   0x00400000 |
ld_text_size                                 74416 |        74416 |        74416 |        74416 |        74448 |        74448 |        74448 |        74448 |        74464 |        74464 |        74464 |        74464 |        74464 |        74464 |        74464 |        74464 |        74464 |        74464 |        74464 |        74464 |        74480 |        74480 |        74480 |        74480 |        74480 |        74480 |        74480 |        74480 |        74480 |        74480 |        74480 |        74480 |        74480 |        74480 |        74480 |        74480 |        74480 |        74480 |        74480 |        74480 |        74480 |        74480 |        74480 |        74480 |
ld_data_base                            0x10000000 |   0x10000000 |   0x10000000 |   0x10000000 |   0x10000000 |   0x10000000 |   0x10000000 |   0x10000000 |   0x10000000 |   0x10000000 |   0x10000000 |   0x10000000 |   0x10000000 |   0x10000000 |   0x10000000 |   0x10000000 |   0x10000000 |   0x10000000 |   0x10000000 |   0x10000000 |   0x10000000 |   0x10000000 |   0x10000000 |   0x10000000 |   0x10000000 |   0x10000000 |   0x10000000 |   0x10000000 |   0x10000000 |   0x10000000 |   0x10000000 |   0x10000000 |   0x10000000 |   0x10000000 |   0x10000000 |   0x10000000 |   0x10000000 |   0x10000000 |   0x10000000 |   0x10000000 |   0x10000000 |   0x10000000 |   0x10000000 |   0x10000000 |
ld_data_size                                  8192 |         8192 |         8192 |         8192 |         8192 |         8192 |         8192 |         8192 |         8192 |         8192 |         8192 |         8192 |         8192 |         8192 |         8192 |         8192 |         8192 |         8192 |         8192 |         8192 |         8192 |         8192 |         8192 |         8192 |         8192 |         8192 |         8192 |         8192 |         8192 |         8192 |         8192 |         8192 |         8192 |         8192 |         8192 |         8192 |         8192 |         8192 |         8192 |         8192 |         8192 |         8192 |         8192 |         8192 |
ld_stack_base                           0x7fffc000 |   0x7fffc000 |   0x7fffc000 |   0x7fffc000 |   0x7fffc000 |   0x7fffc000 |   0x7fffc000 |   0x7fffc000 |   0x7fffc000 |   0x7fffc000 |   0x7fffc000 |   0x7fffc000 |   0x7fffc000 |   0x7fffc000 |   0x7fffc000 |   0x7fffc000 |   0x7fffc000 |   0x7fffc000 |   0x7fffc000 |   0x7fffc000 |   0x7fffc000 |   0x7fffc000 |   0x7fffc000 |   0x7fffc000 |   0x7fffc000 |   0x7fffc000 |   0x7fffc000 |   0x7fffc000 |   0x7fffc000 |   0x7fffc000 |   0x7fffc000 |   0x7fffc000 |   0x7fffc000 |   0x7fffc000 |   0x7fffc000 |   0x7fffc000 |   0x7fffc000 |   0x7fffc000 |   0x7fffc000 |   0x7fffc000 |   0x7fffc000 |   0x7fffc000 |   0x7fffc000 |   0x7fffc000 |
ld_stack_size                                16384 |        16384 |        16384 |        16384 |        16384 |        16384 |        16384 |        16384 |        16384 |        16384 |        16384 |        16384 |        16384 |        16384 |        16384 |        16384 |        16384 |        16384 |        16384 |        16384 |        16384 |        16384 |        16384 |        16384 |        16384 |        16384 |        16384 |        16384 |        16384 |        16384 |        16384 |        16384 |        16384 |        16384 |        16384 |        16384 |        16384 |        16384 |        16384 |        16384 |        16384 |        16384 |        16384 |        16384 |
ld_prog_entry                           0x00400140 |   0x00400140 |   0x00400140 |   0x00400140 |   0x00400140 |   0x00400140 |   0x00400140 |   0x00400140 |   0x00400140 |   0x00400140 |   0x00400140 |   0x00400140 |   0x00400140 |   0x00400140 |   0x00400140 |   0x00400140 |   0x00400140 |   0x00400140 |   0x00400140 |   0x00400140 |   0x00400140 |   0x00400140 |   0x00400140 |   0x00400140 |   0x00400140 |   0x00400140 |   0x00400140 |   0x00400140 |   0x00400140 |   0x00400140 |   0x00400140 |   0x00400140 |   0x00400140 |   0x00400140 |   0x00400140 |   0x00400140 |   0x00400140 |   0x00400140 |   0x00400140 |   0x00400140 |   0x00400140 |   0x00400140 |   0x00400140 |   0x00400140 |
ld_environ_base                         0x7fff8000 |   0x7fff8000 |   0x7fff8000 |   0x7fff8000 |   0x7fff8000 |   0x7fff8000 |   0x7fff8000 |   0x7fff8000 |   0x7fff8000 |   0x7fff8000 |   0x7fff8000 |   0x7fff8000 |   0x7fff8000 |   0x7fff8000 |   0x7fff8000 |   0x7fff8000 |   0x7fff8000 |   0x7fff8000 |   0x7fff8000 |   0x7fff8000 |   0x7fff8000 |   0x7fff8000 |   0x7fff8000 |   0x7fff8000 |   0x7fff8000 |   0x7fff8000 |   0x7fff8000 |   0x7fff8000 |   0x7fff8000 |   0x7fff8000 |   0x7fff8000 |   0x7fff8000 |   0x7fff8000 |   0x7fff8000 |   0x7fff8000 |   0x7fff8000 |   0x7fff8000 |   0x7fff8000 |   0x7fff8000 |   0x7fff8000 |   0x7fff8000 |   0x7fff8000 |   0x7fff8000 |   0x7fff8000 |
ld_target_big_endian                             0 |            0 |            0 |            0 |            0 |            0 |            0 |            0 |            0 |            0 |            0 |            0 |            0 |            0 |            0 |            0 |            0 |            0 |            0 |            0 |            0 |            0 |            0 |            0 |            0 |            0 |            0 |            0 |            0 |            0 |            0 |            0 |            0 |            0 |            0 |            0 |            0 |            0 |            0 |            0 |            0 |            0 |            0 |            0 |
mem.page_count                                  35 |           35 |           35 |           35 |           43 |           43 |           43 |           43 |           59 |           59 |           59 |           59 |           91 |           91 |           91 |           91 |          155 |          155 |          155 |          155 |          283 |          283 |          283 |          283 |          539 |          539 |          539 |          539 |         1057 |         1057 |         1057 |         1057 |         2081 |         2081 |         2081 |         2081 |         4135 |         4135 |         4135 |         4135 |         8243 |         8243 |         8243 |         8243 |
mem.page_mem                                  140k |         140k |         140k |         140k |         172k |         172k |         172k |         172k |         236k |         236k |         236k |         236k |         364k |         364k |         364k |         364k |         620k |         620k |         620k |         620k |        1132k |        1132k |        1132k |        1132k |        2156k |        2156k |        2156k |        2156k |        4228k |        4228k |        4228k |        4228k |        8324k |        8324k |        8324k |        8324k |       16540k |       16540k |       16540k |       16540k |       32972k |       32972k |       32972k |       32972k |
mem.ptab_misses                                 35 |           35 |           35 |           35 |           43 |           43 |           43 |           43 |           59 |           59 |           59 |           59 |           91 |           91 |           91 |           91 |          155 |          155 |          155 |          155 |          283 |          283 |          283 |          283 |          539 |          539 |          539 |          539 |         1060 |         1060 |         1060 |         1060 |        16424 |        16424 |        16424 |        16424 |        18478 |        18478 |        18478 |        18478 |        22586 |        22586 |        22586 |        22586 |
mem.ptab_accesses                          2287344 |      2287344 |      2287344 |      2287344 |      4044736 |      4044736 |      4044736 |      4044736 |      7559208 |      7559208 |      7559208 |      7559208 |     14587948 |     14587948 |     14587948 |     14587948 |     28645420 |     28645420 |     28645420 |     28645420 |     56760464 |     56760464 |     56760464 |     56760464 |    112990352 |    112990352 |    112990352 |    112990352 |    225518556 |    225518556 |    225518556 |    225518556 |    450438108 |    450438108 |    450438108 |    450438108 |    900326396 |    900326396 |    900326396 |    900326396 |   1800102940 |   1800102940 |   1800102940 |   1800102940 |
mem.ptab_miss_rate                          0.0000 |       0.0000 |       0.0000 |       0.0000 |       0.0000 |       0.0000 |       0.0000 |       0.0000 |       0.0000 |       0.0000 |       0.0000 |       0.0000 |       0.0000 |       0.0000 |       0.0000 |       0.0000 |       0.0000 |       0.0000 |       0.0000 |       0.0000 |       0.0000 |       0.0000 |       0.0000 |       0.0000 |       0.0000 |       0.0000 |       0.0000 |       0.0000 |       0.0000 |       0.0000 |       0.0000 |       0.0000 |       0.0000 |       0.0000 |       0.0000 |       0.0000 |       0.0000 |       0.0000 |       0.0000 |       0.0000 |       0.0000 |       0.0000 |       0.0000 |       0.0000 |
-------------------------------------------------------------------------------------------------
sim-bpred                                     4096 |         4096 |         4096 |         4096 |         4096 |         4096 |         4096 |         8192 |         8192 |         8192 |         8192 |         8192 |         8192 |         8192 |        16384 |        16384 |        16384 |        16384 |        16384 |        16384 |        16384 |        32768 |        32768 |        32768 |        32768 |        32768 |        32768 |        32768 |        65536 |        65536 |        65536 |        65536 |        65536 |        65536 |        65536 |       131072 |       131072 |       131072 |       131072 |       131072 |       131072 |       131072 |       262144 |       262144 |       262144 |       262144 |       262144 |       262144 |       262144 |       524288 |       524288 |       524288 |       524288 |       524288 |       524288 |       524288 |      1048576 |      1048576 |      1048576 |      1048576 |      1048576 |      1048576 |      1048576 |      2097152 |      2097152 |      2097152 |      2097152 |      2097152 |      2097152 |      2097152 |      4194304 |      4194304 |      4194304 |      4194304 |      4194304 |      4194304 |      4194304 |
-bpred bimod -bpred:bimod 512
-bpred bimod -bpred:bimod 1024
-bpred bimod -bpred:bimod 2048
-bpred 2lev -bpred:2lev 1 512 10 1
-bpred 2lev -bpred:2lev 1 1024 10 1
-bpred 2lev -bpred:2lev 1 2048 10 1
-bpred 2lev -bpred:2lev 1 4096 10 1
-------------------------------------------------------------------------------------------------
sim_num_insn                                378846 |       378846 |       378846 |       378846 |       378846 |       378846 |       378846 |       744418 |       744418 |       744418 |       744418 |       744418 |       744418 |       744418 |      1475556 |      1475556 |      1475556 |      1475556 |      1475556 |      1475556 |      1475556 |      2937829 |      2937829 |      2937829 |      2937829 |      2937829 |      2937829 |      2937829 |      5862373 |      5862373 |      5862373 |      5862373 |      5862373 |      5862373 |      5862373 |     11711462 |     11711462 |     11711462 |     11711462 |     11711462 |     11711462 |     11711462 |     23409638 |     23409638 |     23409638 |     23409638 |     23409638 |     23409638 |     23409638 |     46818466 |     46818466 |     46818466 |     46818466 |     46818466 |     46818466 |     46818466 |     93611170 |     93611170 |     93611170 |     93611170 |     93611170 |     93611170 |     93611170 |    187205802 |    187205802 |    187205802 |    187205802 |    187205802 |    187205802 |    187205802 |    374395058 |    374395058 |    374395058 |    374395058 |    374395058 |    374395058 |    374395058 |
sim_num_refs                                138963 |       138963 |       138963 |       138963 |       138963 |       138963 |       138963 |       270035 |       270035 |       270035 |       270035 |       270035 |       270035 |       270035 |       532179 |       532179 |       532179 |       532179 |       532179 |       532179 |       532179 |      1056467 |      1056467 |      1056467 |      1056467 |      1056467 |      1056467 |      1056467 |      2105043 |      2105043 |      2105043 |      2105043 |      2105043 |      2105043 |      2105043 |      4202195 |      4202195 |      4202195 |      4202195 |      4202195 |      4202195 |      4202195 |      8396499 |      8396499 |      8396499 |      8396499 |      8396499 |      8396499 |      8396499 |     16794369 |     16794369 |     16794369 |     16794369 |     16794369 |     16794369 |     16794369 |     33571585 |     33571585 |     33571585 |     33571585 |     33571585 |     33571585 |     33571585 |     67132161 |     67132161 |     67132161 |     67132161 |     67132161 |     67132161 |     67132161 |    134253313 |    134253313 |    134253313 |    134253313 |    134253313 |    134253313 |    134253313 |
sim_elapsed_time                                 1 |            1 |            1 |            1 |            1 |            1 |            1 |            1 |            1 |            1 |            1 |            1 |            1 |            1 |            1 |            1 |            1 |            1 |            1 |            1 |            1 |            1 |            1 |            1 |            1 |            1 |            1 |            1 |            1 |            1 |            1 |            1 |            1 |            1 |            1 |            1 |            1 |            1 |            1 |            1 |            1 |            1 |            2 |            2 |            2 |            2 |            2 |            2 |            3 |            4 |            4 |            4 |            5 |            4 |            4 |            5 |            9 |            8 |            9 |            8 |            9 |            8 |            8 |           17 |           17 |           17 |           17 |           17 |           17 |           17 |           34 |           34 |           34 |           34 |           34 |           35 |           34 |
sim_inst_rate                          378846.0000 |  378846.0000 |  378846.0000 |  378846.0000 |  378846.0000 |  378846.0000 |  378846.0000 |  744418.0000 |  744418.0000 |  744418.0000 |  744418.0000 |  744418.0000 |  744418.0000 |  744418.0000 | 1475556.0000 | 1475556.0000 | 1475556.0000 | 1475556.0000 | 1475556.0000 | 1475556.0000 | 1475556.0000 | 2937829.0000 | 2937829.0000 | 2937829.0000 | 2937829.0000 | 2937829.0000 | 2937829.0000 | 2937829.0000 | 5862373.0000 | 5862373.0000 | 5862373.0000 | 5862373.0000 | 5862373.0000 | 5862373.0000 | 5862373.0000 |11711462.0000 |11711462.0000 |11711462.0000 |11711462.0000 |11711462.0000 |11711462.0000 |11711462.0000 |11704819.0000 |11704819.0000 |11704819.0000 |11704819.0000 |11704819.0000 |11704819.0000 | 7803212.6667 |11704616.5000 |11704616.5000 |11704616.5000 | 9363693.2000 |11704616.5000 |11704616.5000 | 9363693.2000 |10401241.1111 |11701396.2500 |10401241.1111 |11701396.2500 |10401241.1111 |11701396.2500 |11701396.2500 |11012106.0000 |11012106.0000 |11012106.0000 |11012106.0000 |11012106.0000 |11012106.0000 |11012106.0000 |11011619.3529 |11011619.3529 |11011619.3529 |11011619.3529 |11011619.3529 |10697001.6571 |11011619.3529 |
sim_num_branches                              9290 |         9290 |         9290 |         9290 |         9290 |         9290 |         9290 |        17482 |        17482 |        17482 |        17482 |        17482 |        17482 |        17482 |        33866 |        33866 |        33866 |        33866 |        33866 |        33866 |        33866 |        66634 |        66634 |        66634 |        66634 |        66634 |        66634 |        66634 |       132170 |       132170 |       132170 |       132170 |       132170 |       132170 |       132170 |       263242 |       263242 |       263242 |       263242 |       263242 |       263242 |       263242 |       525386 |       525386 |       525386 |       525386 |       525386 |       525386 |       525386 |      1050467 |      1050467 |      1050467 |      1050467 |      1050467 |      1050467 |      1050467 |      2099043 |      2099043 |      2099043 |      2099043 |      2099043 |      2099043 |      2099043 |      4196966 |      4196966 |      4196966 |      4196966 |      4196966 |      4196966 |      4196966 |      8392809 |      8392809 |      8392809 |      8392809 |      8392809 |      8392809 |      8392809 |
sim_IPB                                    40.7800 |      40.7800 |      40.7800 |      40.7800 |      40.7800 |      40.7800 |      40.7800 |      42.5820 |      42.5820 |      42.5820 |      42.5820 |      42.5820 |      42.5820 |      42.5820 |      43.5704 |      43.5704 |      43.5704 |      43.5704 |      43.5704 |      43.5704 |      43.5704 |      44.0890 |      44.0890 |      44.0890 |      44.0890 |      44.0890 |      44.0890 |      44.0890 |      44.3548 |      44.3548 |      44.3548 |      44.3548 |      44.3548 |      44.3548 |      44.3548 |      44.4893 |      44.4893 |      44.4893 |      44.4893 |      44.4893 |      44.4893 |      44.4893 |      44.5570 |      44.5570 |      44.5570 |      44.5570 |      44.5570 |      44.5570 |      44.5570 |      44.5692 |      44.5692 |      44.5692 |      44.5692 |      44.5692 |      44.5692 |      44.5692 |      44.5971 |      44.5971 |      44.5971 |      44.5971 |      44.5971 |      44.5971 |      44.5971 |      44.6050 |      44.6050 |      44.6050 |      44.6050 |      44.6050 |      44.6050 |      44.6050 |      44.6090 |      44.6090 |      44.6090 |      44.6090 |      44.6090 |      44.6090 |      44.6090 |
bpred_bimod.lookups                           9290 |         9290 |         9290 |xxxxxxxxxxxxx |xxxxxxxxxxxxx |xxxxxxxxxxxxx |xxxxxxxxxxxxx |        17482 |        17482 |        17482 |xxxxxxxxxxxxx |xxxxxxxxxxxxx |xxxxxxxxxxxxx |xxxxxxxxxxxxx |        33866 |        33866 |        33866 |xxxxxxxxxxxxx |xxxxxxxxxxxxx |xxxxxxxxxxxxx |xxxxxxxxxxxxx |        66634 |        66634 |        66634 |xxxxxxxxxxxxx |xxxxxxxxxxxxx |xxxxxxxxxxxxx |xxxxxxxxxxxxx |       132170 |       132170 |       132170 |xxxxxxxxxxxxx |xxxxxxxxxxxxx |xxxxxxxxxxxxx |xxxxxxxxxxxxx |       263242 |       263242 |       263242 |xxxxxxxxxxxxx |xxxxxxxxxxxxx |xxxxxxxxxxxxx |xxxxxxxxxxxxx |       525386 |       525386 |       525386 |xxxxxxxxxxxxx |xxxxxxxxxxxxx |xxxxxxxxxxxxx |xxxxxxxxxxxxx |      1050467 |      1050467 |      1050467 |xxxxxxxxxxxxx |xxxxxxxxxxxxx |xxxxxxxxxxxxx |xxxxxxxxxxxxx |      2099043 |      2099043 |      2099043 |xxxxxxxxxxxxx |xxxxxxxxxxxxx |xxxxxxxxxxxxx |xxxxxxxxxxxxx |      4196966 |      4196966 |      4196966 |xxxxxxxxxxxxx |xxxxxxxxxxxxx |xxxxxxxxxxxxx |xxxxxxxxxxxxx |      8392809 |      8392809 |      8392809 |
bpred_bimod.updates                           9290 |         9290 |         9290 |xxxxxxxxxxxxx |xxxxxxxxxxxxx |xxxxxxxxxxxxx |xxxxxxxxxxxxx |        17482 |        17482 |        17482 |xxxxxxxxxxxxx |xxxxxxxxxxxxx |xxxxxxxxxxxxx |xxxxxxxxxxxxx |        33866 |        33866 |        33866 |xxxxxxxxxxxxx |xxxxxxxxxxxxx |xxxxxxxxxxxxx |xxxxxxxxxxxxx |        66634 |        66634 |        66634 |xxxxxxxxxxxxx |xxxxxxxxxxxxx |xxxxxxxxxxxxx |xxxxxxxxxxxxx |       132170 |       132170 |       132170 |xxxxxxxxxxxxx |xxxxxxxxxxxxx |xxxxxxxxxxxxx |xxxxxxxxxxxxx |       263242 |       263242 |       263242 |xxxxxxxxxxxxx |xxxxxxxxxxxxx |xxxxxxxxxxxxx |xxxxxxxxxxxxx |       525386 |       525386 |       525386 |xxxxxxxxxxxxx |xxxxxxxxxxxxx |xxxxxxxxxxxxx |xxxxxxxxxxxxx |      1050467 |      1050467 |      1050467 |xxxxxxxxxxxxx |xxxxxxxxxxxxx |xxxxxxxxxxxxx |xxxxxxxxxxxxx |      2099043 |      2099043 |      2099043 |xxxxxxxxxxxxx |xxxxxxxxxxxxx |xxxxxxxxxxxxx |xxxxxxxxxxxxx |      4196966 |      4196966 |      4196966 |xxxxxxxxxxxxx |xxxxxxxxxxxxx |xxxxxxxxxxxxx |xxxxxxxxxxxxx |      8392809 |      8392809 |      8392809 |
bpred_bimod.addr_hits                         9075 |         9078 |         9079 |xxxxxxxxxxxxx |xxxxxxxxxxxxx |xxxxxxxxxxxxx |xxxxxxxxxxxxx |        17266 |        17270 |        17271 |xxxxxxxxxxxxx |xxxxxxxxxxxxx |xxxxxxxxxxxxx |xxxxxxxxxxxxx |        33653 |        33655 |        33656 |xxxxxxxxxxxxx |xxxxxxxxxxxxx |xxxxxxxxxxxxx |xxxxxxxxxxxxx |        66421 |        66423 |        66424 |xxxxxxxxxxxxx |xxxxxxxxxxxxx |xxxxxxxxxxxxx |xxxxxxxxxxxxx |       131957 |       131959 |       131960 |xxxxxxxxxxxxx |xxxxxxxxxxxxx |xxxxxxxxxxxxx |xxxxxxxxxxxxx |       263028 |       263031 |       263032 |xxxxxxxxxxxxx |xxxxxxxxxxxxx |xxxxxxxxxxxxx |xxxxxxxxxxxxx |       525172 |       525175 |       525176 |xxxxxxxxxxxxx |xxxxxxxxxxxxx |xxxxxxxxxxxxx |xxxxxxxxxxxxx |      1050227 |      1050230 |      1050230 |xxxxxxxxxxxxx |xxxxxxxxxxxxx |xxxxxxxxxxxxx |xxxxxxxxxxxxx |      2098803 |      2098806 |      2098806 |xxxxxxxxxxxxx |xxxxxxxxxxxxx |xxxxxxxxxxxxx |xxxxxxxxxxxxx |      4196726 |      4196729 |      4196729 |xxxxxxxxxxxxx |xxxxxxxxxxxxx |xxxxxxxxxxxxx |xxxxxxxxxxxxx |      8392569 |      8392572 |      8392572 |
bpred_bimod.dir_hits                          9184 |         9183 |         9184 |xxxxxxxxxxxxx |xxxxxxxxxxxxx |xxxxxxxxxxxxx |xxxxxxxxxxxxx |        17371 |        17376 |        17376 |xxxxxxxxxxxxx |xxxxxxxxxxxxx |xxxxxxxxxxxxx |xxxxxxxxxxxxx |        33760 |        33760 |        33761 |xxxxxxxxxxxxx |xxxxxxxxxxxxx |xxxxxxxxxxxxx |xxxxxxxxxxxxx |        66529 |        66529 |        66530 |xxxxxxxxxxxxx |xxxxxxxxxxxxx |xxxxxxxxxxxxx |xxxxxxxxxxxxx |       132065 |       132065 |       132066 |xxxxxxxxxxxxx |xxxxxxxxxxxxx |xxxxxxxxxxxxx |xxxxxxxxxxxxx |       263134 |       263135 |       263137 |xxxxxxxxxxxxx |xxxxxxxxxxxxx |xxxxxxxxxxxxx |xxxxxxxxxxxxx |       525278 |       525279 |       525281 |xxxxxxxxxxxxx |xxxxxxxxxxxxx |xxxxxxxxxxxxx |xxxxxxxxxxxxx |      1050344 |      1050345 |      1050346 |xxxxxxxxxxxxx |xxxxxxxxxxxxx |xxxxxxxxxxxxx |xxxxxxxxxxxxx |      2098920 |      2098921 |      2098922 |xxxxxxxxxxxxx |xxxxxxxxxxxxx |xxxxxxxxxxxxx |xxxxxxxxxxxxx |      4196843 |      4196844 |      4196845 |xxxxxxxxxxxxx |xxxxxxxxxxxxx |xxxxxxxxxxxxx |xxxxxxxxxxxxx |      8392686 |      8392687 |      8392688 |
bpred_bimod.misses                             106 |          107 |          106 |xxxxxxxxxxxxx |xxxxxxxxxxxxx |xxxxxxxxxxxxx |xxxxxxxxxxxxx |          111 |          106 |          106 |xxxxxxxxxxxxx |xxxxxxxxxxxxx |xxxxxxxxxxxxx |xxxxxxxxxxxxx |          106 |          106 |          105 |xxxxxxxxxxxxx |xxxxxxxxxxxxx |xxxxxxxxxxxxx |xxxxxxxxxxxxx |          105 |          105 |          104 |xxxxxxxxxxxxx |xxxxxxxxxxxxx |xxxxxxxxxxxxx |xxxxxxxxxxxxx |          105 |          105 |          104 |xxxxxxxxxxxxx |xxxxxxxxxxxxx |xxxxxxxxxxxxx |xxxxxxxxxxxxx |          108 |          107 |          105 |xxxxxxxxxxxxx |xxxxxxxxxxxxx |xxxxxxxxxxxxx |xxxxxxxxxxxxx |          108 |          107 |          105 |xxxxxxxxxxxxx |xxxxxxxxxxxxx |xxxxxxxxxxxxx |xxxxxxxxxxxxx |          123 |          122 |          121 |xxxxxxxxxxxxx |xxxxxxxxxxxxx |xxxxxxxxxxxxx |xxxxxxxxxxxxx |          123 |          122 |          121 |xxxxxxxxxxxxx |xxxxxxxxxxxxx |xxxxxxxxxxxxx |xxxxxxxxxxxxx |          123 |          122 |          121 |xxxxxxxxxxxxx |xxxxxxxxxxxxx |xxxxxxxxxxxxx |xxxxxxxxxxxxx |          123 |          122 |          121 |
bpred_bimod.jr_hits                             70 |           70 |           70 |xxxxxxxxxxxxx |xxxxxxxxxxxxx |xxxxxxxxxxxxx |xxxxxxxxxxxxx |           70 |           70 |           70 |xxxxxxxxxxxxx |xxxxxxxxxxxxx |xxxxxxxxxxxxx |xxxxxxxxxxxxx |           70 |           70 |           70 |xxxxxxxxxxxxx |xxxxxxxxxxxxx |xxxxxxxxxxxxx |xxxxxxxxxxxxx |           70 |           70 |           70 |xxxxxxxxxxxxx |xxxxxxxxxxxxx |xxxxxxxxxxxxx |xxxxxxxxxxxxx |           70 |           70 |           70 |xxxxxxxxxxxxx |xxxxxxxxxxxxx |xxxxxxxxxxxxx |xxxxxxxxxxxxx |           70 |           70 |           70 |xxxxxxxxxxxxx |xxxxxxxxxxxxx |xxxxxxxxxxxxx |xxxxxxxxxxxxx |           70 |           70 |           70 |xxxxxxxxxxxxx |xxxxxxxxxxxxx |xxxxxxxxxxxxx |xxxxxxxxxxxxx |           73 |           73 |           73 |xxxxxxxxxxxxx |xxxxxxxxxxxxx |xxxxxxxxxxxxx |xxxxxxxxxxxxx |           73 |           73 |           73 |xxxxxxxxxxxxx |xxxxxxxxxxxxx |xxxxxxxxxxxxx |xxxxxxxxxxxxx |           73 |           73 |           73 |xxxxxxxxxxxxx |xxxxxxxxxxxxx |xxxxxxxxxxxxx |xxxxxxxxxxxxx |           73 |           73 |           73 |
bpred_bimod.jr_seen                             71 |           71 |           71 |xxxxxxxxxxxxx |xxxxxxxxxxxxx |xxxxxxxxxxxxx |xxxxxxxxxxxxx |           71 |           71 |           71 |xxxxxxxxxxxxx |xxxxxxxxxxxxx |xxxxxxxxxxxxx |xxxxxxxxxxxxx |           71 |           71 |           71 |xxxxxxxxxxxxx |xxxxxxxxxxxxx |xxxxxxxxxxxxx |xxxxxxxxxxxxx |           71 |           71 |           71 |xxxxxxxxxxxxx |xxxxxxxxxxxxx |xxxxxxxxxxxxx |xxxxxxxxxxxxx |           71 |           71 |           71 |xxxxxxxxxxxxx |xxxxxxxxxxxxx |xxxxxxxxxxxxx |xxxxxxxxxxxxx |           71 |           71 |           71 |xxxxxxxxxxxxx |xxxxxxxxxxxxx |xxxxxxxxxxxxx |xxxxxxxxxxxxx |           71 |           71 |           71 |xxxxxxxxxxxxx |xxxxxxxxxxxxx |xxxxxxxxxxxxx |xxxxxxxxxxxxx |           74 |           74 |           74 |xxxxxxxxxxxxx |xxxxxxxxxxxxx |xxxxxxxxxxxxx |xxxxxxxxxxxxx |           74 |           74 |           74 |xxxxxxxxxxxxx |xxxxxxxxxxxxx |xxxxxxxxxxxxx |xxxxxxxxxxxxx |           74 |           74 |           74 |xxxxxxxxxxxxx |xxxxxxxxxxxxx |xxxxxxxxxxxxx |xxxxxxxxxxxxx |           74 |           74 |           74 |
bpred_bimod.jr_non_ras_hits.PP                   0 |            0 |            0 |xxxxxxxxxxxxx |xxxxxxxxxxxxx |xxxxxxxxxxxxx |xxxxxxxxxxxxx |            0 |            0 |            0 |xxxxxxxxxxxxx |xxxxxxxxxxxxx |xxxxxxxxxxxxx |xxxxxxxxxxxxx |            0 |            0 |            0 |xxxxxxxxxxxxx |xxxxxxxxxxxxx |xxxxxxxxxxxxx |xxxxxxxxxxxxx |            0 |            0 |            0 |xxxxxxxxxxxxx |xxxxxxxxxxxxx |xxxxxxxxxxxxx |xxxxxxxxxxxxx |            0 |            0 |            0 |xxxxxxxxxxxxx |xxxxxxxxxxxxx |xxxxxxxxxxxxx |xxxxxxxxxxxxx |            0 |            0 |            0 |xxxxxxxxxxxxx |xxxxxxxxxxxxx |xxxxxxxxxxxxx |xxxxxxxxxxxxx |            0 |            0 |            0 |xxxxxxxxxxxxx |xxxxxxxxxxxxx |xxxxxxxxxxxxx |xxxxxxxxxxxxx |            0 |            0 |            0 |xxxxxxxxxxxxx |xxxxxxxxxxxxx |xxxxxxxxxxxxx |xxxxxxxxxxxxx |            0 |            0 |            0 |xxxxxxxxxxxxx |xxxxxxxxxxxxx |xxxxxxxxxxxxx |xxxxxxxxxxxxx |            0 |            0 |            0 |xxxxxxxxxxxxx |xxxxxxxxxxxxx |xxxxxxxxxxxxx |xxxxxxxxxxxxx |            0 |            0 |            0 |
bpred_bimod.jr_non_ras_seen.PP                   0 |            0 |            0 |xxxxxxxxxxxxx |xxxxxxxxxxxxx |xxxxxxxxxxxxx |xxxxxxxxxxxxx |            0 |            0 |            0 |xxxxxxxxxxxxx |xxxxxxxxxxxxx |xxxxxxxxxxxxx |xxxxxxxxxxxxx |            0 |            0 |            0 |xxxxxxxxxxxxx |xxxxxxxxxxxxx |xxxxxxxxxxxxx |xxxxxxxxxxxxx |            0 |            0 |            0 |xxxxxxxxxxxxx |xxxxxxxxxxxxx |xxxxxxxxxxxxx |xxxxxxxxxxxxx |            0 |            0 |            0 |xxxxxxxxxxxxx |xxxxxxxxxxxxx |xxxxxxxxxxxxx |xxxxxxxxxxxxx |            0 |            0 |            0 |xxxxxxxxxxxxx |xxxxxxxxxxxxx |xxxxxxxxxxxxx |xxxxxxxxxxxxx |            0 |            0 |            0 |xxxxxxxxxxxxx |xxxxxxxxxxxxx |xxxxxxxxxxxxx |xxxxxxxxxxxxx |            1 |            1 |            1 |xxxxxxxxxxxxx |xxxxxxxxxxxxx |xxxxxxxxxxxxx |xxxxxxxxxxxxx |            1 |            1 |            1 |xxxxxxxxxxxxx |xxxxxxxxxxxxx |xxxxxxxxxxxxx |xxxxxxxxxxxxx |            1 |            1 |            1 |xxxxxxxxxxxxx |xxxxxxxxxxxxx |xxxxxxxxxxxxx |xxxxxxxxxxxxx |            1 |            1 |            1 |
bpred_bimod.bpred_addr_rate                 0.9769 |       0.9772 |       0.9773 |xxxxxxxxxxxxx |xxxxxxxxxxxxx |xxxxxxxxxxxxx |xxxxxxxxxxxxx |       0.9876 |       0.9879 |       0.9879 |xxxxxxxxxxxxx |xxxxxxxxxxxxx |xxxxxxxxxxxxx |xxxxxxxxxxxxx |       0.9937 |       0.9938 |       0.9938 |xxxxxxxxxxxxx |xxxxxxxxxxxxx |xxxxxxxxxxxxx |xxxxxxxxxxxxx |       0.9968 |       0.9968 |       0.9968 |xxxxxxxxxxxxx |xxxxxxxxxxxxx |xxxxxxxxxxxxx |xxxxxxxxxxxxx |       0.9984 |       0.9984 |       0.9984 |xxxxxxxxxxxxx |xxxxxxxxxxxxx |xxxxxxxxxxxxx |xxxxxxxxxxxxx |       0.9992 |       0.9992 |       0.9992 |xxxxxxxxxxxxx |xxxxxxxxxxxxx |xxxxxxxxxxxxx |xxxxxxxxxxxxx |       0.9996 |       0.9996 |       0.9996 |xxxxxxxxxxxxx |xxxxxxxxxxxxx |xxxxxxxxxxxxx |xxxxxxxxxxxxx |       0.9998 |       0.9998 |       0.9998 |xxxxxxxxxxxxx |xxxxxxxxxxxxx |xxxxxxxxxxxxx |xxxxxxxxxxxxx |       0.9999 |       0.9999 |       0.9999 |xxxxxxxxxxxxx |xxxxxxxxxxxxx |xxxxxxxxxxxxx |xxxxxxxxxxxxx |       0.9999 |       0.9999 |       0.9999 |xxxxxxxxxxxxx |xxxxxxxxxxxxx |xxxxxxxxxxxxx |xxxxxxxxxxxxx |       1.0000 |       1.0000 |       1.0000 |
bpred_bimod.bpred_dir_rate                  0.9886 |       0.9885 |       0.9886 |xxxxxxxxxxxxx |xxxxxxxxxxxxx |xxxxxxxxxxxxx |xxxxxxxxxxxxx |       0.9937 |       0.9939 |       0.9939 |xxxxxxxxxxxxx |xxxxxxxxxxxxx |xxxxxxxxxxxxx |xxxxxxxxxxxxx |       0.9969 |       0.9969 |       0.9969 |xxxxxxxxxxxxx |xxxxxxxxxxxxx |xxxxxxxxxxxxx |xxxxxxxxxxxxx |       0.9984 |       0.9984 |       0.9984 |xxxxxxxxxxxxx |xxxxxxxxxxxxx |xxxxxxxxxxxxx |xxxxxxxxxxxxx |       0.9992 |       0.9992 |       0.9992 |xxxxxxxxxxxxx |xxxxxxxxxxxxx |xxxxxxxxxxxxx |xxxxxxxxxxxxx |       0.9996 |       0.9996 |       0.9996 |xxxxxxxxxxxxx |xxxxxxxxxxxxx |xxxxxxxxxxxxx |xxxxxxxxxxxxx |       0.9998 |       0.9998 |       0.9998 |xxxxxxxxxxxxx |xxxxxxxxxxxxx |xxxxxxxxxxxxx |xxxxxxxxxxxxx |       0.9999 |       0.9999 |       0.9999 |xxxxxxxxxxxxx |xxxxxxxxxxxxx |xxxxxxxxxxxxx |xxxxxxxxxxxxx |       0.9999 |       0.9999 |       0.9999 |xxxxxxxxxxxxx |xxxxxxxxxxxxx |xxxxxxxxxxxxx |xxxxxxxxxxxxx |       1.0000 |       1.0000 |       1.0000 |xxxxxxxxxxxxx |xxxxxxxxxxxxx |xxxxxxxxxxxxx |xxxxxxxxxxxxx |       1.0000 |       1.0000 |       1.0000 |
bpred_bimod.bpred_jr_rate                   0.9859 |       0.9859 |       0.9859 |xxxxxxxxxxxxx |xxxxxxxxxxxxx |xxxxxxxxxxxxx |xxxxxxxxxxxxx |       0.9859 |       0.9859 |       0.9859 |xxxxxxxxxxxxx |xxxxxxxxxxxxx |xxxxxxxxxxxxx |xxxxxxxxxxxxx |       0.9859 |       0.9859 |       0.9859 |xxxxxxxxxxxxx |xxxxxxxxxxxxx |xxxxxxxxxxxxx |xxxxxxxxxxxxx |       0.9859 |       0.9859 |       0.9859 |xxxxxxxxxxxxx |xxxxxxxxxxxxx |xxxxxxxxxxxxx |xxxxxxxxxxxxx |       0.9859 |       0.9859 |       0.9859 |xxxxxxxxxxxxx |xxxxxxxxxxxxx |xxxxxxxxxxxxx |xxxxxxxxxxxxx |       0.9859 |       0.9859 |       0.9859 |xxxxxxxxxxxxx |xxxxxxxxxxxxx |xxxxxxxxxxxxx |xxxxxxxxxxxxx |       0.9859 |       0.9859 |       0.9859 |xxxxxxxxxxxxx |xxxxxxxxxxxxx |xxxxxxxxxxxxx |xxxxxxxxxxxxx |       0.9865 |       0.9865 |       0.9865 |xxxxxxxxxxxxx |xxxxxxxxxxxxx |xxxxxxxxxxxxx |xxxxxxxxxxxxx |       0.9865 |       0.9865 |       0.9865 |xxxxxxxxxxxxx |xxxxxxxxxxxxx |xxxxxxxxxxxxx |xxxxxxxxxxxxx |       0.9865 |       0.9865 |       0.9865 |xxxxxxxxxxxxx |xxxxxxxxxxxxx |xxxxxxxxxxxxx |xxxxxxxxxxxxx |       0.9865 |       0.9865 |       0.9865 |
bpred_bimod.bpred_jr_non_ras_rate.PP       <error: |      <error: |      <error: |xxxxxxxxxxxxx |xxxxxxxxxxxxx |xxxxxxxxxxxxx |xxxxxxxxxxxxx |      <error: |      <error: |      <error: |xxxxxxxxxxxxx |xxxxxxxxxxxxx |xxxxxxxxxxxxx |xxxxxxxxxxxxx |      <error: |      <error: |      <error: |xxxxxxxxxxxxx |xxxxxxxxxxxxx |xxxxxxxxxxxxx |xxxxxxxxxxxxx |      <error: |      <error: |      <error: |xxxxxxxxxxxxx |xxxxxxxxxxxxx |xxxxxxxxxxxxx |xxxxxxxxxxxxx |      <error: |      <error: |      <error: |xxxxxxxxxxxxx |xxxxxxxxxxxxx |xxxxxxxxxxxxx |xxxxxxxxxxxxx |      <error: |      <error: |      <error: |xxxxxxxxxxxxx |xxxxxxxxxxxxx |xxxxxxxxxxxxx |xxxxxxxxxxxxx |      <error: |      <error: |      <error: |xxxxxxxxxxxxx |xxxxxxxxxxxxx |xxxxxxxxxxxxx |xxxxxxxxxxxxx |       0.0000 |       0.0000 |       0.0000 |xxxxxxxxxxxxx |xxxxxxxxxxxxx |xxxxxxxxxxxxx |xxxxxxxxxxxxx |       0.0000 |       0.0000 |       0.0000 |xxxxxxxxxxxxx |xxxxxxxxxxxxx |xxxxxxxxxxxxx |xxxxxxxxxxxxx |       0.0000 |       0.0000 |       0.0000 |xxxxxxxxxxxxx |xxxxxxxxxxxxx |xxxxxxxxxxxxx |xxxxxxxxxxxxx |       0.0000 |       0.0000 |       0.0000 |
bpred_bimod.retstack_pushes                     73 |           73 |           73 |xxxxxxxxxxxxx |xxxxxxxxxxxxx |xxxxxxxxxxxxx |xxxxxxxxxxxxx |           73 |           73 |           73 |xxxxxxxxxxxxx |xxxxxxxxxxxxx |xxxxxxxxxxxxx |xxxxxxxxxxxxx |           73 |           73 |           73 |xxxxxxxxxxxxx |xxxxxxxxxxxxx |xxxxxxxxxxxxx |xxxxxxxxxxxxx |           73 |           73 |           73 |xxxxxxxxxxxxx |xxxxxxxxxxxxx |xxxxxxxxxxxxx |xxxxxxxxxxxxx |           73 |           73 |           73 |xxxxxxxxxxxxx |xxxxxxxxxxxxx |xxxxxxxxxxxxx |xxxxxxxxxxxxx |           73 |           73 |           73 |xxxxxxxxxxxxx |xxxxxxxxxxxxx |xxxxxxxxxxxxx |xxxxxxxxxxxxx |           73 |           73 |           73 |xxxxxxxxxxxxx |xxxxxxxxxxxxx |xxxxxxxxxxxxx |xxxxxxxxxxxxx |           75 |           75 |           75 |xxxxxxxxxxxxx |xxxxxxxxxxxxx |xxxxxxxxxxxxx |xxxxxxxxxxxxx |           75 |           75 |           75 |xxxxxxxxxxxxx |xxxxxxxxxxxxx |xxxxxxxxxxxxx |xxxxxxxxxxxxx |           75 |           75 |           75 |xxxxxxxxxxxxx |xxxxxxxxxxxxx |xxxxxxxxxxxxx |xxxxxxxxxxxxx |           75 |           75 |           75 |
bpred_bimod.retstack_pops                       71 |           71 |           71 |xxxxxxxxxxxxx |xxxxxxxxxxxxx |xxxxxxxxxxxxx |xxxxxxxxxxxxx |           71 |           71 |           71 |xxxxxxxxxxxxx |xxxxxxxxxxxxx |xxxxxxxxxxxxx |xxxxxxxxxxxxx |           71 |           71 |           71 |xxxxxxxxxxxxx |xxxxxxxxxxxxx |xxxxxxxxxxxxx |xxxxxxxxxxxxx |           71 |           71 |           71 |xxxxxxxxxxxxx |xxxxxxxxxxxxx |xxxxxxxxxxxxx |xxxxxxxxxxxxx |           71 |           71 |           71 |xxxxxxxxxxxxx |xxxxxxxxxxxxx |xxxxxxxxxxxxx |xxxxxxxxxxxxx |           71 |           71 |           71 |xxxxxxxxxxxxx |xxxxxxxxxxxxx |xxxxxxxxxxxxx |xxxxxxxxxxxxx |           71 |           71 |           71 |xxxxxxxxxxxxx |xxxxxxxxxxxxx |xxxxxxxxxxxxx |xxxxxxxxxxxxx |           73 |           73 |           73 |xxxxxxxxxxxxx |xxxxxxxxxxxxx |xxxxxxxxxxxxx |xxxxxxxxxxxxx |           73 |           73 |           73 |xxxxxxxxxxxxx |xxxxxxxxxxxxx |xxxxxxxxxxxxx |xxxxxxxxxxxxx |           73 |           73 |           73 |xxxxxxxxxxxxx |xxxxxxxxxxxxx |xxxxxxxxxxxxx |xxxxxxxxxxxxx |           73 |           73 |           73 |
bpred_bimod.used_ras.PP                         71 |           71 |           71 |xxxxxxxxxxxxx |xxxxxxxxxxxxx |xxxxxxxxxxxxx |xxxxxxxxxxxxx |           71 |           71 |           71 |xxxxxxxxxxxxx |xxxxxxxxxxxxx |xxxxxxxxxxxxx |xxxxxxxxxxxxx |           71 |           71 |           71 |xxxxxxxxxxxxx |xxxxxxxxxxxxx |xxxxxxxxxxxxx |xxxxxxxxxxxxx |           71 |           71 |           71 |xxxxxxxxxxxxx |xxxxxxxxxxxxx |xxxxxxxxxxxxx |xxxxxxxxxxxxx |           71 |           71 |           71 |xxxxxxxxxxxxx |xxxxxxxxxxxxx |xxxxxxxxxxxxx |xxxxxxxxxxxxx |           71 |           71 |           71 |xxxxxxxxxxxxx |xxxxxxxxxxxxx |xxxxxxxxxxxxx |xxxxxxxxxxxxx |           71 |           71 |           71 |xxxxxxxxxxxxx |xxxxxxxxxxxxx |xxxxxxxxxxxxx |xxxxxxxxxxxxx |           73 |           73 |           73 |xxxxxxxxxxxxx |xxxxxxxxxxxxx |xxxxxxxxxxxxx |xxxxxxxxxxxxx |           73 |           73 |           73 |xxxxxxxxxxxxx |xxxxxxxxxxxxx |xxxxxxxxxxxxx |xxxxxxxxxxxxx |           73 |           73 |           73 |xxxxxxxxxxxxx |xxxxxxxxxxxxx |xxxxxxxxxxxxx |xxxxxxxxxxxxx |           73 |           73 |           73 |
bpred_bimod.ras_hits.PP                         70 |           70 |           70 |xxxxxxxxxxxxx |xxxxxxxxxxxxx |xxxxxxxxxxxxx |xxxxxxxxxxxxx |           70 |           70 |           70 |xxxxxxxxxxxxx |xxxxxxxxxxxxx |xxxxxxxxxxxxx |xxxxxxxxxxxxx |           70 |           70 |           70 |xxxxxxxxxxxxx |xxxxxxxxxxxxx |xxxxxxxxxxxxx |xxxxxxxxxxxxx |           70 |           70 |           70 |xxxxxxxxxxxxx |xxxxxxxxxxxxx |xxxxxxxxxxxxx |xxxxxxxxxxxxx |           70 |           70 |           70 |xxxxxxxxxxxxx |xxxxxxxxxxxxx |xxxxxxxxxxxxx |xxxxxxxxxxxxx |           70 |           70 |           70 |xxxxxxxxxxxxx |xxxxxxxxxxxxx |xxxxxxxxxxxxx |xxxxxxxxxxxxx |           70 |           70 |           70 |xxxxxxxxxxxxx |xxxxxxxxxxxxx |xxxxxxxxxxxxx |xxxxxxxxxxxxx |           73 |           73 |           73 |xxxxxxxxxxxxx |xxxxxxxxxxxxx |xxxxxxxxxxxxx |xxxxxxxxxxxxx |           73 |           73 |           73 |xxxxxxxxxxxxx |xxxxxxxxxxxxx |xxxxxxxxxxxxx |xxxxxxxxxxxxx |           73 |           73 |           73 |xxxxxxxxxxxxx |xxxxxxxxxxxxx |xxxxxxxxxxxxx |xxxxxxxxxxxxx |           73 |           73 |           73 |
bpred_bimod.ras_rate.PP                     0.9859 |       0.9859 |       0.9859 |xxxxxxxxxxxxx |xxxxxxxxxxxxx |xxxxxxxxxxxxx |xxxxxxxxxxxxx |       0.9859 |       0.9859 |       0.9859 |xxxxxxxxxxxxx |xxxxxxxxxxxxx |xxxxxxxxxxxxx |xxxxxxxxxxxxx |       0.9859 |       0.9859 |       0.9859 |xxxxxxxxxxxxx |xxxxxxxxxxxxx |xxxxxxxxxxxxx |xxxxxxxxxxxxx |       0.9859 |       0.9859 |       0.9859 |xxxxxxxxxxxxx |xxxxxxxxxxxxx |xxxxxxxxxxxxx |xxxxxxxxxxxxx |       0.9859 |       0.9859 |       0.9859 |xxxxxxxxxxxxx |xxxxxxxxxxxxx |xxxxxxxxxxxxx |xxxxxxxxxxxxx |       0.9859 |       0.9859 |       0.9859 |xxxxxxxxxxxxx |xxxxxxxxxxxxx |xxxxxxxxxxxxx |xxxxxxxxxxxxx |       0.9859 |       0.9859 |       0.9859 |xxxxxxxxxxxxx |xxxxxxxxxxxxx |xxxxxxxxxxxxx |xxxxxxxxxxxxx |       1.0000 |       1.0000 |       1.0000 |xxxxxxxxxxxxx |xxxxxxxxxxxxx |xxxxxxxxxxxxx |xxxxxxxxxxxxx |       1.0000 |       1.0000 |       1.0000 |xxxxxxxxxxxxx |xxxxxxxxxxxxx |xxxxxxxxxxxxx |xxxxxxxxxxxxx |       1.0000 |       1.0000 |       1.0000 |xxxxxxxxxxxxx |xxxxxxxxxxxxx |xxxxxxxxxxxxx |xxxxxxxxxxxxx |       1.0000 |       1.0000 |       1.0000 |
bpred_2lev.lookups                   xxxxxxxxxxxxx |xxxxxxxxxxxxx |xxxxxxxxxxxxx |         9290 |         9290 |         9290 |         9290 |xxxxxxxxxxxxx |xxxxxxxxxxxxx |xxxxxxxxxxxxx |        17482 |        17482 |        17482 |        17482 |xxxxxxxxxxxxx |xxxxxxxxxxxxx |xxxxxxxxxxxxx |        33866 |        33866 |        33866 |        33866 |xxxxxxxxxxxxx |xxxxxxxxxxxxx |xxxxxxxxxxxxx |        66634 |        66634 |        66634 |        66634 |xxxxxxxxxxxxx |xxxxxxxxxxxxx |xxxxxxxxxxxxx |       132170 |       132170 |       132170 |       132170 |xxxxxxxxxxxxx |xxxxxxxxxxxxx |xxxxxxxxxxxxx |       263242 |       263242 |       263242 |       263242 |xxxxxxxxxxxxx |xxxxxxxxxxxxx |xxxxxxxxxxxxx |       525386 |       525386 |       525386 |       525386 |xxxxxxxxxxxxx |xxxxxxxxxxxxx |xxxxxxxxxxxxx |      1050467 |      1050467 |      1050467 |      1050467 |xxxxxxxxxxxxx |xxxxxxxxxxxxx |xxxxxxxxxxxxx |      2099043 |      2099043 |      2099043 |      2099043 |xxxxxxxxxxxxx |xxxxxxxxxxxxx |xxxxxxxxxxxxx |      4196966 |      4196966 |      4196966 |      4196966 |xxxxxxxxxxxxx |xxxxxxxxxxxxx |xxxxxxxxxxxxx |      8392809 |      8392809 |      8392809 |      8392809 |
[...]
bpred_2lev.used_ras.PP               xxxxxxxxxxxxx |xxxxxxxxxxxxx |xxxxxxxxxxxxx |           71 |           71 |           71 |           71 |xxxxxxxxxxxxx |xxxxxxxxxxxxx |xxxxxxxxxxxxx |           71 |           71 |           71 |           71 |xxxxxxxxxxxxx |xxxxxxxxxxxxx |xxxxxxxxxxxxx |           71 |           71 |           71 |           71 |xxxxxxxxxxxxx |xxxxxxxxxxxxx |xxxxxxxxxxxxx |           71 |           71 |           71 |           71 |xxxxxxxxxxxxx |xxxxxxxxxxxxx |xxxxxxxxxxxxx |           71 |           71 |           71 |           71 |xxxxxxxxxxxxx |xxxxxxxxxxxxx |xxxxxxxxxxxxx |           71 |           71 |           71 |           71 |xxxxxxxxxxxxx |xxxxxxxxxxxxx |xxxxxxxxxxxxx |           71 |           71 |           71 |           71 |xxxxxxxxxxxxx |xxxxxxxxxxxxx |xxxxxxxxxxxxx |           73 |           73 |           73 |           73 |xxxxxxxxxxxxx |xxxxxxxxxxxxx |xxxxxxxxxxxxx |           73 |           73 |           73 |           73 |xxxxxxxxxxxxx |xxxxxxxxxxxxx |xxxxxxxxxxxxx |           73 |           73 |           73 |           73 |xxxxxxxxxxxxx |xxxxxxxxxxxxx |xxxxxxxxxxxxx |           73 |           73 |           73 |           73 |
bpred_2lev.ras_hits.PP               xxxxxxxxxxxxx |xxxxxxxxxxxxx |xxxxxxxxxxxxx |           70 |           70 |           70 |           70 |xxxxxxxxxxxxx |xxxxxxxxxxxxx |xxxxxxxxxxxxx |           70 |           70 |           70 |           70 |xxxxxxxxxxxxx |xxxxxxxxxxxxx |xxxxxxxxxxxxx |           70 |           70 |           70 |           70 |xxxxxxxxxxxxx |xxxxxxxxxxxxx |xxxxxxxxxxxxx |           70 |           70 |           70 |           70 |xxxxxxxxxxxxx |xxxxxxxxxxxxx |xxxxxxxxxxxxx |           70 |           70 |           70 |           70 |xxxxxxxxxxxxx |xxxxxxxxxxxxx |xxxxxxxxxxxxx |           70 |           70 |           70 |           70 |xxxxxxxxxxxxx |xxxxxxxxxxxxx |xxxxxxxxxxxxx |           70 |           70 |           70 |           70 |xxxxxxxxxxxxx |xxxxxxxxxxxxx |xxxxxxxxxxxxx |           73 |           73 |           73 |           73 |xxxxxxxxxxxxx |xxxxxxxxxxxxx |xxxxxxxxxxxxx |           73 |           73 |           73 |           73 |xxxxxxxxxxxxx |xxxxxxxxxxxxx |xxxxxxxxxxxxx |           73 |           73 |           73 |           73 |xxxxxxxxxxxxx |xxxxxxxxxxxxx |xxxxxxxxxxxxx |           73 |           73 |           73 |           73 |
bpred_2lev.ras_rate.PP               xxxxxxxxxxxxx |xxxxxxxxxxxxx |xxxxxxxxxxxxx |       0.9859 |       0.9859 |       0.9859 |       0.9859 |xxxxxxxxxxxxx |xxxxxxxxxxxxx |xxxxxxxxxxxxx |       0.9859 |       0.9859 |       0.9859 |       0.9859 |xxxxxxxxxxxxx |xxxxxxxxxxxxx |xxxxxxxxxxxxx |       0.9859 |       0.9859 |       0.9859 |       0.9859 |xxxxxxxxxxxxx |xxxxxxxxxxxxx |xxxxxxxxxxxxx |       0.9859 |       0.9859 |       0.9859 |       0.9859 |xxxxxxxxxxxxx |xxxxxxxxxxxxx |xxxxxxxxxxxxx |       0.9859 |       0.9859 |       0.9859 |       0.9859 |xxxxxxxxxxxxx |xxxxxxxxxxxxx |xxxxxxxxxxxxx |       0.9859 |       0.9859 |       0.9859 |       0.9859 |xxxxxxxxxxxxx |xxxxxxxxxxxxx |xxxxxxxxxxxxx |       0.9859 |       0.9859 |       0.9859 |       0.9859 |xxxxxxxxxxxxx |xxxxxxxxxxxxx |xxxxxxxxxxxxx |       1.0000 |       1.0000 |       1.0000 |       1.0000 |xxxxxxxxxxxxx |xxxxxxxxxxxxx |xxxxxxxxxxxxx |       1.0000 |       1.0000 |       1.0000 |       1.0000 |xxxxxxxxxxxxx |xxxxxxxxxxxxx |xxxxxxxxxxxxx |       1.0000 |       1.0000 |       1.0000 |       1.0000 |xxxxxxxxxxxxx |xxxxxxxxxxxxx |xxxxxxxxxxxxx |       1.0000 |       1.0000 |       1.0000 |       1.0000 |

Command list: 
	sslittle-na-sstrix-gcc -Wall -O3 -funroll-loops -finline-functions  -DRANDOM_SIZE=4096 -DOFFSET=0 -DSORT=aligned_memory_tuned_radixsort sorts/aligned_memory_tuned_radixsort1636208779.c simpleMain.c -o aligned_memory_tuned_radixsort327830096
	sim-cache -cache:dl1 dl1:256:32:1:l -cache:dl2 dl2:131072:32:1:l -cache:il1 il1:256:32:1:l -cache:il2 dl2 aligned_memory_tuned_radixsort327830096
	sim-cache -cache:dl1 dl1:256:32:1:l -cache:dl2 dl2:65536:32:1:l -cache:il1 il1:256:32:1:l -cache:il2 dl2 aligned_memory_tuned_radixsort327830096
	sim-cache -cache:dl1 dl1:1:32:256:l -cache:dl2 dl2:1:32:131072:l -cache:il1 il1:1:32:256:l -cache:il2 dl2 aligned_memory_tuned_radixsort327830096
	sim-cache -cache:dl1 dl1:1:32:256:l -cache:dl2 dl2:1:32:65536:l -cache:il1 il1:1:32:256:l -cache:il2 dl2 aligned_memory_tuned_radixsort327830096
	sim-bpred -bpred bimod -bpred:bimod 512 aligned_memory_tuned_radixsort327830096
	sim-bpred -bpred bimod -bpred:bimod 1024 aligned_memory_tuned_radixsort327830096
	sim-bpred -bpred bimod -bpred:bimod 2048 aligned_memory_tuned_radixsort327830096
	sim-bpred -bpred 2lev -bpred:2lev 1 512 10 1 aligned_memory_tuned_radixsort327830096
	sim-bpred -bpred 2lev -bpred:2lev 1 1024 10 1 aligned_memory_tuned_radixsort327830096
	sim-bpred -bpred 2lev -bpred:2lev 1 2048 10 1 aligned_memory_tuned_radixsort327830096
	sim-bpred -bpred 2lev -bpred:2lev 1 4096 10 1 aligned_memory_tuned_radixsort327830096
	sslittle-na-sstrix-gcc -Wall -O3 -funroll-loops -finline-functions  -DRANDOM_SIZE=8192 -DOFFSET=0 -DSORT=aligned_memory_tuned_radixsort sorts/aligned_memory_tuned_radixsort1636208779.c simpleMain.c -o aligned_memory_tuned_radixsort327830096
	sim-cache -cache:dl1 dl1:256:32:1:l -cache:dl2 dl2:131072:32:1:l -cache:il1 il1:256:32:1:l -cache:il2 dl2 aligned_memory_tuned_radixsort327830096
	sim-cache -cache:dl1 dl1:256:32:1:l -cache:dl2 dl2:65536:32:1:l -cache:il1 il1:256:32:1:l -cache:il2 dl2 aligned_memory_tuned_radixsort327830096
	sim-cache -cache:dl1 dl1:1:32:256:l -cache:dl2 dl2:1:32:131072:l -cache:il1 il1:1:32:256:l -cache:il2 dl2 aligned_memory_tuned_radixsort327830096
	sim-cache -cache:dl1 dl1:1:32:256:l -cache:dl2 dl2:1:32:65536:l -cache:il1 il1:1:32:256:l -cache:il2 dl2 aligned_memory_tuned_radixsort327830096
	sim-bpred -bpred bimod -bpred:bimod 512 aligned_memory_tuned_radixsort327830096
	sim-bpred -bpred bimod -bpred:bimod 1024 aligned_memory_tuned_radixsort327830096
	sim-bpred -bpred bimod -bpred:bimod 2048 aligned_memory_tuned_radixsort327830096
	sim-bpred -bpred 2lev -bpred:2lev 1 512 10 1 aligned_memory_tuned_radixsort327830096
	sim-bpred -bpred 2lev -bpred:2lev 1 1024 10 1 aligned_memory_tuned_radixsort327830096
	sim-bpred -bpred 2lev -bpred:2lev 1 2048 10 1 aligned_memory_tuned_radixsort327830096
	sim-bpred -bpred 2lev -bpred:2lev 1 4096 10 1 aligned_memory_tuned_radixsort327830096
	sslittle-na-sstrix-gcc -Wall -O3 -funroll-loops -finline-functions  -DRANDOM_SIZE=16384 -DOFFSET=0 -DSORT=aligned_memory_tuned_radixsort sorts/aligned_memory_tuned_radixsort1636208779.c simpleMain.c -o aligned_memory_tuned_radixsort327830096
	sim-cache -cache:dl1 dl1:256:32:1:l -cache:dl2 dl2:131072:32:1:l -cache:il1 il1:256:32:1:l -cache:il2 dl2 aligned_memory_tuned_radixsort327830096
	sim-cache -cache:dl1 dl1:256:32:1:l -cache:dl2 dl2:65536:32:1:l -cache:il1 il1:256:32:1:l -cache:il2 dl2 aligned_memory_tuned_radixsort327830096
	sim-cache -cache:dl1 dl1:1:32:256:l -cache:dl2 dl2:1:32:131072:l -cache:il1 il1:1:32:256:l -cache:il2 dl2 aligned_memory_tuned_radixsort327830096
	sim-cache -cache:dl1 dl1:1:32:256:l -cache:dl2 dl2:1:32:65536:l -cache:il1 il1:1:32:256:l -cache:il2 dl2 aligned_memory_tuned_radixsort327830096
	sim-bpred -bpred bimod -bpred:bimod 512 aligned_memory_tuned_radixsort327830096
	sim-bpred -bpred bimod -bpred:bimod 1024 aligned_memory_tuned_radixsort327830096
	sim-bpred -bpred bimod -bpred:bimod 2048 aligned_memory_tuned_radixsort327830096
	sim-bpred -bpred 2lev -bpred:2lev 1 512 10 1 aligned_memory_tuned_radixsort327830096
	sim-bpred -bpred 2lev -bpred:2lev 1 1024 10 1 aligned_memory_tuned_radixsort327830096
	sim-bpred -bpred 2lev -bpred:2lev 1 2048 10 1 aligned_memory_tuned_radixsort327830096
	sim-bpred -bpred 2lev -bpred:2lev 1 4096 10 1 aligned_memory_tuned_radixsort327830096
	sslittle-na-sstrix-gcc -Wall -O3 -funroll-loops -finline-functions  -DRANDOM_SIZE=32768 -DOFFSET=0 -DSORT=aligned_memory_tuned_radixsort sorts/aligned_memory_tuned_radixsort1636208779.c simpleMain.c -o aligned_memory_tuned_radixsort327830096
	sim-cache -cache:dl1 dl1:256:32:1:l -cache:dl2 dl2:131072:32:1:l -cache:il1 il1:256:32:1:l -cache:il2 dl2 aligned_memory_tuned_radixsort327830096
	sim-cache -cache:dl1 dl1:256:32:1:l -cache:dl2 dl2:65536:32:1:l -cache:il1 il1:256:32:1:l -cache:il2 dl2 aligned_memory_tuned_radixsort327830096
	sim-cache -cache:dl1 dl1:1:32:256:l -cache:dl2 dl2:1:32:131072:l -cache:il1 il1:1:32:256:l -cache:il2 dl2 aligned_memory_tuned_radixsort327830096
	sim-cache -cache:dl1 dl1:1:32:256:l -cache:dl2 dl2:1:32:65536:l -cache:il1 il1:1:32:256:l -cache:il2 dl2 aligned_memory_tuned_radixsort327830096
	sim-bpred -bpred bimod -bpred:bimod 512 aligned_memory_tuned_radixsort327830096
	sim-bpred -bpred bimod -bpred:bimod 1024 aligned_memory_tuned_radixsort327830096
	sim-bpred -bpred bimod -bpred:bimod 2048 aligned_memory_tuned_radixsort327830096
	sim-bpred -bpred 2lev -bpred:2lev 1 512 10 1 aligned_memory_tuned_radixsort327830096
	sim-bpred -bpred 2lev -bpred:2lev 1 1024 10 1 aligned_memory_tuned_radixsort327830096
	sim-bpred -bpred 2lev -bpred:2lev 1 2048 10 1 aligned_memory_tuned_radixsort327830096
	sim-bpred -bpred 2lev -bpred:2lev 1 4096 10 1 aligned_memory_tuned_radixsort327830096
	sslittle-na-sstrix-gcc -Wall -O3 -funroll-loops -finline-functions  -DRANDOM_SIZE=65536 -DOFFSET=0 -DSORT=aligned_memory_tuned_radixsort sorts/aligned_memory_tuned_radixsort1636208779.c simpleMain.c -o aligned_memory_tuned_radixsort327830096
	sim-cache -cache:dl1 dl1:256:32:1:l -cache:dl2 dl2:131072:32:1:l -cache:il1 il1:256:32:1:l -cache:il2 dl2 aligned_memory_tuned_radixsort327830096
	sim-cache -cache:dl1 dl1:256:32:1:l -cache:dl2 dl2:65536:32:1:l -cache:il1 il1:256:32:1:l -cache:il2 dl2 aligned_memory_tuned_radixsort327830096
	sim-cache -cache:dl1 dl1:1:32:256:l -cache:dl2 dl2:1:32:131072:l -cache:il1 il1:1:32:256:l -cache:il2 dl2 aligned_memory_tuned_radixsort327830096
	sim-cache -cache:dl1 dl1:1:32:256:l -cache:dl2 dl2:1:32:65536:l -cache:il1 il1:1:32:256:l -cache:il2 dl2 aligned_memory_tuned_radixsort327830096
	sim-bpred -bpred bimod -bpred:bimod 512 aligned_memory_tuned_radixsort327830096
	sim-bpred -bpred bimod -bpred:bimod 1024 aligned_memory_tuned_radixsort327830096
	sim-bpred -bpred bimod -bpred:bimod 2048 aligned_memory_tuned_radixsort327830096
	sim-bpred -bpred 2lev -bpred:2lev 1 512 10 1 aligned_memory_tuned_radixsort327830096
	sim-bpred -bpred 2lev -bpred:2lev 1 1024 10 1 aligned_memory_tuned_radixsort327830096
	sim-bpred -bpred 2lev -bpred:2lev 1 2048 10 1 aligned_memory_tuned_radixsort327830096
	sim-bpred -bpred 2lev -bpred:2lev 1 4096 10 1 aligned_memory_tuned_radixsort327830096
	sslittle-na-sstrix-gcc -Wall -O3 -funroll-loops -finline-functions  -DRANDOM_SIZE=131072 -DOFFSET=0 -DSORT=aligned_memory_tuned_radixsort sorts/aligned_memory_tuned_radixsort1636208779.c simpleMain.c -o aligned_memory_tuned_radixsort327830096
	sim-cache -cache:dl1 dl1:256:32:1:l -cache:dl2 dl2:131072:32:1:l -cache:il1 il1:256:32:1:l -cache:il2 dl2 aligned_memory_tuned_radixsort327830096
	sim-cache -cache:dl1 dl1:256:32:1:l -cache:dl2 dl2:65536:32:1:l -cache:il1 il1:256:32:1:l -cache:il2 dl2 aligned_memory_tuned_radixsort327830096
	sim-cache -cache:dl1 dl1:1:32:256:l -cache:dl2 dl2:1:32:131072:l -cache:il1 il1:1:32:256:l -cache:il2 dl2 aligned_memory_tuned_radixsort327830096
	sim-cache -cache:dl1 dl1:1:32:256:l -cache:dl2 dl2:1:32:65536:l -cache:il1 il1:1:32:256:l -cache:il2 dl2 aligned_memory_tuned_radixsort327830096
	sim-bpred -bpred bimod -bpred:bimod 512 aligned_memory_tuned_radixsort327830096
	sim-bpred -bpred bimod -bpred:bimod 1024 aligned_memory_tuned_radixsort327830096
	sim-bpred -bpred bimod -bpred:bimod 2048 aligned_memory_tuned_radixsort327830096
	sim-bpred -bpred 2lev -bpred:2lev 1 512 10 1 aligned_memory_tuned_radixsort327830096
	sim-bpred -bpred 2lev -bpred:2lev 1 1024 10 1 aligned_memory_tuned_radixsort327830096
	sim-bpred -bpred 2lev -bpred:2lev 1 2048 10 1 aligned_memory_tuned_radixsort327830096
	sim-bpred -bpred 2lev -bpred:2lev 1 4096 10 1 aligned_memory_tuned_radixsort327830096
	sslittle-na-sstrix-gcc -Wall -O3 -funroll-loops -finline-functions  -DRANDOM_SIZE=262144 -DOFFSET=0 -DSORT=aligned_memory_tuned_radixsort sorts/aligned_memory_tuned_radixsort1636208779.c simpleMain.c -o aligned_memory_tuned_radixsort327830096
	sim-cache -cache:dl1 dl1:256:32:1:l -cache:dl2 dl2:131072:32:1:l -cache:il1 il1:256:32:1:l -cache:il2 dl2 aligned_memory_tuned_radixsort327830096
	sim-cache -cache:dl1 dl1:256:32:1:l -cache:dl2 dl2:65536:32:1:l -cache:il1 il1:256:32:1:l -cache:il2 dl2 aligned_memory_tuned_radixsort327830096
	sim-cache -cache:dl1 dl1:1:32:256:l -cache:dl2 dl2:1:32:131072:l -cache:il1 il1:1:32:256:l -cache:il2 dl2 aligned_memory_tuned_radixsort327830096
	sim-cache -cache:dl1 dl1:1:32:256:l -cache:dl2 dl2:1:32:65536:l -cache:il1 il1:1:32:256:l -cache:il2 dl2 aligned_memory_tuned_radixsort327830096
	sim-bpred -bpred bimod -bpred:bimod 512 aligned_memory_tuned_radixsort327830096
	sim-bpred -bpred bimod -bpred:bimod 1024 aligned_memory_tuned_radixsort327830096
	sim-bpred -bpred bimod -bpred:bimod 2048 aligned_memory_tuned_radixsort327830096
	sim-bpred -bpred 2lev -bpred:2lev 1 512 10 1 aligned_memory_tuned_radixsort327830096
	sim-bpred -bpred 2lev -bpred:2lev 1 1024 10 1 aligned_memory_tuned_radixsort327830096
	sim-bpred -bpred 2lev -bpred:2lev 1 2048 10 1 aligned_memory_tuned_radixsort327830096
	sim-bpred -bpred 2lev -bpred:2lev 1 4096 10 1 aligned_memory_tuned_radixsort327830096
	sslittle-na-sstrix-gcc -Wall -O3 -funroll-loops -finline-functions  -DRANDOM_SIZE=524288 -DOFFSET=0 -DSORT=aligned_memory_tuned_radixsort sorts/aligned_memory_tuned_radixsort1636208779.c simpleMain.c -o aligned_memory_tuned_radixsort327830096
	sim-cache -cache:dl1 dl1:256:32:1:l -cache:dl2 dl2:131072:32:1:l -cache:il1 il1:256:32:1:l -cache:il2 dl2 aligned_memory_tuned_radixsort327830096
	sim-cache -cache:dl1 dl1:256:32:1:l -cache:dl2 dl2:65536:32:1:l -cache:il1 il1:256:32:1:l -cache:il2 dl2 aligned_memory_tuned_radixsort327830096
	sim-cache -cache:dl1 dl1:1:32:256:l -cache:dl2 dl2:1:32:131072:l -cache:il1 il1:1:32:256:l -cache:il2 dl2 aligned_memory_tuned_radixsort327830096
	sim-cache -cache:dl1 dl1:1:32:256:l -cache:dl2 dl2:1:32:65536:l -cache:il1 il1:1:32:256:l -cache:il2 dl2 aligned_memory_tuned_radixsort327830096
	sim-bpred -bpred bimod -bpred:bimod 512 aligned_memory_tuned_radixsort327830096
	sim-bpred -bpred bimod -bpred:bimod 1024 aligned_memory_tuned_radixsort327830096
	sim-bpred -bpred bimod -bpred:bimod 2048 aligned_memory_tuned_radixsort327830096
	sim-bpred -bpred 2lev -bpred:2lev 1 512 10 1 aligned_memory_tuned_radixsort327830096
	sim-bpred -bpred 2lev -bpred:2lev 1 1024 10 1 aligned_memory_tuned_radixsort327830096
	sim-bpred -bpred 2lev -bpred:2lev 1 2048 10 1 aligned_memory_tuned_radixsort327830096
	sim-bpred -bpred 2lev -bpred:2lev 1 4096 10 1 aligned_memory_tuned_radixsort327830096
	sslittle-na-sstrix-gcc -Wall -O3 -funroll-loops -finline-functions  -DRANDOM_SIZE=1048576 -DOFFSET=0 -DSORT=aligned_memory_tuned_radixsort sorts/aligned_memory_tuned_radixsort1636208779.c simpleMain.c -o aligned_memory_tuned_radixsort327830096
	sim-cache -cache:dl1 dl1:256:32:1:l -cache:dl2 dl2:131072:32:1:l -cache:il1 il1:256:32:1:l -cache:il2 dl2 aligned_memory_tuned_radixsort327830096
	sim-cache -cache:dl1 dl1:256:32:1:l -cache:dl2 dl2:65536:32:1:l -cache:il1 il1:256:32:1:l -cache:il2 dl2 aligned_memory_tuned_radixsort327830096
	sim-cache -cache:dl1 dl1:1:32:256:l -cache:dl2 dl2:1:32:131072:l -cache:il1 il1:1:32:256:l -cache:il2 dl2 aligned_memory_tuned_radixsort327830096
	sim-cache -cache:dl1 dl1:1:32:256:l -cache:dl2 dl2:1:32:65536:l -cache:il1 il1:1:32:256:l -cache:il2 dl2 aligned_memory_tuned_radixsort327830096
	sim-bpred -bpred bimod -bpred:bimod 512 aligned_memory_tuned_radixsort327830096
	sim-bpred -bpred bimod -bpred:bimod 1024 aligned_memory_tuned_radixsort327830096
	sim-bpred -bpred bimod -bpred:bimod 2048 aligned_memory_tuned_radixsort327830096
	sim-bpred -bpred 2lev -bpred:2lev 1 512 10 1 aligned_memory_tuned_radixsort327830096
	sim-bpred -bpred 2lev -bpred:2lev 1 1024 10 1 aligned_memory_tuned_radixsort327830096
	sim-bpred -bpred 2lev -bpred:2lev 1 2048 10 1 aligned_memory_tuned_radixsort327830096
	sim-bpred -bpred 2lev -bpred:2lev 1 4096 10 1 aligned_memory_tuned_radixsort327830096
	sslittle-na-sstrix-gcc -Wall -O3 -funroll-loops -finline-functions  -DRANDOM_SIZE=2097152 -DOFFSET=0 -DSORT=aligned_memory_tuned_radixsort sorts/aligned_memory_tuned_radixsort1636208779.c simpleMain.c -o aligned_memory_tuned_radixsort327830096
	sim-cache -cache:dl1 dl1:256:32:1:l -cache:dl2 dl2:131072:32:1:l -cache:il1 il1:256:32:1:l -cache:il2 dl2 aligned_memory_tuned_radixsort327830096
	sim-cache -cache:dl1 dl1:256:32:1:l -cache:dl2 dl2:65536:32:1:l -cache:il1 il1:256:32:1:l -cache:il2 dl2 aligned_memory_tuned_radixsort327830096
	sim-cache -cache:dl1 dl1:1:32:256:l -cache:dl2 dl2:1:32:131072:l -cache:il1 il1:1:32:256:l -cache:il2 dl2 aligned_memory_tuned_radixsort327830096
	sim-cache -cache:dl1 dl1:1:32:256:l -cache:dl2 dl2:1:32:65536:l -cache:il1 il1:1:32:256:l -cache:il2 dl2 aligned_memory_tuned_radixsort327830096
	sim-bpred -bpred bimod -bpred:bimod 512 aligned_memory_tuned_radixsort327830096
	sim-bpred -bpred bimod -bpred:bimod 1024 aligned_memory_tuned_radixsort327830096
	sim-bpred -bpred bimod -bpred:bimod 2048 aligned_memory_tuned_radixsort327830096
	sim-bpred -bpred 2lev -bpred:2lev 1 512 10 1 aligned_memory_tuned_radixsort327830096
	sim-bpred -bpred 2lev -bpred:2lev 1 1024 10 1 aligned_memory_tuned_radixsort327830096
	sim-bpred -bpred 2lev -bpred:2lev 1 2048 10 1 aligned_memory_tuned_radixsort327830096
	sim-bpred -bpred 2lev -bpred:2lev 1 4096 10 1 aligned_memory_tuned_radixsort327830096
	sslittle-na-sstrix-gcc -Wall -O3 -funroll-loops -finline-functions  -DRANDOM_SIZE=4194304 -DOFFSET=0 -DSORT=aligned_memory_tuned_radixsort sorts/aligned_memory_tuned_radixsort1636208779.c simpleMain.c -o aligned_memory_tuned_radixsort327830096
	sim-cache -cache:dl1 dl1:256:32:1:l -cache:dl2 dl2:131072:32:1:l -cache:il1 il1:256:32:1:l -cache:il2 dl2 aligned_memory_tuned_radixsort327830096
	sim-cache -cache:dl1 dl1:256:32:1:l -cache:dl2 dl2:65536:32:1:l -cache:il1 il1:256:32:1:l -cache:il2 dl2 aligned_memory_tuned_radixsort327830096
	sim-cache -cache:dl1 dl1:1:32:256:l -cache:dl2 dl2:1:32:131072:l -cache:il1 il1:1:32:256:l -cache:il2 dl2 aligned_memory_tuned_radixsort327830096
	sim-cache -cache:dl1 dl1:1:32:256:l -cache:dl2 dl2:1:32:65536:l -cache:il1 il1:1:32:256:l -cache:il2 dl2 aligned_memory_tuned_radixsort327830096
	sim-bpred -bpred bimod -bpred:bimod 512 aligned_memory_tuned_radixsort327830096
	sim-bpred -bpred bimod -bpred:bimod 1024 aligned_memory_tuned_radixsort327830096
	sim-bpred -bpred bimod -bpred:bimod 2048 aligned_memory_tuned_radixsort327830096
	sim-bpred -bpred 2lev -bpred:2lev 1 512 10 1 aligned_memory_tuned_radixsort327830096
	sim-bpred -bpred 2lev -bpred:2lev 1 1024 10 1 aligned_memory_tuned_radixsort327830096
	sim-bpred -bpred 2lev -bpred:2lev 1 2048 10 1 aligned_memory_tuned_radixsort327830096
	sim-bpred -bpred 2lev -bpred:2lev 1 4096 10 1 aligned_memory_tuned_radixsort327830096
