Tue Jul 19 19:20:23 2005
Run as: "./do_simple -c random.org6 -o 6 aligned_cache_radixsort"
-------------------------------------------------------------------------------------------------
sim-cache                                     4096 |         4096 |         4096 |         4096 |         8192 |         8192 |         8192 |         8192 |        16384 |        16384 |        16384 |        16384 |        32768 |        32768 |        32768 |        32768 |        65536 |        65536 |        65536 |        65536 |       131072 |       131072 |       131072 |       131072 |       262144 |       262144 |       262144 |       262144 |       524288 |       524288 |       524288 |       524288 |      1048576 |      1048576 |      1048576 |      1048576 |      2097152 |      2097152 |      2097152 |      2097152 |      4194304 |      4194304 |      4194304 |      4194304 |
-cache:dl1 dl1:256:32:1:l -cache:dl2 dl2:131072:32:1:l -cache:il1 il1:256:32:1:l -cache:il2 dl2
-cache:dl1 dl1:256:32:1:l -cache:dl2 dl2:65536:32:1:l -cache:il1 il1:256:32:1:l -cache:il2 dl2
-cache:dl1 dl1:1:32:256:l -cache:dl2 dl2:1:32:131072:l -cache:il1 il1:1:32:256:l -cache:il2 dl2
-cache:dl1 dl1:1:32:256:l -cache:dl2 dl2:1:32:65536:l -cache:il1 il1:1:32:256:l -cache:il2 dl2
-------------------------------------------------------------------------------------------------
sim_num_insn                                378846 |       378846 |       378846 |       378846 |       744418 |       744418 |       744418 |       744418 |      1475556 |      1475556 |      1475556 |      1475556 |      2937829 |      2937829 |      2937829 |      2937829 |      5862373 |      5862373 |      5862373 |      5862373 |     11711462 |     11711462 |     11711462 |     11711462 |     23409638 |     23409638 |     23409638 |     23409638 |     46818466 |     46818466 |     46818466 |     46818466 |     93611170 |     93611170 |     93611170 |     93611170 |    187205802 |    187205802 |    187205802 |    187205802 |    374395058 |    374395058 |    374395058 |    374395058 |
sim_num_refs                                138965 |       138965 |       138965 |       138965 |       270037 |       270037 |       270037 |       270037 |       532181 |       532181 |       532181 |       532181 |      1056469 |      1056469 |      1056469 |      1056469 |      2105045 |      2105045 |      2105045 |      2105045 |      4202197 |      4202197 |      4202197 |      4202197 |      8396501 |      8396501 |      8396501 |      8396501 |     16794371 |     16794371 |     16794371 |     16794371 |     33571587 |     33571587 |     33571587 |     33571587 |     67132163 |     67132163 |     67132163 |     67132163 |    134253315 |    134253315 |    134253315 |    134253315 |
sim_elapsed_time                                 1 |            1 |           10 |            5 |            1 |            1 |           15 |            8 |            1 |            1 |           25 |           13 |            1 |            1 |           46 |           23 |            2 |            2 |           85 |           40 |            3 |            4 |          155 |           69 |            7 |            8 |          264 |           93 |           15 |           15 |          356 |          100 |           30 |           30 |          369 |          118 |           61 |           60 |          403 |          151 |          121 |          121 |          472 |          220 |
sim_inst_rate                          378846.0000 |  378846.0000 |   37884.6000 |   75769.2000 |  744418.0000 |  744418.0000 |   49627.8667 |   93052.2500 | 1475556.0000 | 1475556.0000 |   59022.2400 |  113504.3077 | 2937829.0000 | 2937829.0000 |   63865.8478 |  127731.6957 | 2931186.5000 | 2931186.5000 |   68969.0941 |  146559.3250 | 3903820.6667 | 2927865.5000 |   75557.8194 |  169731.3333 | 3344234.0000 | 2926204.7500 |   88672.8712 |  251716.5376 | 3121231.0667 | 3121231.0667 |  131512.5449 |  468184.6600 | 3120372.3333 | 3120372.3333 |  253688.8076 |  793315.0000 | 3068947.5738 | 3120096.7000 |  464530.5261 | 1239773.5232 | 3094174.0331 | 3094174.0331 |  793209.8686 | 1701795.7182 |
il1.accesses                                378846 |       378846 |       378846 |       378846 |       744418 |       744418 |       744418 |       744418 |      1475556 |      1475556 |      1475556 |      1475556 |      2937829 |      2937829 |      2937829 |      2937829 |      5862373 |      5862373 |      5862373 |      5862373 |     11711462 |     11711462 |     11711462 |     11711462 |     23409638 |     23409638 |     23409638 |     23409638 |     46818466 |     46818466 |     46818466 |     46818466 |     93611170 |     93611170 |     93611170 |     93611170 |    187205802 |    187205802 |    187205802 |    187205802 |    374395058 |    374395058 |    374395058 |    374395058 |
il1.hits                                    378313 |       378313 |       378410 |       378410 |       743884 |       743884 |       743982 |       743982 |      1475013 |      1475013 |      1475119 |      1475119 |      2937291 |      2937291 |      2937390 |      2937390 |      5861835 |      5861835 |      5861934 |      5861934 |     11710924 |     11710924 |     11711023 |     11711023 |     23409100 |     23409100 |     23409199 |     23409199 |     46817885 |     46817885 |     46817992 |     46817992 |     93610589 |     93610589 |     93610696 |     93610696 |    187205221 |    187205221 |    187205328 |    187205328 |    374394477 |    374394477 |    374394584 |    374394584 |
il1.misses                                     533 |          533 |          436 |          436 |          534 |          534 |          436 |          436 |          543 |          543 |          437 |          437 |          538 |          538 |          439 |          439 |          538 |          538 |          439 |          439 |          538 |          538 |          439 |          439 |          538 |          538 |          439 |          439 |          581 |          581 |          474 |          474 |          581 |          581 |          474 |          474 |          581 |          581 |          474 |          474 |          581 |          581 |          474 |          474 |
il1.replacements                               314 |          314 |          180 |          180 |          316 |          316 |          180 |          180 |          321 |          321 |          181 |          181 |          321 |          321 |          183 |          183 |          321 |          321 |          183 |          183 |          321 |          321 |          183 |          183 |          321 |          321 |          183 |          183 |          353 |          353 |          218 |          218 |          353 |          353 |          218 |          218 |          353 |          353 |          218 |          218 |          353 |          353 |          218 |          218 |
il1.writebacks                                   0 |            0 |            0 |            0 |            0 |            0 |            0 |            0 |            0 |            0 |            0 |            0 |            0 |            0 |            0 |            0 |            0 |            0 |            0 |            0 |            0 |            0 |            0 |            0 |            0 |            0 |            0 |            0 |            0 |            0 |            0 |            0 |            0 |            0 |            0 |            0 |            0 |            0 |            0 |            0 |            0 |            0 |            0 |            0 |
il1.invalidations                                0 |            0 |            0 |            0 |            0 |            0 |            0 |            0 |            0 |            0 |            0 |            0 |            0 |            0 |            0 |            0 |            0 |            0 |            0 |            0 |            0 |            0 |            0 |            0 |            0 |            0 |            0 |            0 |            0 |            0 |            0 |            0 |            0 |            0 |            0 |            0 |            0 |            0 |            0 |            0 |            0 |            0 |            0 |            0 |
il1.miss_rate                               0.0014 |       0.0014 |       0.0012 |       0.0012 |       0.0007 |       0.0007 |       0.0006 |       0.0006 |       0.0004 |       0.0004 |       0.0003 |       0.0003 |       0.0002 |       0.0002 |       0.0001 |       0.0001 |       0.0001 |       0.0001 |       0.0001 |       0.0001 |       0.0000 |       0.0000 |       0.0000 |       0.0000 |       0.0000 |       0.0000 |       0.0000 |       0.0000 |       0.0000 |       0.0000 |       0.0000 |       0.0000 |       0.0000 |       0.0000 |       0.0000 |       0.0000 |       0.0000 |       0.0000 |       0.0000 |       0.0000 |       0.0000 |       0.0000 |       0.0000 |       0.0000 |
il1.repl_rate                               0.0008 |       0.0008 |       0.0005 |       0.0005 |       0.0004 |       0.0004 |       0.0002 |       0.0002 |       0.0002 |       0.0002 |       0.0001 |       0.0001 |       0.0001 |       0.0001 |       0.0001 |       0.0001 |       0.0001 |       0.0001 |       0.0000 |       0.0000 |       0.0000 |       0.0000 |       0.0000 |       0.0000 |       0.0000 |       0.0000 |       0.0000 |       0.0000 |       0.0000 |       0.0000 |       0.0000 |       0.0000 |       0.0000 |       0.0000 |       0.0000 |       0.0000 |       0.0000 |       0.0000 |       0.0000 |       0.0000 |       0.0000 |       0.0000 |       0.0000 |       0.0000 |
il1.wb_rate                                 0.0000 |       0.0000 |       0.0000 |       0.0000 |       0.0000 |       0.0000 |       0.0000 |       0.0000 |       0.0000 |       0.0000 |       0.0000 |       0.0000 |       0.0000 |       0.0000 |       0.0000 |       0.0000 |       0.0000 |       0.0000 |       0.0000 |       0.0000 |       0.0000 |       0.0000 |       0.0000 |       0.0000 |       0.0000 |       0.0000 |       0.0000 |       0.0000 |       0.0000 |       0.0000 |       0.0000 |       0.0000 |       0.0000 |       0.0000 |       0.0000 |       0.0000 |       0.0000 |       0.0000 |       0.0000 |       0.0000 |       0.0000 |       0.0000 |       0.0000 |       0.0000 |
il1.inv_rate                                0.0000 |       0.0000 |       0.0000 |       0.0000 |       0.0000 |       0.0000 |       0.0000 |       0.0000 |       0.0000 |       0.0000 |       0.0000 |       0.0000 |       0.0000 |       0.0000 |       0.0000 |       0.0000 |       0.0000 |       0.0000 |       0.0000 |       0.0000 |       0.0000 |       0.0000 |       0.0000 |       0.0000 |       0.0000 |       0.0000 |       0.0000 |       0.0000 |       0.0000 |       0.0000 |       0.0000 |       0.0000 |       0.0000 |       0.0000 |       0.0000 |       0.0000 |       0.0000 |       0.0000 |       0.0000 |       0.0000 |       0.0000 |       0.0000 |       0.0000 |       0.0000 |
dl1.accesses                                155431 |       155431 |       155431 |       155431 |       302887 |       302887 |       302887 |       302887 |       597799 |       597799 |       597799 |       597799 |      1187623 |      1187623 |      1187623 |      1187623 |      2367271 |      2367271 |      2367271 |      2367271 |      4726567 |      4726567 |      4726567 |      4726567 |      9445159 |      9445159 |      9445159 |      9445159 |     18891605 |     18891605 |     18891605 |     18891605 |     37765973 |     37765973 |     37765973 |     37765973 |     75520853 |     75520853 |     75520853 |     75520853 |    151030613 |    151030613 |    151030613 |    151030613 |
dl1.hits                                    138895 |       138895 |       143925 |       143925 |       269898 |       269898 |       280617 |       280617 |       531137 |       531137 |       554098 |       554098 |      1052878 |      1052878 |      1101070 |      1101070 |      2096164 |      2096164 |      2195459 |      2195459 |      4172533 |      4172533 |      4383083 |      4383083 |      8272945 |      8272945 |      8759724 |      8759724 |     16457790 |     16457790 |     17519300 |     17519300 |     33078700 |     33078700 |     35023806 |     35023806 |     66443024 |     66443024 |     70036009 |     70036009 |    133551009 |    133551009 |    140063350 |    140063350 |
dl1.misses                                   16536 |        16536 |        11506 |        11506 |        32989 |        32989 |        22270 |        22270 |        66662 |        66662 |        43701 |        43701 |       134745 |       134745 |        86553 |        86553 |       271107 |       271107 |       171812 |       171812 |       554034 |       554034 |       343484 |       343484 |      1172214 |      1172214 |       685435 |       685435 |      2433815 |      2433815 |      1372305 |      1372305 |      4687273 |      4687273 |      2742167 |      2742167 |      9077829 |      9077829 |      5484844 |      5484844 |     17479604 |     17479604 |     10967263 |     10967263 |
dl1.replacements                             16280 |        16280 |        11250 |        11250 |        32733 |        32733 |        22014 |        22014 |        66406 |        66406 |        43445 |        43445 |       134489 |       134489 |        86297 |        86297 |       270851 |       270851 |       171556 |       171556 |       553778 |       553778 |       343228 |       343228 |      1171958 |      1171958 |       685179 |       685179 |      2433559 |      2433559 |      1372049 |      1372049 |      4687017 |      4687017 |      2741911 |      2741911 |      9077573 |      9077573 |      5484588 |      5484588 |     17479348 |     17479348 |     10967007 |     10967007 |
dl1.writebacks                               13629 |        13629 |         8733 |         8733 |        27325 |        27325 |        16923 |        16923 |        55462 |        55462 |        33225 |        33225 |       112658 |       112658 |        65835 |        65835 |       227051 |       227051 |       130611 |       130611 |       466091 |       466091 |       261323 |       261323 |       996522 |       996522 |       521352 |       521352 |      2081934 |      2081934 |      1043996 |      1043996 |      3985092 |      3985092 |      2086176 |      2086176 |      7673434 |      7673434 |      4173493 |      4173493 |     14671040 |     14671040 |      8345195 |      8345195 |
dl1.invalidations                                0 |            0 |            0 |            0 |            0 |            0 |            0 |            0 |            0 |            0 |            0 |            0 |            0 |            0 |            0 |            0 |            0 |            0 |            0 |            0 |            0 |            0 |            0 |            0 |            0 |            0 |            0 |            0 |            0 |            0 |            0 |            0 |            0 |            0 |            0 |            0 |            0 |            0 |            0 |            0 |            0 |            0 |            0 |            0 |
dl1.miss_rate                               0.1064 |       0.1064 |       0.0740 |       0.0740 |       0.1089 |       0.1089 |       0.0735 |       0.0735 |       0.1115 |       0.1115 |       0.0731 |       0.0731 |       0.1135 |       0.1135 |       0.0729 |       0.0729 |       0.1145 |       0.1145 |       0.0726 |       0.0726 |       0.1172 |       0.1172 |       0.0727 |       0.0727 |       0.1241 |       0.1241 |       0.0726 |       0.0726 |       0.1288 |       0.1288 |       0.0726 |       0.0726 |       0.1241 |       0.1241 |       0.0726 |       0.0726 |       0.1202 |       0.1202 |       0.0726 |       0.0726 |       0.1157 |       0.1157 |       0.0726 |       0.0726 |
dl1.repl_rate                               0.1047 |       0.1047 |       0.0724 |       0.0724 |       0.1081 |       0.1081 |       0.0727 |       0.0727 |       0.1111 |       0.1111 |       0.0727 |       0.0727 |       0.1132 |       0.1132 |       0.0727 |       0.0727 |       0.1144 |       0.1144 |       0.0725 |       0.0725 |       0.1172 |       0.1172 |       0.0726 |       0.0726 |       0.1241 |       0.1241 |       0.0725 |       0.0725 |       0.1288 |       0.1288 |       0.0726 |       0.0726 |       0.1241 |       0.1241 |       0.0726 |       0.0726 |       0.1202 |       0.1202 |       0.0726 |       0.0726 |       0.1157 |       0.1157 |       0.0726 |       0.0726 |
dl1.wb_rate                                 0.0877 |       0.0877 |       0.0562 |       0.0562 |       0.0902 |       0.0902 |       0.0559 |       0.0559 |       0.0928 |       0.0928 |       0.0556 |       0.0556 |       0.0949 |       0.0949 |       0.0554 |       0.0554 |       0.0959 |       0.0959 |       0.0552 |       0.0552 |       0.0986 |       0.0986 |       0.0553 |       0.0553 |       0.1055 |       0.1055 |       0.0552 |       0.0552 |       0.1102 |       0.1102 |       0.0553 |       0.0553 |       0.1055 |       0.1055 |       0.0552 |       0.0552 |       0.1016 |       0.1016 |       0.0553 |       0.0553 |       0.0971 |       0.0971 |       0.0553 |       0.0553 |
dl1.inv_rate                                0.0000 |       0.0000 |       0.0000 |       0.0000 |       0.0000 |       0.0000 |       0.0000 |       0.0000 |       0.0000 |       0.0000 |       0.0000 |       0.0000 |       0.0000 |       0.0000 |       0.0000 |       0.0000 |       0.0000 |       0.0000 |       0.0000 |       0.0000 |       0.0000 |       0.0000 |       0.0000 |       0.0000 |       0.0000 |       0.0000 |       0.0000 |       0.0000 |       0.0000 |       0.0000 |       0.0000 |       0.0000 |       0.0000 |       0.0000 |       0.0000 |       0.0000 |       0.0000 |       0.0000 |       0.0000 |       0.0000 |       0.0000 |       0.0000 |       0.0000 |       0.0000 |
dl2.accesses                                 30698 |        30698 |        20675 |        20675 |        60848 |        60848 |        39629 |        39629 |       122667 |       122667 |        77363 |        77363 |       247941 |       247941 |       152827 |       152827 |       498696 |       498696 |       302862 |       302862 |      1020663 |      1020663 |       605246 |       605246 |      2169274 |      2169274 |      1207226 |      1207226 |      4516330 |      4516330 |      2416775 |      2416775 |      8672946 |      8672946 |      4828817 |      4828817 |     16751844 |     16751844 |      9658811 |      9658811 |     32151225 |     32151225 |     19312932 |     19312932 |
dl2.hits                                     28778 |        28778 |        18772 |        18772 |        57903 |        57903 |        36702 |        36702 |       117673 |       117673 |        72386 |        72386 |       238846 |       238846 |       143754 |       143754 |       481409 |       481409 |       285597 |       285597 |       986992 |       986992 |       571597 |       571597 |      2102835 |      2101851 |      1140809 |      1138450 |      4219868 |      4032006 |      2281105 |      1818482 |      7777731 |      7383980 |      3635164 |      3541847 |     14181267 |     14049063 |      7086906 |      7046251 |     26806861 |     26669530 |     14089856 |     14070714 |
dl2.misses                                    1920 |         1920 |         1903 |         1903 |         2945 |         2945 |         2927 |         2927 |         4994 |         4994 |         4977 |         4977 |         9095 |         9095 |         9073 |         9073 |        17287 |        17287 |        17265 |        17265 |        33671 |        33671 |        33649 |        33649 |        66439 |        67423 |        66417 |        68776 |       296462 |       484324 |       135670 |       598293 |       895215 |      1288966 |      1193653 |      1286970 |      2570577 |      2702781 |      2571905 |      2612560 |      5344364 |      5481695 |      5223076 |      5242218 |
dl2.replacements                               130 |          130 |            0 |            0 |          129 |          129 |            0 |            0 |          128 |          128 |            0 |            0 |          133 |          133 |            0 |            0 |          133 |          133 |            0 |            0 |          133 |          133 |            0 |            0 |          133 |         1944 |            0 |         3240 |       196649 |       418788 |         4598 |       532757 |       764143 |      1223430 |      1062581 |      1221434 |      2439505 |      2637245 |      2440833 |      2547024 |      5213292 |      5416159 |      5092004 |      5176682 |
dl2.writebacks                                  66 |           66 |            0 |            0 |           64 |           64 |            0 |            0 |           64 |           64 |            0 |            0 |           64 |           64 |            0 |            0 |           64 |           64 |            0 |            0 |           64 |           64 |            0 |            0 |           64 |         1172 |            0 |         2998 |       158078 |       301235 |         4286 |       297012 |       596160 |       656010 |       591910 |       624729 |      1300058 |      1388430 |      1248072 |      1280928 |      2719588 |      2853743 |      2560356 |      2593308 |
dl2.invalidations                                0 |            0 |            0 |            0 |            0 |            0 |            0 |            0 |            0 |            0 |            0 |            0 |            0 |            0 |            0 |            0 |            0 |            0 |            0 |            0 |            0 |            0 |            0 |            0 |            0 |            0 |            0 |            0 |            0 |            0 |            0 |            0 |            0 |            0 |            0 |            0 |            0 |            0 |            0 |            0 |            0 |            0 |            0 |            0 |
dl2.miss_rate                               0.0625 |       0.0625 |       0.0920 |       0.0920 |       0.0484 |       0.0484 |       0.0739 |       0.0739 |       0.0407 |       0.0407 |       0.0643 |       0.0643 |       0.0367 |       0.0367 |       0.0594 |       0.0594 |       0.0347 |       0.0347 |       0.0570 |       0.0570 |       0.0330 |       0.0330 |       0.0556 |       0.0556 |       0.0306 |       0.0311 |       0.0550 |       0.0570 |       0.0656 |       0.1072 |       0.0561 |       0.2476 |       0.1032 |       0.1486 |       0.2472 |       0.2665 |       0.1535 |       0.1613 |       0.2663 |       0.2705 |       0.1662 |       0.1705 |       0.2704 |       0.2714 |
dl2.repl_rate                               0.0042 |       0.0042 |       0.0000 |       0.0000 |       0.0021 |       0.0021 |       0.0000 |       0.0000 |       0.0010 |       0.0010 |       0.0000 |       0.0000 |       0.0005 |       0.0005 |       0.0000 |       0.0000 |       0.0003 |       0.0003 |       0.0000 |       0.0000 |       0.0001 |       0.0001 |       0.0000 |       0.0000 |       0.0001 |       0.0009 |       0.0000 |       0.0027 |       0.0435 |       0.0927 |       0.0019 |       0.2204 |       0.0881 |       0.1411 |       0.2200 |       0.2529 |       0.1456 |       0.1574 |       0.2527 |       0.2637 |       0.1621 |       0.1685 |       0.2637 |       0.2680 |
dl2.wb_rate                                 0.0021 |       0.0021 |       0.0000 |       0.0000 |       0.0011 |       0.0011 |       0.0000 |       0.0000 |       0.0005 |       0.0005 |       0.0000 |       0.0000 |       0.0003 |       0.0003 |       0.0000 |       0.0000 |       0.0001 |       0.0001 |       0.0000 |       0.0000 |       0.0001 |       0.0001 |       0.0000 |       0.0000 |       0.0000 |       0.0005 |       0.0000 |       0.0025 |       0.0350 |       0.0667 |       0.0018 |       0.1229 |       0.0687 |       0.0756 |       0.1226 |       0.1294 |       0.0776 |       0.0829 |       0.1292 |       0.1326 |       0.0846 |       0.0888 |       0.1326 |       0.1343 |
dl2.inv_rate                                0.0000 |       0.0000 |       0.0000 |       0.0000 |       0.0000 |       0.0000 |       0.0000 |       0.0000 |       0.0000 |       0.0000 |       0.0000 |       0.0000 |       0.0000 |       0.0000 |       0.0000 |       0.0000 |       0.0000 |       0.0000 |       0.0000 |       0.0000 |       0.0000 |       0.0000 |       0.0000 |       0.0000 |       0.0000 |       0.0000 |       0.0000 |       0.0000 |       0.0000 |       0.0000 |       0.0000 |       0.0000 |       0.0000 |       0.0000 |       0.0000 |       0.0000 |       0.0000 |       0.0000 |       0.0000 |       0.0000 |       0.0000 |       0.0000 |       0.0000 |       0.0000 |
itlb.accesses                               378846 |       378846 |       378846 |       378846 |       744418 |       744418 |       744418 |       744418 |      1475556 |      1475556 |      1475556 |      1475556 |      2937829 |      2937829 |      2937829 |      2937829 |      5862373 |      5862373 |      5862373 |      5862373 |     11711462 |     11711462 |     11711462 |     11711462 |     23409638 |     23409638 |     23409638 |     23409638 |     46818466 |     46818466 |     46818466 |     46818466 |     93611170 |     93611170 |     93611170 |     93611170 |    187205802 |    187205802 |    187205802 |    187205802 |    374395058 |    374395058 |    374395058 |    374395058 |
itlb.hits                                   378837 |       378837 |       378837 |       378837 |       744409 |       744409 |       744409 |       744409 |      1475547 |      1475547 |      1475547 |      1475547 |      2937820 |      2937820 |      2937820 |      2937820 |      5862364 |      5862364 |      5862364 |      5862364 |     11711453 |     11711453 |     11711453 |     11711453 |     23409629 |     23409629 |     23409629 |     23409629 |     46818457 |     46818457 |     46818457 |     46818457 |     93611161 |     93611161 |     93611161 |     93611161 |    187205793 |    187205793 |    187205793 |    187205793 |    374395049 |    374395049 |    374395049 |    374395049 |
itlb.misses                                      9 |            9 |            9 |            9 |            9 |            9 |            9 |            9 |            9 |            9 |            9 |            9 |            9 |            9 |            9 |            9 |            9 |            9 |            9 |            9 |            9 |            9 |            9 |            9 |            9 |            9 |            9 |            9 |            9 |            9 |            9 |            9 |            9 |            9 |            9 |            9 |            9 |            9 |            9 |            9 |            9 |            9 |            9 |            9 |
itlb.replacements                                0 |            0 |            0 |            0 |            0 |            0 |            0 |            0 |            0 |            0 |            0 |            0 |            0 |            0 |            0 |            0 |            0 |            0 |            0 |            0 |            0 |            0 |            0 |            0 |            0 |            0 |            0 |            0 |            0 |            0 |            0 |            0 |            0 |            0 |            0 |            0 |            0 |            0 |            0 |            0 |            0 |            0 |            0 |            0 |
itlb.writebacks                                  0 |            0 |            0 |            0 |            0 |            0 |            0 |            0 |            0 |            0 |            0 |            0 |            0 |            0 |            0 |            0 |            0 |            0 |            0 |            0 |            0 |            0 |            0 |            0 |            0 |            0 |            0 |            0 |            0 |            0 |            0 |            0 |            0 |            0 |            0 |            0 |            0 |            0 |            0 |            0 |            0 |            0 |            0 |            0 |
itlb.invalidations                               0 |            0 |            0 |            0 |            0 |            0 |            0 |            0 |            0 |            0 |            0 |            0 |            0 |            0 |            0 |            0 |            0 |            0 |            0 |            0 |            0 |            0 |            0 |            0 |            0 |            0 |            0 |            0 |            0 |            0 |            0 |            0 |            0 |            0 |            0 |            0 |            0 |            0 |            0 |            0 |            0 |            0 |            0 |            0 |
itlb.miss_rate                              0.0000 |       0.0000 |       0.0000 |       0.0000 |       0.0000 |       0.0000 |       0.0000 |       0.0000 |       0.0000 |       0.0000 |       0.0000 |       0.0000 |       0.0000 |       0.0000 |       0.0000 |       0.0000 |       0.0000 |       0.0000 |       0.0000 |       0.0000 |       0.0000 |       0.0000 |       0.0000 |       0.0000 |       0.0000 |       0.0000 |       0.0000 |       0.0000 |       0.0000 |       0.0000 |       0.0000 |       0.0000 |       0.0000 |       0.0000 |       0.0000 |       0.0000 |       0.0000 |       0.0000 |       0.0000 |       0.0000 |       0.0000 |       0.0000 |       0.0000 |       0.0000 |
itlb.repl_rate                              0.0000 |       0.0000 |       0.0000 |       0.0000 |       0.0000 |       0.0000 |       0.0000 |       0.0000 |       0.0000 |       0.0000 |       0.0000 |       0.0000 |       0.0000 |       0.0000 |       0.0000 |       0.0000 |       0.0000 |       0.0000 |       0.0000 |       0.0000 |       0.0000 |       0.0000 |       0.0000 |       0.0000 |       0.0000 |       0.0000 |       0.0000 |       0.0000 |       0.0000 |       0.0000 |       0.0000 |       0.0000 |       0.0000 |       0.0000 |       0.0000 |       0.0000 |       0.0000 |       0.0000 |       0.0000 |       0.0000 |       0.0000 |       0.0000 |       0.0000 |       0.0000 |
itlb.wb_rate                                0.0000 |       0.0000 |       0.0000 |       0.0000 |       0.0000 |       0.0000 |       0.0000 |       0.0000 |       0.0000 |       0.0000 |       0.0000 |       0.0000 |       0.0000 |       0.0000 |       0.0000 |       0.0000 |       0.0000 |       0.0000 |       0.0000 |       0.0000 |       0.0000 |       0.0000 |       0.0000 |       0.0000 |       0.0000 |       0.0000 |       0.0000 |       0.0000 |       0.0000 |       0.0000 |       0.0000 |       0.0000 |       0.0000 |       0.0000 |       0.0000 |       0.0000 |       0.0000 |       0.0000 |       0.0000 |       0.0000 |       0.0000 |       0.0000 |       0.0000 |       0.0000 |
itlb.inv_rate                               0.0000 |       0.0000 |       0.0000 |       0.0000 |       0.0000 |       0.0000 |       0.0000 |       0.0000 |       0.0000 |       0.0000 |       0.0000 |       0.0000 |       0.0000 |       0.0000 |       0.0000 |       0.0000 |       0.0000 |       0.0000 |       0.0000 |       0.0000 |       0.0000 |       0.0000 |       0.0000 |       0.0000 |       0.0000 |       0.0000 |       0.0000 |       0.0000 |       0.0000 |       0.0000 |       0.0000 |       0.0000 |       0.0000 |       0.0000 |       0.0000 |       0.0000 |       0.0000 |       0.0000 |       0.0000 |       0.0000 |       0.0000 |       0.0000 |       0.0000 |       0.0000 |
dtlb.accesses                               155431 |       155431 |       155431 |       155431 |       302887 |       302887 |       302887 |       302887 |       597799 |       597799 |       597799 |       597799 |      1187623 |      1187623 |      1187623 |      1187623 |      2367271 |      2367271 |      2367271 |      2367271 |      4726567 |      4726567 |      4726567 |      4726567 |      9445159 |      9445159 |      9445159 |      9445159 |     18891605 |     18891605 |     18891605 |     18891605 |     37765973 |     37765973 |     37765973 |     37765973 |     75520853 |     75520853 |     75520853 |     75520853 |    151030613 |    151030613 |    151030613 |    151030613 |
dtlb.hits                                   155415 |       155415 |       155415 |       155415 |       302863 |       302863 |       302863 |       302863 |       597759 |       597759 |       597759 |       597759 |      1187551 |      1187551 |      1187551 |      1187551 |      2367108 |      2367108 |      2367108 |      2367108 |      4716214 |      4716214 |      4716214 |      4716214 |      8918973 |      8918973 |      8918973 |      8918973 |     17553293 |     17553293 |     17553293 |     17553293 |     34507798 |     34507798 |     34507798 |     34507798 |     68295061 |     68295061 |     68295061 |     68295061 |    135748475 |    135748475 |    135748475 |    135748475 |
dtlb.misses                                     16 |           16 |           16 |           16 |           24 |           24 |           24 |           24 |           40 |           40 |           40 |           40 |           72 |           72 |           72 |           72 |          163 |          163 |          163 |          163 |        10353 |        10353 |        10353 |        10353 |       526186 |       526186 |       526186 |       526186 |      1338312 |      1338312 |      1338312 |      1338312 |      3258175 |      3258175 |      3258175 |      3258175 |      7225792 |      7225792 |      7225792 |      7225792 |     15282138 |     15282138 |     15282138 |     15282138 |
dtlb.replacements                                0 |            0 |            0 |            0 |            0 |            0 |            0 |            0 |            0 |            0 |            0 |            0 |            0 |            0 |            0 |            0 |           35 |           35 |           35 |           35 |        10225 |        10225 |        10225 |        10225 |       526058 |       526058 |       526058 |       526058 |      1338184 |      1338184 |      1338184 |      1338184 |      3258047 |      3258047 |      3258047 |      3258047 |      7225664 |      7225664 |      7225664 |      7225664 |     15282010 |     15282010 |     15282010 |     15282010 |
dtlb.writebacks                                  0 |            0 |            0 |            0 |            0 |            0 |            0 |            0 |            0 |            0 |            0 |            0 |            0 |            0 |            0 |            0 |           26 |           26 |           26 |           26 |         9694 |         9694 |         9694 |         9694 |       524777 |       524777 |       524777 |       524777 |      1335624 |      1335624 |      1335624 |      1335624 |      3253009 |      3253009 |      3253009 |      3253009 |      7215501 |      7215501 |      7215501 |      7215501 |     15261626 |     15261626 |     15261626 |     15261626 |
dtlb.invalidations                               0 |            0 |            0 |            0 |            0 |            0 |            0 |            0 |            0 |            0 |            0 |            0 |            0 |            0 |            0 |            0 |            0 |            0 |            0 |            0 |            0 |            0 |            0 |            0 |            0 |            0 |            0 |            0 |            0 |            0 |            0 |            0 |            0 |            0 |            0 |            0 |            0 |            0 |            0 |            0 |            0 |            0 |            0 |            0 |
dtlb.miss_rate                              0.0001 |       0.0001 |       0.0001 |       0.0001 |       0.0001 |       0.0001 |       0.0001 |       0.0001 |       0.0001 |       0.0001 |       0.0001 |       0.0001 |       0.0001 |       0.0001 |       0.0001 |       0.0001 |       0.0001 |       0.0001 |       0.0001 |       0.0001 |       0.0022 |       0.0022 |       0.0022 |       0.0022 |       0.0557 |       0.0557 |       0.0557 |       0.0557 |       0.0708 |       0.0708 |       0.0708 |       0.0708 |       0.0863 |       0.0863 |       0.0863 |       0.0863 |       0.0957 |       0.0957 |       0.0957 |       0.0957 |       0.1012 |       0.1012 |       0.1012 |       0.1012 |
dtlb.repl_rate                              0.0000 |       0.0000 |       0.0000 |       0.0000 |       0.0000 |       0.0000 |       0.0000 |       0.0000 |       0.0000 |       0.0000 |       0.0000 |       0.0000 |       0.0000 |       0.0000 |       0.0000 |       0.0000 |       0.0000 |       0.0000 |       0.0000 |       0.0000 |       0.0022 |       0.0022 |       0.0022 |       0.0022 |       0.0557 |       0.0557 |       0.0557 |       0.0557 |       0.0708 |       0.0708 |       0.0708 |       0.0708 |       0.0863 |       0.0863 |       0.0863 |       0.0863 |       0.0957 |       0.0957 |       0.0957 |       0.0957 |       0.1012 |       0.1012 |       0.1012 |       0.1012 |
dtlb.wb_rate                                0.0000 |       0.0000 |       0.0000 |       0.0000 |       0.0000 |       0.0000 |       0.0000 |       0.0000 |       0.0000 |       0.0000 |       0.0000 |       0.0000 |       0.0000 |       0.0000 |       0.0000 |       0.0000 |       0.0000 |       0.0000 |       0.0000 |       0.0000 |       0.0021 |       0.0021 |       0.0021 |       0.0021 |       0.0556 |       0.0556 |       0.0556 |       0.0556 |       0.0707 |       0.0707 |       0.0707 |       0.0707 |       0.0861 |       0.0861 |       0.0861 |       0.0861 |       0.0955 |       0.0955 |       0.0955 |       0.0955 |       0.1010 |       0.1010 |       0.1010 |       0.1010 |
dtlb.inv_rate                               0.0000 |       0.0000 |       0.0000 |       0.0000 |       0.0000 |       0.0000 |       0.0000 |       0.0000 |       0.0000 |       0.0000 |       0.0000 |       0.0000 |       0.0000 |       0.0000 |       0.0000 |       0.0000 |       0.0000 |       0.0000 |       0.0000 |       0.0000 |       0.0000 |       0.0000 |       0.0000 |       0.0000 |       0.0000 |       0.0000 |       0.0000 |       0.0000 |       0.0000 |       0.0000 |       0.0000 |       0.0000 |       0.0000 |       0.0000 |       0.0000 |       0.0000 |       0.0000 |       0.0000 |       0.0000 |       0.0000 |       0.0000 |       0.0000 |       0.0000 |       0.0000 |
ld_text_base                            0x00400000 |   0x00400000 |   0x00400000 |   0x00400000 |   0x00400000 |   0x00400000 |   0x00400000 |   0x00400000 |   0x00400000 |   0x00400000 |   0x00400000 |   0x00400000 |   0x00400000 |   0x00400000 |   0x00400000 |   0x00400000 |   0x00400000 |   0x00400000 |   0x00400000 |   0x00400000 |   0x00400000 |   0x00400000 |   0x00400000 |   0x00400000 |   0x00400000 |   0x00400000 |   0x00400000 |   0x00400000 |   0x00400000 |   0x00400000 |   0x00400000 |   0x00400000 |   0x00400000 |   0x00400000 |   0x00400000 |   0x00400000 |   0x00400000 |   0x00400000 |   0x00400000 |   0x00400000 |   0x00400000 |   0x00400000 |   0x00400000 |   0x00400000 |
ld_text_size                                 74416 |        74416 |        74416 |        74416 |        74448 |        74448 |        74448 |        74448 |        74464 |        74464 |        74464 |        74464 |        74480 |        74480 |        74480 |        74480 |        74480 |        74480 |        74480 |        74480 |        74480 |        74480 |        74480 |        74480 |        74480 |        74480 |        74480 |        74480 |        74480 |        74480 |        74480 |        74480 |        74480 |        74480 |        74480 |        74480 |        74480 |        74480 |        74480 |        74480 |        74480 |        74480 |        74480 |        74480 |
ld_data_base                            0x10000000 |   0x10000000 |   0x10000000 |   0x10000000 |   0x10000000 |   0x10000000 |   0x10000000 |   0x10000000 |   0x10000000 |   0x10000000 |   0x10000000 |   0x10000000 |   0x10000000 |   0x10000000 |   0x10000000 |   0x10000000 |   0x10000000 |   0x10000000 |   0x10000000 |   0x10000000 |   0x10000000 |   0x10000000 |   0x10000000 |   0x10000000 |   0x10000000 |   0x10000000 |   0x10000000 |   0x10000000 |   0x10000000 |   0x10000000 |   0x10000000 |   0x10000000 |   0x10000000 |   0x10000000 |   0x10000000 |   0x10000000 |   0x10000000 |   0x10000000 |   0x10000000 |   0x10000000 |   0x10000000 |   0x10000000 |   0x10000000 |   0x10000000 |
ld_data_size                                  8192 |         8192 |         8192 |         8192 |         8192 |         8192 |         8192 |         8192 |         8192 |         8192 |         8192 |         8192 |         8192 |         8192 |         8192 |         8192 |         8192 |         8192 |         8192 |         8192 |         8192 |         8192 |         8192 |         8192 |         8192 |         8192 |         8192 |         8192 |         8192 |         8192 |         8192 |         8192 |         8192 |         8192 |         8192 |         8192 |         8192 |         8192 |         8192 |         8192 |         8192 |         8192 |         8192 |         8192 |
ld_stack_base                           0x7fffc000 |   0x7fffc000 |   0x7fffc000 |   0x7fffc000 |   0x7fffc000 |   0x7fffc000 |   0x7fffc000 |   0x7fffc000 |   0x7fffc000 |   0x7fffc000 |   0x7fffc000 |   0x7fffc000 |   0x7fffc000 |   0x7fffc000 |   0x7fffc000 |   0x7fffc000 |   0x7fffc000 |   0x7fffc000 |   0x7fffc000 |   0x7fffc000 |   0x7fffc000 |   0x7fffc000 |   0x7fffc000 |   0x7fffc000 |   0x7fffc000 |   0x7fffc000 |   0x7fffc000 |   0x7fffc000 |   0x7fffc000 |   0x7fffc000 |   0x7fffc000 |   0x7fffc000 |   0x7fffc000 |   0x7fffc000 |   0x7fffc000 |   0x7fffc000 |   0x7fffc000 |   0x7fffc000 |   0x7fffc000 |   0x7fffc000 |   0x7fffc000 |   0x7fffc000 |   0x7fffc000 |   0x7fffc000 |
ld_stack_size                                16384 |        16384 |        16384 |        16384 |        16384 |        16384 |        16384 |        16384 |        16384 |        16384 |        16384 |        16384 |        16384 |        16384 |        16384 |        16384 |        16384 |        16384 |        16384 |        16384 |        16384 |        16384 |        16384 |        16384 |        16384 |        16384 |        16384 |        16384 |        16384 |        16384 |        16384 |        16384 |        16384 |        16384 |        16384 |        16384 |        16384 |        16384 |        16384 |        16384 |        16384 |        16384 |        16384 |        16384 |
ld_prog_entry                           0x00400140 |   0x00400140 |   0x00400140 |   0x00400140 |   0x00400140 |   0x00400140 |   0x00400140 |   0x00400140 |   0x00400140 |   0x00400140 |   0x00400140 |   0x00400140 |   0x00400140 |   0x00400140 |   0x00400140 |   0x00400140 |   0x00400140 |   0x00400140 |   0x00400140 |   0x00400140 |   0x00400140 |   0x00400140 |   0x00400140 |   0x00400140 |   0x00400140 |   0x00400140 |   0x00400140 |   0x00400140 |   0x00400140 |   0x00400140 |   0x00400140 |   0x00400140 |   0x00400140 |   0x00400140 |   0x00400140 |   0x00400140 |   0x00400140 |   0x00400140 |   0x00400140 |   0x00400140 |   0x00400140 |   0x00400140 |   0x00400140 |   0x00400140 |
ld_environ_base                         0x7fff8000 |   0x7fff8000 |   0x7fff8000 |   0x7fff8000 |   0x7fff8000 |   0x7fff8000 |   0x7fff8000 |   0x7fff8000 |   0x7fff8000 |   0x7fff8000 |   0x7fff8000 |   0x7fff8000 |   0x7fff8000 |   0x7fff8000 |   0x7fff8000 |   0x7fff8000 |   0x7fff8000 |   0x7fff8000 |   0x7fff8000 |   0x7fff8000 |   0x7fff8000 |   0x7fff8000 |   0x7fff8000 |   0x7fff8000 |   0x7fff8000 |   0x7fff8000 |   0x7fff8000 |   0x7fff8000 |   0x7fff8000 |   0x7fff8000 |   0x7fff8000 |   0x7fff8000 |   0x7fff8000 |   0x7fff8000 |   0x7fff8000 |   0x7fff8000 |   0x7fff8000 |   0x7fff8000 |   0x7fff8000 |   0x7fff8000 |   0x7fff8000 |   0x7fff8000 |   0x7fff8000 |   0x7fff8000 |
ld_target_big_endian                             0 |            0 |            0 |            0 |            0 |            0 |            0 |            0 |            0 |            0 |            0 |            0 |            0 |            0 |            0 |            0 |            0 |            0 |            0 |            0 |            0 |            0 |            0 |            0 |            0 |            0 |            0 |            0 |            0 |            0 |            0 |            0 |            0 |            0 |            0 |            0 |            0 |            0 |            0 |            0 |            0 |            0 |            0 |            0 |
mem.page_count                                  35 |           35 |           35 |           35 |           43 |           43 |           43 |           43 |           59 |           59 |           59 |           59 |           91 |           91 |           91 |           91 |          155 |          155 |          155 |          155 |          283 |          283 |          283 |          283 |          539 |          539 |          539 |          539 |         1057 |         1057 |         1057 |         1057 |         2081 |         2081 |         2081 |         2081 |         4135 |         4135 |         4135 |         4135 |         8243 |         8243 |         8243 |         8243 |
mem.page_mem                                  140k |         140k |         140k |         140k |         172k |         172k |         172k |         172k |         236k |         236k |         236k |         236k |         364k |         364k |         364k |         364k |         620k |         620k |         620k |         620k |        1132k |        1132k |        1132k |        1132k |        2156k |        2156k |        2156k |        2156k |        4228k |        4228k |        4228k |        4228k |        8324k |        8324k |        8324k |        8324k |       16540k |       16540k |       16540k |       16540k |       32972k |       32972k |       32972k |       32972k |
mem.ptab_misses                                 35 |           35 |           35 |           35 |           43 |           43 |           43 |           43 |           59 |           59 |           59 |           59 |           91 |           91 |           91 |           91 |          155 |          155 |          155 |          155 |          283 |          283 |          283 |          283 |          539 |          539 |          539 |          539 |         1060 |         1060 |         1060 |         1060 |        16424 |        16424 |        16424 |        16424 |        18478 |        18478 |        18478 |        18478 |        22586 |        22586 |        22586 |        22586 |
mem.ptab_accesses                          2287334 |      2287334 |      2287334 |      2287334 |      4044726 |      4044726 |      4044726 |      4044726 |      7559198 |      7559198 |      7559198 |      7559198 |     14588034 |     14588034 |     14588034 |     14588034 |     28645506 |     28645506 |     28645506 |     28645506 |     56760454 |     56760454 |     56760454 |     56760454 |    112990342 |    112990342 |    112990342 |    112990342 |    225518546 |    225518546 |    225518546 |    225518546 |    450438098 |    450438098 |    450438098 |    450438098 |    900326386 |    900326386 |    900326386 |    900326386 |   1800102930 |   1800102930 |   1800102930 |   1800102930 |
mem.ptab_miss_rate                          0.0000 |       0.0000 |       0.0000 |       0.0000 |       0.0000 |       0.0000 |       0.0000 |       0.0000 |       0.0000 |       0.0000 |       0.0000 |       0.0000 |       0.0000 |       0.0000 |       0.0000 |       0.0000 |       0.0000 |       0.0000 |       0.0000 |       0.0000 |       0.0000 |       0.0000 |       0.0000 |       0.0000 |       0.0000 |       0.0000 |       0.0000 |       0.0000 |       0.0000 |       0.0000 |       0.0000 |       0.0000 |       0.0000 |       0.0000 |       0.0000 |       0.0000 |       0.0000 |       0.0000 |       0.0000 |       0.0000 |       0.0000 |       0.0000 |       0.0000 |       0.0000 |
-------------------------------------------------------------------------------------------------
sim-bpred                                     4096 |         4096 |         4096 |         4096 |         4096 |         4096 |         4096 |         8192 |         8192 |         8192 |         8192 |         8192 |         8192 |         8192 |        16384 |        16384 |        16384 |        16384 |        16384 |        16384 |        16384 |        32768 |        32768 |        32768 |        32768 |        32768 |        32768 |        32768 |        65536 |        65536 |        65536 |        65536 |        65536 |        65536 |        65536 |       131072 |       131072 |       131072 |       131072 |       131072 |       131072 |       131072 |       262144 |       262144 |       262144 |       262144 |       262144 |       262144 |       262144 |       524288 |       524288 |       524288 |       524288 |       524288 |       524288 |       524288 |      1048576 |      1048576 |      1048576 |      1048576 |      1048576 |      1048576 |      1048576 |      2097152 |      2097152 |      2097152 |      2097152 |      2097152 |      2097152 |      2097152 |      4194304 |      4194304 |      4194304 |      4194304 |      4194304 |      4194304 |      4194304 |
-bpred bimod -bpred:bimod 512
-bpred bimod -bpred:bimod 1024
-bpred bimod -bpred:bimod 2048
-bpred 2lev -bpred:2lev 1 512 10 1
-bpred 2lev -bpred:2lev 1 1024 10 1
-bpred 2lev -bpred:2lev 1 2048 10 1
-bpred 2lev -bpred:2lev 1 4096 10 1
-------------------------------------------------------------------------------------------------
sim_num_insn                                378846 |       378846 |       378846 |       378846 |       378846 |       378846 |       378846 |       744418 |       744418 |       744418 |       744418 |       744418 |       744418 |       744418 |      1475556 |      1475556 |      1475556 |      1475556 |      1475556 |      1475556 |      1475556 |      2937829 |      2937829 |      2937829 |      2937829 |      2937829 |      2937829 |      2937829 |      5862373 |      5862373 |      5862373 |      5862373 |      5862373 |      5862373 |      5862373 |     11711462 |     11711462 |     11711462 |     11711462 |     11711462 |     11711462 |     11711462 |     23409638 |     23409638 |     23409638 |     23409638 |     23409638 |     23409638 |     23409638 |     46818466 |     46818466 |     46818466 |     46818466 |     46818466 |     46818466 |     46818466 |     93611170 |     93611170 |     93611170 |     93611170 |     93611170 |     93611170 |     93611170 |    187205802 |    187205802 |    187205802 |    187205802 |    187205802 |    187205802 |    187205802 |    374395058 |    374395058 |    374395058 |    374395058 |    374395058 |    374395058 |    374395058 |
sim_num_refs                                138965 |       138965 |       138965 |       138965 |       138965 |       138965 |       138965 |       270037 |       270037 |       270037 |       270037 |       270037 |       270037 |       270037 |       532181 |       532181 |       532181 |       532181 |       532181 |       532181 |       532181 |      1056469 |      1056469 |      1056469 |      1056469 |      1056469 |      1056469 |      1056469 |      2105045 |      2105045 |      2105045 |      2105045 |      2105045 |      2105045 |      2105045 |      4202197 |      4202197 |      4202197 |      4202197 |      4202197 |      4202197 |      4202197 |      8396501 |      8396501 |      8396501 |      8396501 |      8396501 |      8396501 |      8396501 |     16794371 |     16794371 |     16794371 |     16794371 |     16794371 |     16794371 |     16794371 |     33571587 |     33571587 |     33571587 |     33571587 |     33571587 |     33571587 |     33571587 |     67132163 |     67132163 |     67132163 |     67132163 |     67132163 |     67132163 |     67132163 |    134253315 |    134253315 |    134253315 |    134253315 |    134253315 |    134253315 |    134253315 |
sim_elapsed_time                                 1 |            1 |            1 |            1 |            1 |            1 |            1 |            1 |            1 |            1 |            1 |            1 |            1 |            1 |            1 |            1 |            1 |            1 |            1 |            1 |            1 |            1 |            1 |            1 |            1 |            1 |            1 |            1 |            1 |            1 |            1 |            1 |            1 |            1 |            1 |            2 |            1 |            1 |            1 |            1 |            1 |            1 |            2 |            3 |            2 |            2 |            2 |            3 |            2 |            5 |            4 |            5 |            4 |            5 |            5 |            4 |            9 |            9 |            9 |            9 |            9 |            9 |            9 |           18 |           18 |           18 |           18 |           18 |           18 |           18 |           36 |           37 |           36 |           37 |           36 |           37 |           36 |
sim_inst_rate                          378846.0000 |  378846.0000 |  378846.0000 |  378846.0000 |  378846.0000 |  378846.0000 |  378846.0000 |  744418.0000 |  744418.0000 |  744418.0000 |  744418.0000 |  744418.0000 |  744418.0000 |  744418.0000 | 1475556.0000 | 1475556.0000 | 1475556.0000 | 1475556.0000 | 1475556.0000 | 1475556.0000 | 1475556.0000 | 2937829.0000 | 2937829.0000 | 2937829.0000 | 2937829.0000 | 2937829.0000 | 2937829.0000 | 2937829.0000 | 5862373.0000 | 5862373.0000 | 5862373.0000 | 5862373.0000 | 5862373.0000 | 5862373.0000 | 5862373.0000 | 5855731.0000 |11711462.0000 |11711462.0000 |11711462.0000 |11711462.0000 |11711462.0000 |11711462.0000 |11704819.0000 | 7803212.6667 |11704819.0000 |11704819.0000 |11704819.0000 | 7803212.6667 |11704819.0000 | 9363693.2000 |11704616.5000 | 9363693.2000 |11704616.5000 | 9363693.2000 | 9363693.2000 |11704616.5000 |10401241.1111 |10401241.1111 |10401241.1111 |10401241.1111 |10401241.1111 |10401241.1111 |10401241.1111 |10400322.3333 |10400322.3333 |10400322.3333 |10400322.3333 |10400322.3333 |10400322.3333 |10400322.3333 |10399862.7222 |10118785.3514 |10399862.7222 |10118785.3514 |10399862.7222 |10118785.3514 |10399862.7222 |
sim_num_branches                              9295 |         9295 |         9295 |         9295 |         9295 |         9295 |         9295 |        17487 |        17487 |        17487 |        17487 |        17487 |        17487 |        17487 |        33871 |        33871 |        33871 |        33871 |        33871 |        33871 |        33871 |        66639 |        66639 |        66639 |        66639 |        66639 |        66639 |        66639 |       132175 |       132175 |       132175 |       132175 |       132175 |       132175 |       132175 |       263247 |       263247 |       263247 |       263247 |       263247 |       263247 |       263247 |       525391 |       525391 |       525391 |       525391 |       525391 |       525391 |       525391 |      1050472 |      1050472 |      1050472 |      1050472 |      1050472 |      1050472 |      1050472 |      2099048 |      2099048 |      2099048 |      2099048 |      2099048 |      2099048 |      2099048 |      4196971 |      4196971 |      4196971 |      4196971 |      4196971 |      4196971 |      4196971 |      8392814 |      8392814 |      8392814 |      8392814 |      8392814 |      8392814 |      8392814 |
sim_IPB                                    40.7580 |      40.7580 |      40.7580 |      40.7580 |      40.7580 |      40.7580 |      40.7580 |      42.5698 |      42.5698 |      42.5698 |      42.5698 |      42.5698 |      42.5698 |      42.5698 |      43.5640 |      43.5640 |      43.5640 |      43.5640 |      43.5640 |      43.5640 |      43.5640 |      44.0857 |      44.0857 |      44.0857 |      44.0857 |      44.0857 |      44.0857 |      44.0857 |      44.3531 |      44.3531 |      44.3531 |      44.3531 |      44.3531 |      44.3531 |      44.3531 |      44.4885 |      44.4885 |      44.4885 |      44.4885 |      44.4885 |      44.4885 |      44.4885 |      44.5566 |      44.5566 |      44.5566 |      44.5566 |      44.5566 |      44.5566 |      44.5566 |      44.5690 |      44.5690 |      44.5690 |      44.5690 |      44.5690 |      44.5690 |      44.5690 |      44.5970 |      44.5970 |      44.5970 |      44.5970 |      44.5970 |      44.5970 |      44.5970 |      44.6050 |      44.6050 |      44.6050 |      44.6050 |      44.6050 |      44.6050 |      44.6050 |      44.6090 |      44.6090 |      44.6090 |      44.6090 |      44.6090 |      44.6090 |      44.6090 |
bpred_bimod.lookups                           9295 |         9295 |         9295 |xxxxxxxxxxxxx |xxxxxxxxxxxxx |xxxxxxxxxxxxx |xxxxxxxxxxxxx |        17487 |        17487 |        17487 |xxxxxxxxxxxxx |xxxxxxxxxxxxx |xxxxxxxxxxxxx |xxxxxxxxxxxxx |        33871 |        33871 |        33871 |xxxxxxxxxxxxx |xxxxxxxxxxxxx |xxxxxxxxxxxxx |xxxxxxxxxxxxx |        66639 |        66639 |        66639 |xxxxxxxxxxxxx |xxxxxxxxxxxxx |xxxxxxxxxxxxx |xxxxxxxxxxxxx |       132175 |       132175 |       132175 |xxxxxxxxxxxxx |xxxxxxxxxxxxx |xxxxxxxxxxxxx |xxxxxxxxxxxxx |       263247 |       263247 |       263247 |xxxxxxxxxxxxx |xxxxxxxxxxxxx |xxxxxxxxxxxxx |xxxxxxxxxxxxx |       525391 |       525391 |       525391 |xxxxxxxxxxxxx |xxxxxxxxxxxxx |xxxxxxxxxxxxx |xxxxxxxxxxxxx |      1050472 |      1050472 |      1050472 |xxxxxxxxxxxxx |xxxxxxxxxxxxx |xxxxxxxxxxxxx |xxxxxxxxxxxxx |      2099048 |      2099048 |      2099048 |xxxxxxxxxxxxx |xxxxxxxxxxxxx |xxxxxxxxxxxxx |xxxxxxxxxxxxx |      4196971 |      4196971 |      4196971 |xxxxxxxxxxxxx |xxxxxxxxxxxxx |xxxxxxxxxxxxx |xxxxxxxxxxxxx |      8392814 |      8392814 |      8392814 |
bpred_bimod.updates                           9295 |         9295 |         9295 |xxxxxxxxxxxxx |xxxxxxxxxxxxx |xxxxxxxxxxxxx |xxxxxxxxxxxxx |        17487 |        17487 |        17487 |xxxxxxxxxxxxx |xxxxxxxxxxxxx |xxxxxxxxxxxxx |xxxxxxxxxxxxx |        33871 |        33871 |        33871 |xxxxxxxxxxxxx |xxxxxxxxxxxxx |xxxxxxxxxxxxx |xxxxxxxxxxxxx |        66639 |        66639 |        66639 |xxxxxxxxxxxxx |xxxxxxxxxxxxx |xxxxxxxxxxxxx |xxxxxxxxxxxxx |       132175 |       132175 |       132175 |xxxxxxxxxxxxx |xxxxxxxxxxxxx |xxxxxxxxxxxxx |xxxxxxxxxxxxx |       263247 |       263247 |       263247 |xxxxxxxxxxxxx |xxxxxxxxxxxxx |xxxxxxxxxxxxx |xxxxxxxxxxxxx |       525391 |       525391 |       525391 |xxxxxxxxxxxxx |xxxxxxxxxxxxx |xxxxxxxxxxxxx |xxxxxxxxxxxxx |      1050472 |      1050472 |      1050472 |xxxxxxxxxxxxx |xxxxxxxxxxxxx |xxxxxxxxxxxxx |xxxxxxxxxxxxx |      2099048 |      2099048 |      2099048 |xxxxxxxxxxxxx |xxxxxxxxxxxxx |xxxxxxxxxxxxx |xxxxxxxxxxxxx |      4196971 |      4196971 |      4196971 |xxxxxxxxxxxxx |xxxxxxxxxxxxx |xxxxxxxxxxxxx |xxxxxxxxxxxxx |      8392814 |      8392814 |      8392814 |
bpred_bimod.addr_hits                         9078 |         9081 |         9081 |xxxxxxxxxxxxx |xxxxxxxxxxxxx |xxxxxxxxxxxxx |xxxxxxxxxxxxx |        17268 |        17272 |        17272 |xxxxxxxxxxxxx |xxxxxxxxxxxxx |xxxxxxxxxxxxx |xxxxxxxxxxxxx |        33655 |        33657 |        33657 |xxxxxxxxxxxxx |xxxxxxxxxxxxx |xxxxxxxxxxxxx |xxxxxxxxxxxxx |        66422 |        66425 |        66425 |xxxxxxxxxxxxx |xxxxxxxxxxxxx |xxxxxxxxxxxxx |xxxxxxxxxxxxx |       131958 |       131961 |       131961 |xxxxxxxxxxxxx |xxxxxxxxxxxxx |xxxxxxxxxxxxx |xxxxxxxxxxxxx |       263030 |       263033 |       263033 |xxxxxxxxxxxxx |xxxxxxxxxxxxx |xxxxxxxxxxxxx |xxxxxxxxxxxxx |       525174 |       525177 |       525177 |xxxxxxxxxxxxx |xxxxxxxxxxxxx |xxxxxxxxxxxxx |xxxxxxxxxxxxx |      1050229 |      1050232 |      1050231 |xxxxxxxxxxxxx |xxxxxxxxxxxxx |xxxxxxxxxxxxx |xxxxxxxxxxxxx |      2098805 |      2098808 |      2098807 |xxxxxxxxxxxxx |xxxxxxxxxxxxx |xxxxxxxxxxxxx |xxxxxxxxxxxxx |      4196728 |      4196731 |      4196730 |xxxxxxxxxxxxx |xxxxxxxxxxxxx |xxxxxxxxxxxxx |xxxxxxxxxxxxx |      8392571 |      8392574 |      8392573 |
bpred_bimod.dir_hits                          9187 |         9186 |         9186 |xxxxxxxxxxxxx |xxxxxxxxxxxxx |xxxxxxxxxxxxx |xxxxxxxxxxxxx |        17371 |        17376 |        17376 |xxxxxxxxxxxxx |xxxxxxxxxxxxx |xxxxxxxxxxxxx |xxxxxxxxxxxxx |        33761 |        33761 |        33762 |xxxxxxxxxxxxx |xxxxxxxxxxxxx |xxxxxxxxxxxxx |xxxxxxxxxxxxx |        66526 |        66527 |        66529 |xxxxxxxxxxxxx |xxxxxxxxxxxxx |xxxxxxxxxxxxx |xxxxxxxxxxxxx |       132062 |       132063 |       132065 |xxxxxxxxxxxxx |xxxxxxxxxxxxx |xxxxxxxxxxxxx |xxxxxxxxxxxxx |       263135 |       263136 |       263138 |xxxxxxxxxxxxx |xxxxxxxxxxxxx |xxxxxxxxxxxxx |xxxxxxxxxxxxx |       525279 |       525280 |       525282 |xxxxxxxxxxxxx |xxxxxxxxxxxxx |xxxxxxxxxxxxx |xxxxxxxxxxxxx |      1050345 |      1050346 |      1050347 |xxxxxxxxxxxxx |xxxxxxxxxxxxx |xxxxxxxxxxxxx |xxxxxxxxxxxxx |      2098921 |      2098922 |      2098923 |xxxxxxxxxxxxx |xxxxxxxxxxxxx |xxxxxxxxxxxxx |xxxxxxxxxxxxx |      4196844 |      4196845 |      4196846 |xxxxxxxxxxxxx |xxxxxxxxxxxxx |xxxxxxxxxxxxx |xxxxxxxxxxxxx |      8392687 |      8392688 |      8392689 |
bpred_bimod.misses                             108 |          109 |          109 |xxxxxxxxxxxxx |xxxxxxxxxxxxx |xxxxxxxxxxxxx |xxxxxxxxxxxxx |          116 |          111 |          111 |xxxxxxxxxxxxx |xxxxxxxxxxxxx |xxxxxxxxxxxxx |xxxxxxxxxxxxx |          110 |          110 |          109 |xxxxxxxxxxxxx |xxxxxxxxxxxxx |xxxxxxxxxxxxx |xxxxxxxxxxxxx |          113 |          112 |          110 |xxxxxxxxxxxxx |xxxxxxxxxxxxx |xxxxxxxxxxxxx |xxxxxxxxxxxxx |          113 |          112 |          110 |xxxxxxxxxxxxx |xxxxxxxxxxxxx |xxxxxxxxxxxxx |xxxxxxxxxxxxx |          112 |          111 |          109 |xxxxxxxxxxxxx |xxxxxxxxxxxxx |xxxxxxxxxxxxx |xxxxxxxxxxxxx |          112 |          111 |          109 |xxxxxxxxxxxxx |xxxxxxxxxxxxx |xxxxxxxxxxxxx |xxxxxxxxxxxxx |          127 |          126 |          125 |xxxxxxxxxxxxx |xxxxxxxxxxxxx |xxxxxxxxxxxxx |xxxxxxxxxxxxx |          127 |          126 |          125 |xxxxxxxxxxxxx |xxxxxxxxxxxxx |xxxxxxxxxxxxx |xxxxxxxxxxxxx |          127 |          126 |          125 |xxxxxxxxxxxxx |xxxxxxxxxxxxx |xxxxxxxxxxxxx |xxxxxxxxxxxxx |          127 |          126 |          125 |
bpred_bimod.jr_hits                             70 |           70 |           70 |xxxxxxxxxxxxx |xxxxxxxxxxxxx |xxxxxxxxxxxxx |xxxxxxxxxxxxx |           70 |           70 |           70 |xxxxxxxxxxxxx |xxxxxxxxxxxxx |xxxxxxxxxxxxx |xxxxxxxxxxxxx |           70 |           70 |           70 |xxxxxxxxxxxxx |xxxxxxxxxxxxx |xxxxxxxxxxxxx |xxxxxxxxxxxxx |           70 |           70 |           70 |xxxxxxxxxxxxx |xxxxxxxxxxxxx |xxxxxxxxxxxxx |xxxxxxxxxxxxx |           70 |           70 |           70 |xxxxxxxxxxxxx |xxxxxxxxxxxxx |xxxxxxxxxxxxx |xxxxxxxxxxxxx |           70 |           70 |           70 |xxxxxxxxxxxxx |xxxxxxxxxxxxx |xxxxxxxxxxxxx |xxxxxxxxxxxxx |           70 |           70 |           70 |xxxxxxxxxxxxx |xxxxxxxxxxxxx |xxxxxxxxxxxxx |xxxxxxxxxxxxx |           73 |           73 |           73 |xxxxxxxxxxxxx |xxxxxxxxxxxxx |xxxxxxxxxxxxx |xxxxxxxxxxxxx |           73 |           73 |           73 |xxxxxxxxxxxxx |xxxxxxxxxxxxx |xxxxxxxxxxxxx |xxxxxxxxxxxxx |           73 |           73 |           73 |xxxxxxxxxxxxx |xxxxxxxxxxxxx |xxxxxxxxxxxxx |xxxxxxxxxxxxx |           73 |           73 |           73 |
bpred_bimod.jr_seen                             71 |           71 |           71 |xxxxxxxxxxxxx |xxxxxxxxxxxxx |xxxxxxxxxxxxx |xxxxxxxxxxxxx |           71 |           71 |           71 |xxxxxxxxxxxxx |xxxxxxxxxxxxx |xxxxxxxxxxxxx |xxxxxxxxxxxxx |           71 |           71 |           71 |xxxxxxxxxxxxx |xxxxxxxxxxxxx |xxxxxxxxxxxxx |xxxxxxxxxxxxx |           71 |           71 |           71 |xxxxxxxxxxxxx |xxxxxxxxxxxxx |xxxxxxxxxxxxx |xxxxxxxxxxxxx |           71 |           71 |           71 |xxxxxxxxxxxxx |xxxxxxxxxxxxx |xxxxxxxxxxxxx |xxxxxxxxxxxxx |           71 |           71 |           71 |xxxxxxxxxxxxx |xxxxxxxxxxxxx |xxxxxxxxxxxxx |xxxxxxxxxxxxx |           71 |           71 |           71 |xxxxxxxxxxxxx |xxxxxxxxxxxxx |xxxxxxxxxxxxx |xxxxxxxxxxxxx |           74 |           74 |           74 |xxxxxxxxxxxxx |xxxxxxxxxxxxx |xxxxxxxxxxxxx |xxxxxxxxxxxxx |           74 |           74 |           74 |xxxxxxxxxxxxx |xxxxxxxxxxxxx |xxxxxxxxxxxxx |xxxxxxxxxxxxx |           74 |           74 |           74 |xxxxxxxxxxxxx |xxxxxxxxxxxxx |xxxxxxxxxxxxx |xxxxxxxxxxxxx |           74 |           74 |           74 |
bpred_bimod.jr_non_ras_hits.PP                   0 |            0 |            0 |xxxxxxxxxxxxx |xxxxxxxxxxxxx |xxxxxxxxxxxxx |xxxxxxxxxxxxx |            0 |            0 |            0 |xxxxxxxxxxxxx |xxxxxxxxxxxxx |xxxxxxxxxxxxx |xxxxxxxxxxxxx |            0 |            0 |            0 |xxxxxxxxxxxxx |xxxxxxxxxxxxx |xxxxxxxxxxxxx |xxxxxxxxxxxxx |            0 |            0 |            0 |xxxxxxxxxxxxx |xxxxxxxxxxxxx |xxxxxxxxxxxxx |xxxxxxxxxxxxx |            0 |            0 |            0 |xxxxxxxxxxxxx |xxxxxxxxxxxxx |xxxxxxxxxxxxx |xxxxxxxxxxxxx |            0 |            0 |            0 |xxxxxxxxxxxxx |xxxxxxxxxxxxx |xxxxxxxxxxxxx |xxxxxxxxxxxxx |            0 |            0 |            0 |xxxxxxxxxxxxx |xxxxxxxxxxxxx |xxxxxxxxxxxxx |xxxxxxxxxxxxx |            0 |            0 |            0 |xxxxxxxxxxxxx |xxxxxxxxxxxxx |xxxxxxxxxxxxx |xxxxxxxxxxxxx |            0 |            0 |            0 |xxxxxxxxxxxxx |xxxxxxxxxxxxx |xxxxxxxxxxxxx |xxxxxxxxxxxxx |            0 |            0 |            0 |xxxxxxxxxxxxx |xxxxxxxxxxxxx |xxxxxxxxxxxxx |xxxxxxxxxxxxx |            0 |            0 |            0 |
bpred_bimod.jr_non_ras_seen.PP                   0 |            0 |            0 |xxxxxxxxxxxxx |xxxxxxxxxxxxx |xxxxxxxxxxxxx |xxxxxxxxxxxxx |            0 |            0 |            0 |xxxxxxxxxxxxx |xxxxxxxxxxxxx |xxxxxxxxxxxxx |xxxxxxxxxxxxx |            0 |            0 |            0 |xxxxxxxxxxxxx |xxxxxxxxxxxxx |xxxxxxxxxxxxx |xxxxxxxxxxxxx |            0 |            0 |            0 |xxxxxxxxxxxxx |xxxxxxxxxxxxx |xxxxxxxxxxxxx |xxxxxxxxxxxxx |            0 |            0 |            0 |xxxxxxxxxxxxx |xxxxxxxxxxxxx |xxxxxxxxxxxxx |xxxxxxxxxxxxx |            0 |            0 |            0 |xxxxxxxxxxxxx |xxxxxxxxxxxxx |xxxxxxxxxxxxx |xxxxxxxxxxxxx |            0 |            0 |            0 |xxxxxxxxxxxxx |xxxxxxxxxxxxx |xxxxxxxxxxxxx |xxxxxxxxxxxxx |            1 |            1 |            1 |xxxxxxxxxxxxx |xxxxxxxxxxxxx |xxxxxxxxxxxxx |xxxxxxxxxxxxx |            1 |            1 |            1 |xxxxxxxxxxxxx |xxxxxxxxxxxxx |xxxxxxxxxxxxx |xxxxxxxxxxxxx |            1 |            1 |            1 |xxxxxxxxxxxxx |xxxxxxxxxxxxx |xxxxxxxxxxxxx |xxxxxxxxxxxxx |            1 |            1 |            1 |
bpred_bimod.bpred_addr_rate                 0.9767 |       0.9770 |       0.9770 |xxxxxxxxxxxxx |xxxxxxxxxxxxx |xxxxxxxxxxxxx |xxxxxxxxxxxxx |       0.9875 |       0.9877 |       0.9877 |xxxxxxxxxxxxx |xxxxxxxxxxxxx |xxxxxxxxxxxxx |xxxxxxxxxxxxx |       0.9936 |       0.9937 |       0.9937 |xxxxxxxxxxxxx |xxxxxxxxxxxxx |xxxxxxxxxxxxx |xxxxxxxxxxxxx |       0.9967 |       0.9968 |       0.9968 |xxxxxxxxxxxxx |xxxxxxxxxxxxx |xxxxxxxxxxxxx |xxxxxxxxxxxxx |       0.9984 |       0.9984 |       0.9984 |xxxxxxxxxxxxx |xxxxxxxxxxxxx |xxxxxxxxxxxxx |xxxxxxxxxxxxx |       0.9992 |       0.9992 |       0.9992 |xxxxxxxxxxxxx |xxxxxxxxxxxxx |xxxxxxxxxxxxx |xxxxxxxxxxxxx |       0.9996 |       0.9996 |       0.9996 |xxxxxxxxxxxxx |xxxxxxxxxxxxx |xxxxxxxxxxxxx |xxxxxxxxxxxxx |       0.9998 |       0.9998 |       0.9998 |xxxxxxxxxxxxx |xxxxxxxxxxxxx |xxxxxxxxxxxxx |xxxxxxxxxxxxx |       0.9999 |       0.9999 |       0.9999 |xxxxxxxxxxxxx |xxxxxxxxxxxxx |xxxxxxxxxxxxx |xxxxxxxxxxxxx |       0.9999 |       0.9999 |       0.9999 |xxxxxxxxxxxxx |xxxxxxxxxxxxx |xxxxxxxxxxxxx |xxxxxxxxxxxxx |       1.0000 |       1.0000 |       1.0000 |
bpred_bimod.bpred_dir_rate                  0.9884 |       0.9883 |       0.9883 |xxxxxxxxxxxxx |xxxxxxxxxxxxx |xxxxxxxxxxxxx |xxxxxxxxxxxxx |       0.9934 |       0.9937 |       0.9937 |xxxxxxxxxxxxx |xxxxxxxxxxxxx |xxxxxxxxxxxxx |xxxxxxxxxxxxx |       0.9968 |       0.9968 |       0.9968 |xxxxxxxxxxxxx |xxxxxxxxxxxxx |xxxxxxxxxxxxx |xxxxxxxxxxxxx |       0.9983 |       0.9983 |       0.9983 |xxxxxxxxxxxxx |xxxxxxxxxxxxx |xxxxxxxxxxxxx |xxxxxxxxxxxxx |       0.9991 |       0.9992 |       0.9992 |xxxxxxxxxxxxx |xxxxxxxxxxxxx |xxxxxxxxxxxxx |xxxxxxxxxxxxx |       0.9996 |       0.9996 |       0.9996 |xxxxxxxxxxxxx |xxxxxxxxxxxxx |xxxxxxxxxxxxx |xxxxxxxxxxxxx |       0.9998 |       0.9998 |       0.9998 |xxxxxxxxxxxxx |xxxxxxxxxxxxx |xxxxxxxxxxxxx |xxxxxxxxxxxxx |       0.9999 |       0.9999 |       0.9999 |xxxxxxxxxxxxx |xxxxxxxxxxxxx |xxxxxxxxxxxxx |xxxxxxxxxxxxx |       0.9999 |       0.9999 |       0.9999 |xxxxxxxxxxxxx |xxxxxxxxxxxxx |xxxxxxxxxxxxx |xxxxxxxxxxxxx |       1.0000 |       1.0000 |       1.0000 |xxxxxxxxxxxxx |xxxxxxxxxxxxx |xxxxxxxxxxxxx |xxxxxxxxxxxxx |       1.0000 |       1.0000 |       1.0000 |
bpred_bimod.bpred_jr_rate                   0.9859 |       0.9859 |       0.9859 |xxxxxxxxxxxxx |xxxxxxxxxxxxx |xxxxxxxxxxxxx |xxxxxxxxxxxxx |       0.9859 |       0.9859 |       0.9859 |xxxxxxxxxxxxx |xxxxxxxxxxxxx |xxxxxxxxxxxxx |xxxxxxxxxxxxx |       0.9859 |       0.9859 |       0.9859 |xxxxxxxxxxxxx |xxxxxxxxxxxxx |xxxxxxxxxxxxx |xxxxxxxxxxxxx |       0.9859 |       0.9859 |       0.9859 |xxxxxxxxxxxxx |xxxxxxxxxxxxx |xxxxxxxxxxxxx |xxxxxxxxxxxxx |       0.9859 |       0.9859 |       0.9859 |xxxxxxxxxxxxx |xxxxxxxxxxxxx |xxxxxxxxxxxxx |xxxxxxxxxxxxx |       0.9859 |       0.9859 |       0.9859 |xxxxxxxxxxxxx |xxxxxxxxxxxxx |xxxxxxxxxxxxx |xxxxxxxxxxxxx |       0.9859 |       0.9859 |       0.9859 |xxxxxxxxxxxxx |xxxxxxxxxxxxx |xxxxxxxxxxxxx |xxxxxxxxxxxxx |       0.9865 |       0.9865 |       0.9865 |xxxxxxxxxxxxx |xxxxxxxxxxxxx |xxxxxxxxxxxxx |xxxxxxxxxxxxx |       0.9865 |       0.9865 |       0.9865 |xxxxxxxxxxxxx |xxxxxxxxxxxxx |xxxxxxxxxxxxx |xxxxxxxxxxxxx |       0.9865 |       0.9865 |       0.9865 |xxxxxxxxxxxxx |xxxxxxxxxxxxx |xxxxxxxxxxxxx |xxxxxxxxxxxxx |       0.9865 |       0.9865 |       0.9865 |
bpred_bimod.bpred_jr_non_ras_rate.PP       <error: |      <error: |      <error: |xxxxxxxxxxxxx |xxxxxxxxxxxxx |xxxxxxxxxxxxx |xxxxxxxxxxxxx |      <error: |      <error: |      <error: |xxxxxxxxxxxxx |xxxxxxxxxxxxx |xxxxxxxxxxxxx |xxxxxxxxxxxxx |      <error: |      <error: |      <error: |xxxxxxxxxxxxx |xxxxxxxxxxxxx |xxxxxxxxxxxxx |xxxxxxxxxxxxx |      <error: |      <error: |      <error: |xxxxxxxxxxxxx |xxxxxxxxxxxxx |xxxxxxxxxxxxx |xxxxxxxxxxxxx |      <error: |      <error: |      <error: |xxxxxxxxxxxxx |xxxxxxxxxxxxx |xxxxxxxxxxxxx |xxxxxxxxxxxxx |      <error: |      <error: |      <error: |xxxxxxxxxxxxx |xxxxxxxxxxxxx |xxxxxxxxxxxxx |xxxxxxxxxxxxx |      <error: |      <error: |      <error: |xxxxxxxxxxxxx |xxxxxxxxxxxxx |xxxxxxxxxxxxx |xxxxxxxxxxxxx |       0.0000 |       0.0000 |       0.0000 |xxxxxxxxxxxxx |xxxxxxxxxxxxx |xxxxxxxxxxxxx |xxxxxxxxxxxxx |       0.0000 |       0.0000 |       0.0000 |xxxxxxxxxxxxx |xxxxxxxxxxxxx |xxxxxxxxxxxxx |xxxxxxxxxxxxx |       0.0000 |       0.0000 |       0.0000 |xxxxxxxxxxxxx |xxxxxxxxxxxxx |xxxxxxxxxxxxx |xxxxxxxxxxxxx |       0.0000 |       0.0000 |       0.0000 |
bpred_bimod.retstack_pushes                     73 |           73 |           73 |xxxxxxxxxxxxx |xxxxxxxxxxxxx |xxxxxxxxxxxxx |xxxxxxxxxxxxx |           73 |           73 |           73 |xxxxxxxxxxxxx |xxxxxxxxxxxxx |xxxxxxxxxxxxx |xxxxxxxxxxxxx |           73 |           73 |           73 |xxxxxxxxxxxxx |xxxxxxxxxxxxx |xxxxxxxxxxxxx |xxxxxxxxxxxxx |           73 |           73 |           73 |xxxxxxxxxxxxx |xxxxxxxxxxxxx |xxxxxxxxxxxxx |xxxxxxxxxxxxx |           73 |           73 |           73 |xxxxxxxxxxxxx |xxxxxxxxxxxxx |xxxxxxxxxxxxx |xxxxxxxxxxxxx |           73 |           73 |           73 |xxxxxxxxxxxxx |xxxxxxxxxxxxx |xxxxxxxxxxxxx |xxxxxxxxxxxxx |           73 |           73 |           73 |xxxxxxxxxxxxx |xxxxxxxxxxxxx |xxxxxxxxxxxxx |xxxxxxxxxxxxx |           75 |           75 |           75 |xxxxxxxxxxxxx |xxxxxxxxxxxxx |xxxxxxxxxxxxx |xxxxxxxxxxxxx |           75 |           75 |           75 |xxxxxxxxxxxxx |xxxxxxxxxxxxx |xxxxxxxxxxxxx |xxxxxxxxxxxxx |           75 |           75 |           75 |xxxxxxxxxxxxx |xxxxxxxxxxxxx |xxxxxxxxxxxxx |xxxxxxxxxxxxx |           75 |           75 |           75 |
bpred_bimod.retstack_pops                       71 |           71 |           71 |xxxxxxxxxxxxx |xxxxxxxxxxxxx |xxxxxxxxxxxxx |xxxxxxxxxxxxx |           71 |           71 |           71 |xxxxxxxxxxxxx |xxxxxxxxxxxxx |xxxxxxxxxxxxx |xxxxxxxxxxxxx |           71 |           71 |           71 |xxxxxxxxxxxxx |xxxxxxxxxxxxx |xxxxxxxxxxxxx |xxxxxxxxxxxxx |           71 |           71 |           71 |xxxxxxxxxxxxx |xxxxxxxxxxxxx |xxxxxxxxxxxxx |xxxxxxxxxxxxx |           71 |           71 |           71 |xxxxxxxxxxxxx |xxxxxxxxxxxxx |xxxxxxxxxxxxx |xxxxxxxxxxxxx |           71 |           71 |           71 |xxxxxxxxxxxxx |xxxxxxxxxxxxx |xxxxxxxxxxxxx |xxxxxxxxxxxxx |           71 |           71 |           71 |xxxxxxxxxxxxx |xxxxxxxxxxxxx |xxxxxxxxxxxxx |xxxxxxxxxxxxx |           73 |           73 |           73 |xxxxxxxxxxxxx |xxxxxxxxxxxxx |xxxxxxxxxxxxx |xxxxxxxxxxxxx |           73 |           73 |           73 |xxxxxxxxxxxxx |xxxxxxxxxxxxx |xxxxxxxxxxxxx |xxxxxxxxxxxxx |           73 |           73 |           73 |xxxxxxxxxxxxx |xxxxxxxxxxxxx |xxxxxxxxxxxxx |xxxxxxxxxxxxx |           73 |           73 |           73 |
bpred_bimod.used_ras.PP                         71 |           71 |           71 |xxxxxxxxxxxxx |xxxxxxxxxxxxx |xxxxxxxxxxxxx |xxxxxxxxxxxxx |           71 |           71 |           71 |xxxxxxxxxxxxx |xxxxxxxxxxxxx |xxxxxxxxxxxxx |xxxxxxxxxxxxx |           71 |           71 |           71 |xxxxxxxxxxxxx |xxxxxxxxxxxxx |xxxxxxxxxxxxx |xxxxxxxxxxxxx |           71 |           71 |           71 |xxxxxxxxxxxxx |xxxxxxxxxxxxx |xxxxxxxxxxxxx |xxxxxxxxxxxxx |           71 |           71 |           71 |xxxxxxxxxxxxx |xxxxxxxxxxxxx |xxxxxxxxxxxxx |xxxxxxxxxxxxx |           71 |           71 |           71 |xxxxxxxxxxxxx |xxxxxxxxxxxxx |xxxxxxxxxxxxx |xxxxxxxxxxxxx |           71 |           71 |           71 |xxxxxxxxxxxxx |xxxxxxxxxxxxx |xxxxxxxxxxxxx |xxxxxxxxxxxxx |           73 |           73 |           73 |xxxxxxxxxxxxx |xxxxxxxxxxxxx |xxxxxxxxxxxxx |xxxxxxxxxxxxx |           73 |           73 |           73 |xxxxxxxxxxxxx |xxxxxxxxxxxxx |xxxxxxxxxxxxx |xxxxxxxxxxxxx |           73 |           73 |           73 |xxxxxxxxxxxxx |xxxxxxxxxxxxx |xxxxxxxxxxxxx |xxxxxxxxxxxxx |           73 |           73 |           73 |
bpred_bimod.ras_hits.PP                         70 |           70 |           70 |xxxxxxxxxxxxx |xxxxxxxxxxxxx |xxxxxxxxxxxxx |xxxxxxxxxxxxx |           70 |           70 |           70 |xxxxxxxxxxxxx |xxxxxxxxxxxxx |xxxxxxxxxxxxx |xxxxxxxxxxxxx |           70 |           70 |           70 |xxxxxxxxxxxxx |xxxxxxxxxxxxx |xxxxxxxxxxxxx |xxxxxxxxxxxxx |           70 |           70 |           70 |xxxxxxxxxxxxx |xxxxxxxxxxxxx |xxxxxxxxxxxxx |xxxxxxxxxxxxx |           70 |           70 |           70 |xxxxxxxxxxxxx |xxxxxxxxxxxxx |xxxxxxxxxxxxx |xxxxxxxxxxxxx |           70 |           70 |           70 |xxxxxxxxxxxxx |xxxxxxxxxxxxx |xxxxxxxxxxxxx |xxxxxxxxxxxxx |           70 |           70 |           70 |xxxxxxxxxxxxx |xxxxxxxxxxxxx |xxxxxxxxxxxxx |xxxxxxxxxxxxx |           73 |           73 |           73 |xxxxxxxxxxxxx |xxxxxxxxxxxxx |xxxxxxxxxxxxx |xxxxxxxxxxxxx |           73 |           73 |           73 |xxxxxxxxxxxxx |xxxxxxxxxxxxx |xxxxxxxxxxxxx |xxxxxxxxxxxxx |           73 |           73 |           73 |xxxxxxxxxxxxx |xxxxxxxxxxxxx |xxxxxxxxxxxxx |xxxxxxxxxxxxx |           73 |           73 |           73 |
bpred_bimod.ras_rate.PP                     0.9859 |       0.9859 |       0.9859 |xxxxxxxxxxxxx |xxxxxxxxxxxxx |xxxxxxxxxxxxx |xxxxxxxxxxxxx |       0.9859 |       0.9859 |       0.9859 |xxxxxxxxxxxxx |xxxxxxxxxxxxx |xxxxxxxxxxxxx |xxxxxxxxxxxxx |       0.9859 |       0.9859 |       0.9859 |xxxxxxxxxxxxx |xxxxxxxxxxxxx |xxxxxxxxxxxxx |xxxxxxxxxxxxx |       0.9859 |       0.9859 |       0.9859 |xxxxxxxxxxxxx |xxxxxxxxxxxxx |xxxxxxxxxxxxx |xxxxxxxxxxxxx |       0.9859 |       0.9859 |       0.9859 |xxxxxxxxxxxxx |xxxxxxxxxxxxx |xxxxxxxxxxxxx |xxxxxxxxxxxxx |       0.9859 |       0.9859 |       0.9859 |xxxxxxxxxxxxx |xxxxxxxxxxxxx |xxxxxxxxxxxxx |xxxxxxxxxxxxx |       0.9859 |       0.9859 |       0.9859 |xxxxxxxxxxxxx |xxxxxxxxxxxxx |xxxxxxxxxxxxx |xxxxxxxxxxxxx |       1.0000 |       1.0000 |       1.0000 |xxxxxxxxxxxxx |xxxxxxxxxxxxx |xxxxxxxxxxxxx |xxxxxxxxxxxxx |       1.0000 |       1.0000 |       1.0000 |xxxxxxxxxxxxx |xxxxxxxxxxxxx |xxxxxxxxxxxxx |xxxxxxxxxxxxx |       1.0000 |       1.0000 |       1.0000 |xxxxxxxxxxxxx |xxxxxxxxxxxxx |xxxxxxxxxxxxx |xxxxxxxxxxxxx |       1.0000 |       1.0000 |       1.0000 |
bpred_2lev.lookups                   xxxxxxxxxxxxx |xxxxxxxxxxxxx |xxxxxxxxxxxxx |         9295 |         9295 |         9295 |         9295 |xxxxxxxxxxxxx |xxxxxxxxxxxxx |xxxxxxxxxxxxx |        17487 |        17487 |        17487 |        17487 |xxxxxxxxxxxxx |xxxxxxxxxxxxx |xxxxxxxxxxxxx |        33871 |        33871 |        33871 |        33871 |xxxxxxxxxxxxx |xxxxxxxxxxxxx |xxxxxxxxxxxxx |        66639 |        66639 |        66639 |        66639 |xxxxxxxxxxxxx |xxxxxxxxxxxxx |xxxxxxxxxxxxx |       132175 |       132175 |       132175 |       132175 |xxxxxxxxxxxxx |xxxxxxxxxxxxx |xxxxxxxxxxxxx |       263247 |       263247 |       263247 |       263247 |xxxxxxxxxxxxx |xxxxxxxxxxxxx |xxxxxxxxxxxxx |       525391 |       525391 |       525391 |       525391 |xxxxxxxxxxxxx |xxxxxxxxxxxxx |xxxxxxxxxxxxx |      1050472 |      1050472 |      1050472 |      1050472 |xxxxxxxxxxxxx |xxxxxxxxxxxxx |xxxxxxxxxxxxx |      2099048 |      2099048 |      2099048 |      2099048 |xxxxxxxxxxxxx |xxxxxxxxxxxxx |xxxxxxxxxxxxx |      4196971 |      4196971 |      4196971 |      4196971 |xxxxxxxxxxxxx |xxxxxxxxxxxxx |xxxxxxxxxxxxx |      8392814 |      8392814 |      8392814 |      8392814 |
[...]
bpred_2lev.retstack_pops             xxxxxxxxxxxxx |xxxxxxxxxxxxx |xxxxxxxxxxxxx |           71 |           71 |           71 |           71 |xxxxxxxxxxxxx |xxxxxxxxxxxxx |xxxxxxxxxxxxx |           71 |           71 |           71 |           71 |xxxxxxxxxxxxx |xxxxxxxxxxxxx |xxxxxxxxxxxxx |           71 |           71 |           71 |           71 |xxxxxxxxxxxxx |xxxxxxxxxxxxx |xxxxxxxxxxxxx |           71 |           71 |           71 |           71 |xxxxxxxxxxxxx |xxxxxxxxxxxxx |xxxxxxxxxxxxx |           71 |           71 |           71 |           71 |xxxxxxxxxxxxx |xxxxxxxxxxxxx |xxxxxxxxxxxxx |           71 |           71 |           71 |           71 |xxxxxxxxxxxxx |xxxxxxxxxxxxx |xxxxxxxxxxxxx |           71 |           71 |           71 |           71 |xxxxxxxxxxxxx |xxxxxxxxxxxxx |xxxxxxxxxxxxx |           73 |           73 |           73 |           73 |xxxxxxxxxxxxx |xxxxxxxxxxxxx |xxxxxxxxxxxxx |           73 |           73 |           73 |           73 |xxxxxxxxxxxxx |xxxxxxxxxxxxx |xxxxxxxxxxxxx |           73 |           73 |           73 |           73 |xxxxxxxxxxxxx |xxxxxxxxxxxxx |xxxxxxxxxxxxx |           73 |           73 |           73 |           73 |
bpred_2lev.used_ras.PP               xxxxxxxxxxxxx |xxxxxxxxxxxxx |xxxxxxxxxxxxx |           71 |           71 |           71 |           71 |xxxxxxxxxxxxx |xxxxxxxxxxxxx |xxxxxxxxxxxxx |           71 |           71 |           71 |           71 |xxxxxxxxxxxxx |xxxxxxxxxxxxx |xxxxxxxxxxxxx |           71 |           71 |           71 |           71 |xxxxxxxxxxxxx |xxxxxxxxxxxxx |xxxxxxxxxxxxx |           71 |           71 |           71 |           71 |xxxxxxxxxxxxx |xxxxxxxxxxxxx |xxxxxxxxxxxxx |           71 |           71 |           71 |           71 |xxxxxxxxxxxxx |xxxxxxxxxxxxx |xxxxxxxxxxxxx |           71 |           71 |           71 |           71 |xxxxxxxxxxxxx |xxxxxxxxxxxxx |xxxxxxxxxxxxx |           71 |           71 |           71 |           71 |xxxxxxxxxxxxx |xxxxxxxxxxxxx |xxxxxxxxxxxxx |           73 |           73 |           73 |           73 |xxxxxxxxxxxxx |xxxxxxxxxxxxx |xxxxxxxxxxxxx |           73 |           73 |           73 |           73 |xxxxxxxxxxxxx |xxxxxxxxxxxxx |xxxxxxxxxxxxx |           73 |           73 |           73 |           73 |xxxxxxxxxxxxx |xxxxxxxxxxxxx |xxxxxxxxxxxxx |           73 |           73 |           73 |           73 |
bpred_2lev.ras_hits.PP               xxxxxxxxxxxxx |xxxxxxxxxxxxx |xxxxxxxxxxxxx |           70 |           70 |           70 |           70 |xxxxxxxxxxxxx |xxxxxxxxxxxxx |xxxxxxxxxxxxx |           70 |           70 |           70 |           70 |xxxxxxxxxxxxx |xxxxxxxxxxxxx |xxxxxxxxxxxxx |           70 |           70 |           70 |           70 |xxxxxxxxxxxxx |xxxxxxxxxxxxx |xxxxxxxxxxxxx |           70 |           70 |           70 |           70 |xxxxxxxxxxxxx |xxxxxxxxxxxxx |xxxxxxxxxxxxx |           70 |           70 |           70 |           70 |xxxxxxxxxxxxx |xxxxxxxxxxxxx |xxxxxxxxxxxxx |           70 |           70 |           70 |           70 |xxxxxxxxxxxxx |xxxxxxxxxxxxx |xxxxxxxxxxxxx |           70 |           70 |           70 |           70 |xxxxxxxxxxxxx |xxxxxxxxxxxxx |xxxxxxxxxxxxx |           73 |           73 |           73 |           73 |xxxxxxxxxxxxx |xxxxxxxxxxxxx |xxxxxxxxxxxxx |           73 |           73 |           73 |           73 |xxxxxxxxxxxxx |xxxxxxxxxxxxx |xxxxxxxxxxxxx |           73 |           73 |           73 |           73 |xxxxxxxxxxxxx |xxxxxxxxxxxxx |xxxxxxxxxxxxx |           73 |           73 |           73 |           73 |
bpred_2lev.ras_rate.PP               xxxxxxxxxxxxx |xxxxxxxxxxxxx |xxxxxxxxxxxxx |       0.9859 |       0.9859 |       0.9859 |       0.9859 |xxxxxxxxxxxxx |xxxxxxxxxxxxx |xxxxxxxxxxxxx |       0.9859 |       0.9859 |       0.9859 |       0.9859 |xxxxxxxxxxxxx |xxxxxxxxxxxxx |xxxxxxxxxxxxx |       0.9859 |       0.9859 |       0.9859 |       0.9859 |xxxxxxxxxxxxx |xxxxxxxxxxxxx |xxxxxxxxxxxxx |       0.9859 |       0.9859 |       0.9859 |       0.9859 |xxxxxxxxxxxxx |xxxxxxxxxxxxx |xxxxxxxxxxxxx |       0.9859 |       0.9859 |       0.9859 |       0.9859 |xxxxxxxxxxxxx |xxxxxxxxxxxxx |xxxxxxxxxxxxx |       0.9859 |       0.9859 |       0.9859 |       0.9859 |xxxxxxxxxxxxx |xxxxxxxxxxxxx |xxxxxxxxxxxxx |       0.9859 |       0.9859 |       0.9859 |       0.9859 |xxxxxxxxxxxxx |xxxxxxxxxxxxx |xxxxxxxxxxxxx |       1.0000 |       1.0000 |       1.0000 |       1.0000 |xxxxxxxxxxxxx |xxxxxxxxxxxxx |xxxxxxxxxxxxx |       1.0000 |       1.0000 |       1.0000 |       1.0000 |xxxxxxxxxxxxx |xxxxxxxxxxxxx |xxxxxxxxxxxxx |       1.0000 |       1.0000 |       1.0000 |       1.0000 |xxxxxxxxxxxxx |xxxxxxxxxxxxx |xxxxxxxxxxxxx |       1.0000 |       1.0000 |       1.0000 |       1.0000 |

Command list: 
	sslittle-na-sstrix-gcc -Wall -O3 -funroll-loops -finline-functions  -DRANDOM_SIZE=4096 -DOFFSET=6 -DSORT=aligned_cache_radixsort sorts/aligned_cache_radixsort1005369442.c simpleMain.c -o aligned_cache_radixsort84437723
	sim-cache -cache:dl1 dl1:256:32:1:l -cache:dl2 dl2:131072:32:1:l -cache:il1 il1:256:32:1:l -cache:il2 dl2 aligned_cache_radixsort84437723
	sim-cache -cache:dl1 dl1:256:32:1:l -cache:dl2 dl2:65536:32:1:l -cache:il1 il1:256:32:1:l -cache:il2 dl2 aligned_cache_radixsort84437723
	sim-cache -cache:dl1 dl1:1:32:256:l -cache:dl2 dl2:1:32:131072:l -cache:il1 il1:1:32:256:l -cache:il2 dl2 aligned_cache_radixsort84437723
	sim-cache -cache:dl1 dl1:1:32:256:l -cache:dl2 dl2:1:32:65536:l -cache:il1 il1:1:32:256:l -cache:il2 dl2 aligned_cache_radixsort84437723
	sim-bpred -bpred bimod -bpred:bimod 512 aligned_cache_radixsort84437723
	sim-bpred -bpred bimod -bpred:bimod 1024 aligned_cache_radixsort84437723
	sim-bpred -bpred bimod -bpred:bimod 2048 aligned_cache_radixsort84437723
	sim-bpred -bpred 2lev -bpred:2lev 1 512 10 1 aligned_cache_radixsort84437723
	sim-bpred -bpred 2lev -bpred:2lev 1 1024 10 1 aligned_cache_radixsort84437723
	sim-bpred -bpred 2lev -bpred:2lev 1 2048 10 1 aligned_cache_radixsort84437723
	sim-bpred -bpred 2lev -bpred:2lev 1 4096 10 1 aligned_cache_radixsort84437723
	sslittle-na-sstrix-gcc -Wall -O3 -funroll-loops -finline-functions  -DRANDOM_SIZE=8192 -DOFFSET=6 -DSORT=aligned_cache_radixsort sorts/aligned_cache_radixsort1005369442.c simpleMain.c -o aligned_cache_radixsort84437723
	sim-cache -cache:dl1 dl1:256:32:1:l -cache:dl2 dl2:131072:32:1:l -cache:il1 il1:256:32:1:l -cache:il2 dl2 aligned_cache_radixsort84437723
	sim-cache -cache:dl1 dl1:256:32:1:l -cache:dl2 dl2:65536:32:1:l -cache:il1 il1:256:32:1:l -cache:il2 dl2 aligned_cache_radixsort84437723
	sim-cache -cache:dl1 dl1:1:32:256:l -cache:dl2 dl2:1:32:131072:l -cache:il1 il1:1:32:256:l -cache:il2 dl2 aligned_cache_radixsort84437723
	sim-cache -cache:dl1 dl1:1:32:256:l -cache:dl2 dl2:1:32:65536:l -cache:il1 il1:1:32:256:l -cache:il2 dl2 aligned_cache_radixsort84437723
	sim-bpred -bpred bimod -bpred:bimod 512 aligned_cache_radixsort84437723
	sim-bpred -bpred bimod -bpred:bimod 1024 aligned_cache_radixsort84437723
	sim-bpred -bpred bimod -bpred:bimod 2048 aligned_cache_radixsort84437723
	sim-bpred -bpred 2lev -bpred:2lev 1 512 10 1 aligned_cache_radixsort84437723
	sim-bpred -bpred 2lev -bpred:2lev 1 1024 10 1 aligned_cache_radixsort84437723
	sim-bpred -bpred 2lev -bpred:2lev 1 2048 10 1 aligned_cache_radixsort84437723
	sim-bpred -bpred 2lev -bpred:2lev 1 4096 10 1 aligned_cache_radixsort84437723
	sslittle-na-sstrix-gcc -Wall -O3 -funroll-loops -finline-functions  -DRANDOM_SIZE=16384 -DOFFSET=6 -DSORT=aligned_cache_radixsort sorts/aligned_cache_radixsort1005369442.c simpleMain.c -o aligned_cache_radixsort84437723
	sim-cache -cache:dl1 dl1:256:32:1:l -cache:dl2 dl2:131072:32:1:l -cache:il1 il1:256:32:1:l -cache:il2 dl2 aligned_cache_radixsort84437723
	sim-cache -cache:dl1 dl1:256:32:1:l -cache:dl2 dl2:65536:32:1:l -cache:il1 il1:256:32:1:l -cache:il2 dl2 aligned_cache_radixsort84437723
	sim-cache -cache:dl1 dl1:1:32:256:l -cache:dl2 dl2:1:32:131072:l -cache:il1 il1:1:32:256:l -cache:il2 dl2 aligned_cache_radixsort84437723
	sim-cache -cache:dl1 dl1:1:32:256:l -cache:dl2 dl2:1:32:65536:l -cache:il1 il1:1:32:256:l -cache:il2 dl2 aligned_cache_radixsort84437723
	sim-bpred -bpred bimod -bpred:bimod 512 aligned_cache_radixsort84437723
	sim-bpred -bpred bimod -bpred:bimod 1024 aligned_cache_radixsort84437723
	sim-bpred -bpred bimod -bpred:bimod 2048 aligned_cache_radixsort84437723
	sim-bpred -bpred 2lev -bpred:2lev 1 512 10 1 aligned_cache_radixsort84437723
	sim-bpred -bpred 2lev -bpred:2lev 1 1024 10 1 aligned_cache_radixsort84437723
	sim-bpred -bpred 2lev -bpred:2lev 1 2048 10 1 aligned_cache_radixsort84437723
	sim-bpred -bpred 2lev -bpred:2lev 1 4096 10 1 aligned_cache_radixsort84437723
	sslittle-na-sstrix-gcc -Wall -O3 -funroll-loops -finline-functions  -DRANDOM_SIZE=32768 -DOFFSET=6 -DSORT=aligned_cache_radixsort sorts/aligned_cache_radixsort1005369442.c simpleMain.c -o aligned_cache_radixsort84437723
	sim-cache -cache:dl1 dl1:256:32:1:l -cache:dl2 dl2:131072:32:1:l -cache:il1 il1:256:32:1:l -cache:il2 dl2 aligned_cache_radixsort84437723
	sim-cache -cache:dl1 dl1:256:32:1:l -cache:dl2 dl2:65536:32:1:l -cache:il1 il1:256:32:1:l -cache:il2 dl2 aligned_cache_radixsort84437723
	sim-cache -cache:dl1 dl1:1:32:256:l -cache:dl2 dl2:1:32:131072:l -cache:il1 il1:1:32:256:l -cache:il2 dl2 aligned_cache_radixsort84437723
	sim-cache -cache:dl1 dl1:1:32:256:l -cache:dl2 dl2:1:32:65536:l -cache:il1 il1:1:32:256:l -cache:il2 dl2 aligned_cache_radixsort84437723
	sim-bpred -bpred bimod -bpred:bimod 512 aligned_cache_radixsort84437723
	sim-bpred -bpred bimod -bpred:bimod 1024 aligned_cache_radixsort84437723
	sim-bpred -bpred bimod -bpred:bimod 2048 aligned_cache_radixsort84437723
	sim-bpred -bpred 2lev -bpred:2lev 1 512 10 1 aligned_cache_radixsort84437723
	sim-bpred -bpred 2lev -bpred:2lev 1 1024 10 1 aligned_cache_radixsort84437723
	sim-bpred -bpred 2lev -bpred:2lev 1 2048 10 1 aligned_cache_radixsort84437723
	sim-bpred -bpred 2lev -bpred:2lev 1 4096 10 1 aligned_cache_radixsort84437723
	sslittle-na-sstrix-gcc -Wall -O3 -funroll-loops -finline-functions  -DRANDOM_SIZE=65536 -DOFFSET=6 -DSORT=aligned_cache_radixsort sorts/aligned_cache_radixsort1005369442.c simpleMain.c -o aligned_cache_radixsort84437723
	sim-cache -cache:dl1 dl1:256:32:1:l -cache:dl2 dl2:131072:32:1:l -cache:il1 il1:256:32:1:l -cache:il2 dl2 aligned_cache_radixsort84437723
	sim-cache -cache:dl1 dl1:256:32:1:l -cache:dl2 dl2:65536:32:1:l -cache:il1 il1:256:32:1:l -cache:il2 dl2 aligned_cache_radixsort84437723
	sim-cache -cache:dl1 dl1:1:32:256:l -cache:dl2 dl2:1:32:131072:l -cache:il1 il1:1:32:256:l -cache:il2 dl2 aligned_cache_radixsort84437723
	sim-cache -cache:dl1 dl1:1:32:256:l -cache:dl2 dl2:1:32:65536:l -cache:il1 il1:1:32:256:l -cache:il2 dl2 aligned_cache_radixsort84437723
	sim-bpred -bpred bimod -bpred:bimod 512 aligned_cache_radixsort84437723
	sim-bpred -bpred bimod -bpred:bimod 1024 aligned_cache_radixsort84437723
	sim-bpred -bpred bimod -bpred:bimod 2048 aligned_cache_radixsort84437723
	sim-bpred -bpred 2lev -bpred:2lev 1 512 10 1 aligned_cache_radixsort84437723
	sim-bpred -bpred 2lev -bpred:2lev 1 1024 10 1 aligned_cache_radixsort84437723
	sim-bpred -bpred 2lev -bpred:2lev 1 2048 10 1 aligned_cache_radixsort84437723
	sim-bpred -bpred 2lev -bpred:2lev 1 4096 10 1 aligned_cache_radixsort84437723
	sslittle-na-sstrix-gcc -Wall -O3 -funroll-loops -finline-functions  -DRANDOM_SIZE=131072 -DOFFSET=6 -DSORT=aligned_cache_radixsort sorts/aligned_cache_radixsort1005369442.c simpleMain.c -o aligned_cache_radixsort84437723
	sim-cache -cache:dl1 dl1:256:32:1:l -cache:dl2 dl2:131072:32:1:l -cache:il1 il1:256:32:1:l -cache:il2 dl2 aligned_cache_radixsort84437723
	sim-cache -cache:dl1 dl1:256:32:1:l -cache:dl2 dl2:65536:32:1:l -cache:il1 il1:256:32:1:l -cache:il2 dl2 aligned_cache_radixsort84437723
	sim-cache -cache:dl1 dl1:1:32:256:l -cache:dl2 dl2:1:32:131072:l -cache:il1 il1:1:32:256:l -cache:il2 dl2 aligned_cache_radixsort84437723
	sim-cache -cache:dl1 dl1:1:32:256:l -cache:dl2 dl2:1:32:65536:l -cache:il1 il1:1:32:256:l -cache:il2 dl2 aligned_cache_radixsort84437723
	sim-bpred -bpred bimod -bpred:bimod 512 aligned_cache_radixsort84437723
	sim-bpred -bpred bimod -bpred:bimod 1024 aligned_cache_radixsort84437723
	sim-bpred -bpred bimod -bpred:bimod 2048 aligned_cache_radixsort84437723
	sim-bpred -bpred 2lev -bpred:2lev 1 512 10 1 aligned_cache_radixsort84437723
	sim-bpred -bpred 2lev -bpred:2lev 1 1024 10 1 aligned_cache_radixsort84437723
	sim-bpred -bpred 2lev -bpred:2lev 1 2048 10 1 aligned_cache_radixsort84437723
	sim-bpred -bpred 2lev -bpred:2lev 1 4096 10 1 aligned_cache_radixsort84437723
	sslittle-na-sstrix-gcc -Wall -O3 -funroll-loops -finline-functions  -DRANDOM_SIZE=262144 -DOFFSET=6 -DSORT=aligned_cache_radixsort sorts/aligned_cache_radixsort1005369442.c simpleMain.c -o aligned_cache_radixsort84437723
	sim-cache -cache:dl1 dl1:256:32:1:l -cache:dl2 dl2:131072:32:1:l -cache:il1 il1:256:32:1:l -cache:il2 dl2 aligned_cache_radixsort84437723
	sim-cache -cache:dl1 dl1:256:32:1:l -cache:dl2 dl2:65536:32:1:l -cache:il1 il1:256:32:1:l -cache:il2 dl2 aligned_cache_radixsort84437723
	sim-cache -cache:dl1 dl1:1:32:256:l -cache:dl2 dl2:1:32:131072:l -cache:il1 il1:1:32:256:l -cache:il2 dl2 aligned_cache_radixsort84437723
	sim-cache -cache:dl1 dl1:1:32:256:l -cache:dl2 dl2:1:32:65536:l -cache:il1 il1:1:32:256:l -cache:il2 dl2 aligned_cache_radixsort84437723
	sim-bpred -bpred bimod -bpred:bimod 512 aligned_cache_radixsort84437723
	sim-bpred -bpred bimod -bpred:bimod 1024 aligned_cache_radixsort84437723
	sim-bpred -bpred bimod -bpred:bimod 2048 aligned_cache_radixsort84437723
	sim-bpred -bpred 2lev -bpred:2lev 1 512 10 1 aligned_cache_radixsort84437723
	sim-bpred -bpred 2lev -bpred:2lev 1 1024 10 1 aligned_cache_radixsort84437723
	sim-bpred -bpred 2lev -bpred:2lev 1 2048 10 1 aligned_cache_radixsort84437723
	sim-bpred -bpred 2lev -bpred:2lev 1 4096 10 1 aligned_cache_radixsort84437723
	sslittle-na-sstrix-gcc -Wall -O3 -funroll-loops -finline-functions  -DRANDOM_SIZE=524288 -DOFFSET=6 -DSORT=aligned_cache_radixsort sorts/aligned_cache_radixsort1005369442.c simpleMain.c -o aligned_cache_radixsort84437723
	sim-cache -cache:dl1 dl1:256:32:1:l -cache:dl2 dl2:131072:32:1:l -cache:il1 il1:256:32:1:l -cache:il2 dl2 aligned_cache_radixsort84437723
	sim-cache -cache:dl1 dl1:256:32:1:l -cache:dl2 dl2:65536:32:1:l -cache:il1 il1:256:32:1:l -cache:il2 dl2 aligned_cache_radixsort84437723
	sim-cache -cache:dl1 dl1:1:32:256:l -cache:dl2 dl2:1:32:131072:l -cache:il1 il1:1:32:256:l -cache:il2 dl2 aligned_cache_radixsort84437723
	sim-cache -cache:dl1 dl1:1:32:256:l -cache:dl2 dl2:1:32:65536:l -cache:il1 il1:1:32:256:l -cache:il2 dl2 aligned_cache_radixsort84437723
	sim-bpred -bpred bimod -bpred:bimod 512 aligned_cache_radixsort84437723
	sim-bpred -bpred bimod -bpred:bimod 1024 aligned_cache_radixsort84437723
	sim-bpred -bpred bimod -bpred:bimod 2048 aligned_cache_radixsort84437723
	sim-bpred -bpred 2lev -bpred:2lev 1 512 10 1 aligned_cache_radixsort84437723
	sim-bpred -bpred 2lev -bpred:2lev 1 1024 10 1 aligned_cache_radixsort84437723
	sim-bpred -bpred 2lev -bpred:2lev 1 2048 10 1 aligned_cache_radixsort84437723
	sim-bpred -bpred 2lev -bpred:2lev 1 4096 10 1 aligned_cache_radixsort84437723
	sslittle-na-sstrix-gcc -Wall -O3 -funroll-loops -finline-functions  -DRANDOM_SIZE=1048576 -DOFFSET=6 -DSORT=aligned_cache_radixsort sorts/aligned_cache_radixsort1005369442.c simpleMain.c -o aligned_cache_radixsort84437723
	sim-cache -cache:dl1 dl1:256:32:1:l -cache:dl2 dl2:131072:32:1:l -cache:il1 il1:256:32:1:l -cache:il2 dl2 aligned_cache_radixsort84437723
	sim-cache -cache:dl1 dl1:256:32:1:l -cache:dl2 dl2:65536:32:1:l -cache:il1 il1:256:32:1:l -cache:il2 dl2 aligned_cache_radixsort84437723
	sim-cache -cache:dl1 dl1:1:32:256:l -cache:dl2 dl2:1:32:131072:l -cache:il1 il1:1:32:256:l -cache:il2 dl2 aligned_cache_radixsort84437723
	sim-cache -cache:dl1 dl1:1:32:256:l -cache:dl2 dl2:1:32:65536:l -cache:il1 il1:1:32:256:l -cache:il2 dl2 aligned_cache_radixsort84437723
	sim-bpred -bpred bimod -bpred:bimod 512 aligned_cache_radixsort84437723
	sim-bpred -bpred bimod -bpred:bimod 1024 aligned_cache_radixsort84437723
	sim-bpred -bpred bimod -bpred:bimod 2048 aligned_cache_radixsort84437723
	sim-bpred -bpred 2lev -bpred:2lev 1 512 10 1 aligned_cache_radixsort84437723
	sim-bpred -bpred 2lev -bpred:2lev 1 1024 10 1 aligned_cache_radixsort84437723
	sim-bpred -bpred 2lev -bpred:2lev 1 2048 10 1 aligned_cache_radixsort84437723
	sim-bpred -bpred 2lev -bpred:2lev 1 4096 10 1 aligned_cache_radixsort84437723
	sslittle-na-sstrix-gcc -Wall -O3 -funroll-loops -finline-functions  -DRANDOM_SIZE=2097152 -DOFFSET=6 -DSORT=aligned_cache_radixsort sorts/aligned_cache_radixsort1005369442.c simpleMain.c -o aligned_cache_radixsort84437723
	sim-cache -cache:dl1 dl1:256:32:1:l -cache:dl2 dl2:131072:32:1:l -cache:il1 il1:256:32:1:l -cache:il2 dl2 aligned_cache_radixsort84437723
	sim-cache -cache:dl1 dl1:256:32:1:l -cache:dl2 dl2:65536:32:1:l -cache:il1 il1:256:32:1:l -cache:il2 dl2 aligned_cache_radixsort84437723
	sim-cache -cache:dl1 dl1:1:32:256:l -cache:dl2 dl2:1:32:131072:l -cache:il1 il1:1:32:256:l -cache:il2 dl2 aligned_cache_radixsort84437723
	sim-cache -cache:dl1 dl1:1:32:256:l -cache:dl2 dl2:1:32:65536:l -cache:il1 il1:1:32:256:l -cache:il2 dl2 aligned_cache_radixsort84437723
	sim-bpred -bpred bimod -bpred:bimod 512 aligned_cache_radixsort84437723
	sim-bpred -bpred bimod -bpred:bimod 1024 aligned_cache_radixsort84437723
	sim-bpred -bpred bimod -bpred:bimod 2048 aligned_cache_radixsort84437723
	sim-bpred -bpred 2lev -bpred:2lev 1 512 10 1 aligned_cache_radixsort84437723
	sim-bpred -bpred 2lev -bpred:2lev 1 1024 10 1 aligned_cache_radixsort84437723
	sim-bpred -bpred 2lev -bpred:2lev 1 2048 10 1 aligned_cache_radixsort84437723
	sim-bpred -bpred 2lev -bpred:2lev 1 4096 10 1 aligned_cache_radixsort84437723
	sslittle-na-sstrix-gcc -Wall -O3 -funroll-loops -finline-functions  -DRANDOM_SIZE=4194304 -DOFFSET=6 -DSORT=aligned_cache_radixsort sorts/aligned_cache_radixsort1005369442.c simpleMain.c -o aligned_cache_radixsort84437723
	sim-cache -cache:dl1 dl1:256:32:1:l -cache:dl2 dl2:131072:32:1:l -cache:il1 il1:256:32:1:l -cache:il2 dl2 aligned_cache_radixsort84437723
	sim-cache -cache:dl1 dl1:256:32:1:l -cache:dl2 dl2:65536:32:1:l -cache:il1 il1:256:32:1:l -cache:il2 dl2 aligned_cache_radixsort84437723
	sim-cache -cache:dl1 dl1:1:32:256:l -cache:dl2 dl2:1:32:131072:l -cache:il1 il1:1:32:256:l -cache:il2 dl2 aligned_cache_radixsort84437723
	sim-cache -cache:dl1 dl1:1:32:256:l -cache:dl2 dl2:1:32:65536:l -cache:il1 il1:1:32:256:l -cache:il2 dl2 aligned_cache_radixsort84437723
	sim-bpred -bpred bimod -bpred:bimod 512 aligned_cache_radixsort84437723
	sim-bpred -bpred bimod -bpred:bimod 1024 aligned_cache_radixsort84437723
	sim-bpred -bpred bimod -bpred:bimod 2048 aligned_cache_radixsort84437723
	sim-bpred -bpred 2lev -bpred:2lev 1 512 10 1 aligned_cache_radixsort84437723
	sim-bpred -bpred 2lev -bpred:2lev 1 1024 10 1 aligned_cache_radixsort84437723
	sim-bpred -bpred 2lev -bpred:2lev 1 2048 10 1 aligned_cache_radixsort84437723
	sim-bpred -bpred 2lev -bpred:2lev 1 4096 10 1 aligned_cache_radixsort84437723
