Mon Jun 27 21:43:46 2005
Run as: "./do_simple -c random.org2 -o 2 base_quicksort9"
-------------------------------------------------------------------------------------------------
sim-cache                                     4096 |         4096 |         4096 |         4096 |         8192 |         8192 |         8192 |         8192 |        16384 |        16384 |        16384 |        16384 |        32768 |        32768 |        32768 |        32768 |        65536 |        65536 |        65536 |        65536 |       131072 |       131072 |       131072 |       131072 |       262144 |       262144 |       262144 |       262144 |       524288 |       524288 |       524288 |       524288 |      1048576 |      1048576 |      1048576 |      1048576 |      2097152 |      2097152 |      2097152 |      2097152 |      4194304 |      4194304 |      4194304 |      4194304 |
-cache:dl1 dl1:256:32:1:l -cache:dl2 dl2:131072:32:1:l -cache:il1 il1:256:32:1:l -cache:il2 dl2
-cache:dl1 dl1:256:32:1:l -cache:dl2 dl2:65536:32:1:l -cache:il1 il1:256:32:1:l -cache:il2 dl2
-cache:dl1 dl1:1:32:256:l -cache:dl2 dl2:1:32:131072:l -cache:il1 il1:1:32:256:l -cache:il2 dl2
-cache:dl1 dl1:1:32:256:l -cache:dl2 dl2:1:32:65536:l -cache:il1 il1:1:32:256:l -cache:il2 dl2
-------------------------------------------------------------------------------------------------
sim_num_insn                                462610 |       462610 |       462610 |       462610 |      1003915 |      1003915 |      1003915 |      1003915 |      2129448 |      2129448 |      2129448 |      2129448 |      4553436 |      4553436 |      4553436 |      4553436 |      9621382 |      9621382 |      9621382 |      9621382 |     20458513 |     20458513 |     20458513 |     20458513 |     43115975 |     43115975 |     43115975 |     43115975 |     90839885 |     90839885 |     90839885 |     90839885 |    190657494 |    190657494 |    190657494 |    190657494 |    402776905 |    402776905 |    402776905 |    402776905 |    837310203 |    837310203 |    837310203 |    837310203 |
sim_num_refs                                124648 |       124648 |       124648 |       124648 |       266239 |       266239 |       266239 |       266239 |       560878 |       560878 |       560878 |       560878 |      1185577 |      1185577 |      1185577 |      1185577 |      2495840 |      2495840 |      2495840 |      2495840 |      5271407 |      5271407 |      5271407 |      5271407 |     11064295 |     11064295 |     11064295 |     11064295 |     23216579 |     23216579 |     23216579 |     23216579 |     48541088 |     48541088 |     48541088 |     48541088 |    101903487 |    101903487 |    101903487 |    101903487 |    211730609 |    211730609 |    211730609 |    211730609 |
sim_elapsed_time                                 1 |            1 |            7 |            3 |            1 |            1 |            9 |            5 |            1 |            1 |           14 |            8 |            1 |            2 |           25 |           12 |            2 |            3 |           45 |           23 |            5 |            5 |           84 |           42 |           10 |           11 |          155 |           72 |           23 |           23 |          265 |          103 |           48 |           48 |          370 |          129 |          101 |          102 |          425 |          187 |          211 |          211 |          543 |          304 |
sim_inst_rate                          462610.0000 |  462610.0000 |   66087.1429 |  154203.3333 | 1003915.0000 | 1003915.0000 |  111546.1111 |  200783.0000 | 2129448.0000 | 2129448.0000 |  152103.4286 |  266181.0000 | 4553436.0000 | 2276718.0000 |  182137.4400 |  379453.0000 | 4810691.0000 | 3207127.3333 |  213808.4889 |  418320.9565 | 4091702.6000 | 4091702.6000 |  243553.7262 |  487107.4524 | 4311597.5000 | 3919634.0909 |  278167.5806 |  598832.9861 | 3949560.2174 | 3949560.2174 |  342792.0189 |  881940.6311 | 3972031.1250 | 3972031.1250 |  515290.5243 | 1477965.0698 | 3987890.1485 | 3948793.1863 |  947710.3647 | 2153887.1925 | 3968294.8009 | 3968294.8009 | 1542007.7403 | 2754309.8783 |
il1.accesses                                462610 |       462610 |       462610 |       462610 |      1003915 |      1003915 |      1003915 |      1003915 |      2129448 |      2129448 |      2129448 |      2129448 |      4553436 |      4553436 |      4553436 |      4553436 |      9621382 |      9621382 |      9621382 |      9621382 |     20458513 |     20458513 |     20458513 |     20458513 |     43115975 |     43115975 |     43115975 |     43115975 |     90839885 |     90839885 |     90839885 |     90839885 |    190657494 |    190657494 |    190657494 |    190657494 |    402776905 |    402776905 |    402776905 |    402776905 |    837310203 |    837310203 |    837310203 |    837310203 |
il1.hits                                    462140 |       462140 |       462169 |       462169 |      1003443 |      1003443 |      1003472 |      1003472 |      2128963 |      2128963 |      2129001 |      2129001 |      4552962 |      4552962 |      4552992 |      4552992 |      9620908 |      9620908 |      9620938 |      9620938 |     20458040 |     20458040 |     20458070 |     20458070 |     43115502 |     43115502 |     43115532 |     43115532 |     90839412 |     90839412 |     90839442 |     90839442 |    190657021 |    190657021 |    190657051 |    190657051 |    402776432 |    402776432 |    402776462 |    402776462 |    837309730 |    837309730 |    837309760 |    837309760 |
il1.misses                                     470 |          470 |          441 |          441 |          472 |          472 |          443 |          443 |          485 |          485 |          447 |          447 |          474 |          474 |          444 |          444 |          474 |          474 |          444 |          444 |          473 |          473 |          443 |          443 |          473 |          473 |          443 |          443 |          473 |          473 |          443 |          443 |          473 |          473 |          443 |          443 |          473 |          473 |          443 |          443 |          473 |          473 |          443 |          443 |
il1.replacements                               228 |          228 |          185 |          185 |          230 |          230 |          187 |          187 |          245 |          245 |          191 |          191 |          233 |          233 |          188 |          188 |          233 |          233 |          188 |          188 |          233 |          233 |          187 |          187 |          233 |          233 |          187 |          187 |          233 |          233 |          187 |          187 |          233 |          233 |          187 |          187 |          233 |          233 |          187 |          187 |          233 |          233 |          187 |          187 |
il1.writebacks                                   0 |            0 |            0 |            0 |            0 |            0 |            0 |            0 |            0 |            0 |            0 |            0 |            0 |            0 |            0 |            0 |            0 |            0 |            0 |            0 |            0 |            0 |            0 |            0 |            0 |            0 |            0 |            0 |            0 |            0 |            0 |            0 |            0 |            0 |            0 |            0 |            0 |            0 |            0 |            0 |            0 |            0 |            0 |            0 |
il1.invalidations                                0 |            0 |            0 |            0 |            0 |            0 |            0 |            0 |            0 |            0 |            0 |            0 |            0 |            0 |            0 |            0 |            0 |            0 |            0 |            0 |            0 |            0 |            0 |            0 |            0 |            0 |            0 |            0 |            0 |            0 |            0 |            0 |            0 |            0 |            0 |            0 |            0 |            0 |            0 |            0 |            0 |            0 |            0 |            0 |
il1.miss_rate                               0.0010 |       0.0010 |       0.0010 |       0.0010 |       0.0005 |       0.0005 |       0.0004 |       0.0004 |       0.0002 |       0.0002 |       0.0002 |       0.0002 |       0.0001 |       0.0001 |       0.0001 |       0.0001 |       0.0000 |       0.0000 |       0.0000 |       0.0000 |       0.0000 |       0.0000 |       0.0000 |       0.0000 |       0.0000 |       0.0000 |       0.0000 |       0.0000 |       0.0000 |       0.0000 |       0.0000 |       0.0000 |       0.0000 |       0.0000 |       0.0000 |       0.0000 |       0.0000 |       0.0000 |       0.0000 |       0.0000 |       0.0000 |       0.0000 |       0.0000 |       0.0000 |
il1.repl_rate                               0.0005 |       0.0005 |       0.0004 |       0.0004 |       0.0002 |       0.0002 |       0.0002 |       0.0002 |       0.0001 |       0.0001 |       0.0001 |       0.0001 |       0.0001 |       0.0001 |       0.0000 |       0.0000 |       0.0000 |       0.0000 |       0.0000 |       0.0000 |       0.0000 |       0.0000 |       0.0000 |       0.0000 |       0.0000 |       0.0000 |       0.0000 |       0.0000 |       0.0000 |       0.0000 |       0.0000 |       0.0000 |       0.0000 |       0.0000 |       0.0000 |       0.0000 |       0.0000 |       0.0000 |       0.0000 |       0.0000 |       0.0000 |       0.0000 |       0.0000 |       0.0000 |
il1.wb_rate                                 0.0000 |       0.0000 |       0.0000 |       0.0000 |       0.0000 |       0.0000 |       0.0000 |       0.0000 |       0.0000 |       0.0000 |       0.0000 |       0.0000 |       0.0000 |       0.0000 |       0.0000 |       0.0000 |       0.0000 |       0.0000 |       0.0000 |       0.0000 |       0.0000 |       0.0000 |       0.0000 |       0.0000 |       0.0000 |       0.0000 |       0.0000 |       0.0000 |       0.0000 |       0.0000 |       0.0000 |       0.0000 |       0.0000 |       0.0000 |       0.0000 |       0.0000 |       0.0000 |       0.0000 |       0.0000 |       0.0000 |       0.0000 |       0.0000 |       0.0000 |       0.0000 |
il1.inv_rate                                0.0000 |       0.0000 |       0.0000 |       0.0000 |       0.0000 |       0.0000 |       0.0000 |       0.0000 |       0.0000 |       0.0000 |       0.0000 |       0.0000 |       0.0000 |       0.0000 |       0.0000 |       0.0000 |       0.0000 |       0.0000 |       0.0000 |       0.0000 |       0.0000 |       0.0000 |       0.0000 |       0.0000 |       0.0000 |       0.0000 |       0.0000 |       0.0000 |       0.0000 |       0.0000 |       0.0000 |       0.0000 |       0.0000 |       0.0000 |       0.0000 |       0.0000 |       0.0000 |       0.0000 |       0.0000 |       0.0000 |       0.0000 |       0.0000 |       0.0000 |       0.0000 |
dl1.accesses                                141114 |       141114 |       141114 |       141114 |       299089 |       299089 |       299089 |       299089 |       626496 |       626496 |       626496 |       626496 |      1316731 |      1316731 |      1316731 |      1316731 |      2758066 |      2758066 |      2758066 |      2758066 |      5795777 |      5795777 |      5795777 |      5795777 |     12112953 |     12112953 |     12112953 |     12112953 |     25313813 |     25313813 |     25313813 |     25313813 |     52735474 |     52735474 |     52735474 |     52735474 |    110292177 |    110292177 |    110292177 |    110292177 |    228507907 |    228507907 |    228507907 |    228507907 |
dl1.hits                                    138563 |       138563 |       138541 |       138541 |       293329 |       293329 |       293113 |       293113 |       613398 |       613398 |       613268 |       613268 |      1285911 |      1285911 |      1285648 |      1285648 |      2689181 |      2689181 |      2689323 |      2689323 |      5638542 |      5638542 |      5638770 |      5638770 |     11763237 |     11763237 |     11766530 |     11766530 |     24541678 |     24541678 |     24548175 |     24548175 |     51051406 |     51051406 |     51069388 |     51069388 |    106551837 |    106551837 |    106595568 |    106595568 |    220548197 |    220548197 |    220647951 |    220647951 |
dl1.misses                                    2551 |         2551 |         2573 |         2573 |         5760 |         5760 |         5976 |         5976 |        13098 |        13098 |        13228 |        13228 |        30820 |        30820 |        31083 |        31083 |        68885 |        68885 |        68743 |        68743 |       157235 |       157235 |       157007 |       157007 |       349716 |       349716 |       346423 |       346423 |       772135 |       772135 |       765638 |       765638 |      1684068 |      1684068 |      1666086 |      1666086 |      3740340 |      3740340 |      3696609 |      3696609 |      7959710 |      7959710 |      7859956 |      7859956 |
dl1.replacements                              2295 |         2295 |         2317 |         2317 |         5504 |         5504 |         5720 |         5720 |        12842 |        12842 |        12972 |        12972 |        30564 |        30564 |        30827 |        30827 |        68629 |        68629 |        68487 |        68487 |       156979 |       156979 |       156751 |       156751 |       349460 |       349460 |       346167 |       346167 |       771879 |       771879 |       765382 |       765382 |      1683812 |      1683812 |      1665830 |      1665830 |      3740084 |      3740084 |      3696353 |      3696353 |      7959454 |      7959454 |      7859700 |      7859700 |
dl1.writebacks                                2248 |         2248 |         2287 |         2287 |         5361 |         5361 |         5601 |         5601 |        12581 |        12581 |        12797 |        12797 |        29565 |        29565 |        30061 |        30061 |        66872 |        66872 |        67403 |        67403 |       151630 |       151630 |       152949 |       152949 |       337540 |       337540 |       337980 |       337980 |       745036 |       745036 |       746861 |       746861 |      1626387 |      1626387 |      1627382 |      1627382 |      3544799 |      3544799 |      3543710 |      3543710 |      7645233 |      7645233 |      7638846 |      7638846 |
dl1.invalidations                                0 |            0 |            0 |            0 |            0 |            0 |            0 |            0 |            0 |            0 |            0 |            0 |            0 |            0 |            0 |            0 |            0 |            0 |            0 |            0 |            0 |            0 |            0 |            0 |            0 |            0 |            0 |            0 |            0 |            0 |            0 |            0 |            0 |            0 |            0 |            0 |            0 |            0 |            0 |            0 |            0 |            0 |            0 |            0 |
dl1.miss_rate                               0.0181 |       0.0181 |       0.0182 |       0.0182 |       0.0193 |       0.0193 |       0.0200 |       0.0200 |       0.0209 |       0.0209 |       0.0211 |       0.0211 |       0.0234 |       0.0234 |       0.0236 |       0.0236 |       0.0250 |       0.0250 |       0.0249 |       0.0249 |       0.0271 |       0.0271 |       0.0271 |       0.0271 |       0.0289 |       0.0289 |       0.0286 |       0.0286 |       0.0305 |       0.0305 |       0.0302 |       0.0302 |       0.0319 |       0.0319 |       0.0316 |       0.0316 |       0.0339 |       0.0339 |       0.0335 |       0.0335 |       0.0348 |       0.0348 |       0.0344 |       0.0344 |
dl1.repl_rate                               0.0163 |       0.0163 |       0.0164 |       0.0164 |       0.0184 |       0.0184 |       0.0191 |       0.0191 |       0.0205 |       0.0205 |       0.0207 |       0.0207 |       0.0232 |       0.0232 |       0.0234 |       0.0234 |       0.0249 |       0.0249 |       0.0248 |       0.0248 |       0.0271 |       0.0271 |       0.0270 |       0.0270 |       0.0289 |       0.0289 |       0.0286 |       0.0286 |       0.0305 |       0.0305 |       0.0302 |       0.0302 |       0.0319 |       0.0319 |       0.0316 |       0.0316 |       0.0339 |       0.0339 |       0.0335 |       0.0335 |       0.0348 |       0.0348 |       0.0344 |       0.0344 |
dl1.wb_rate                                 0.0159 |       0.0159 |       0.0162 |       0.0162 |       0.0179 |       0.0179 |       0.0187 |       0.0187 |       0.0201 |       0.0201 |       0.0204 |       0.0204 |       0.0225 |       0.0225 |       0.0228 |       0.0228 |       0.0242 |       0.0242 |       0.0244 |       0.0244 |       0.0262 |       0.0262 |       0.0264 |       0.0264 |       0.0279 |       0.0279 |       0.0279 |       0.0279 |       0.0294 |       0.0294 |       0.0295 |       0.0295 |       0.0308 |       0.0308 |       0.0309 |       0.0309 |       0.0321 |       0.0321 |       0.0321 |       0.0321 |       0.0335 |       0.0335 |       0.0334 |       0.0334 |
dl1.inv_rate                                0.0000 |       0.0000 |       0.0000 |       0.0000 |       0.0000 |       0.0000 |       0.0000 |       0.0000 |       0.0000 |       0.0000 |       0.0000 |       0.0000 |       0.0000 |       0.0000 |       0.0000 |       0.0000 |       0.0000 |       0.0000 |       0.0000 |       0.0000 |       0.0000 |       0.0000 |       0.0000 |       0.0000 |       0.0000 |       0.0000 |       0.0000 |       0.0000 |       0.0000 |       0.0000 |       0.0000 |       0.0000 |       0.0000 |       0.0000 |       0.0000 |       0.0000 |       0.0000 |       0.0000 |       0.0000 |       0.0000 |       0.0000 |       0.0000 |       0.0000 |       0.0000 |
dl2.accesses                                  5269 |         5269 |         5301 |         5301 |        11593 |        11593 |        12020 |        12020 |        26164 |        26164 |        26472 |        26472 |        60859 |        60859 |        61588 |        61588 |       136231 |       136231 |       136590 |       136590 |       309338 |       309338 |       310399 |       310399 |       687729 |       687729 |       684846 |       684846 |      1517644 |      1517644 |      1512942 |      1512942 |      3310928 |      3310928 |      3293911 |      3293911 |      7285612 |      7285612 |      7240762 |      7240762 |     15605416 |     15605416 |     15499245 |     15499245 |
dl2.hits                                      3880 |         3880 |         3927 |         3927 |         9689 |         9689 |        10132 |        10132 |        23237 |        23237 |        23566 |        23566 |        55891 |        55891 |        56635 |        56635 |       127166 |       127166 |       127540 |       127540 |       292082 |       292082 |       293158 |       293158 |       654089 |       654089 |       651221 |       651221 |      1451236 |      1450475 |      1446549 |      1394467 |      3178213 |      2889292 |      3030395 |      2832022 |      6308395 |      5931379 |      6124290 |      5801831 |     13055577 |     12513609 |     12855445 |     12206737 |
dl2.misses                                    1389 |         1389 |         1374 |         1374 |         1904 |         1904 |         1888 |         1888 |         2927 |         2927 |         2906 |         2906 |         4968 |         4968 |         4953 |         4953 |         9065 |         9065 |         9050 |         9050 |        17256 |        17256 |        17241 |        17241 |        33640 |        33640 |        33625 |        33625 |        66408 |        67169 |        66393 |       118475 |       132715 |       421636 |       263516 |       461889 |       977217 |      1354233 |      1116472 |      1438931 |      2549839 |      3091807 |      2643800 |      3292508 |
dl2.replacements                               171 |          171 |            0 |            0 |          173 |          173 |            0 |            0 |          178 |          178 |            0 |            0 |          173 |          173 |            0 |            0 |          173 |          173 |            0 |            0 |          173 |          173 |            0 |            0 |          173 |          173 |            0 |            0 |          173 |         1633 |            0 |        52939 |         1643 |       356100 |       132444 |       396353 |       846145 |      1288697 |       985400 |      1373395 |      2418767 |      3026271 |      2512728 |      3226972 |
dl2.writebacks                                 105 |          105 |            0 |            0 |          107 |          107 |            0 |            0 |          108 |          108 |            0 |            0 |          107 |          107 |            0 |            0 |          107 |          107 |            0 |            0 |          107 |          107 |            0 |            0 |          107 |          107 |            0 |            0 |          107 |         1307 |            0 |        52473 |         1317 |       354165 |       131279 |       393967 |       823505 |      1211398 |       922979 |      1295781 |      2379829 |      2974663 |      2471723 |      3161387 |
dl2.invalidations                                0 |            0 |            0 |            0 |            0 |            0 |            0 |            0 |            0 |            0 |            0 |            0 |            0 |            0 |            0 |            0 |            0 |            0 |            0 |            0 |            0 |            0 |            0 |            0 |            0 |            0 |            0 |            0 |            0 |            0 |            0 |            0 |            0 |            0 |            0 |            0 |            0 |            0 |            0 |            0 |            0 |            0 |            0 |            0 |
dl2.miss_rate                               0.2636 |       0.2636 |       0.2592 |       0.2592 |       0.1642 |       0.1642 |       0.1571 |       0.1571 |       0.1119 |       0.1119 |       0.1098 |       0.1098 |       0.0816 |       0.0816 |       0.0804 |       0.0804 |       0.0665 |       0.0665 |       0.0663 |       0.0663 |       0.0558 |       0.0558 |       0.0555 |       0.0555 |       0.0489 |       0.0489 |       0.0491 |       0.0491 |       0.0438 |       0.0443 |       0.0439 |       0.0783 |       0.0401 |       0.1273 |       0.0800 |       0.1402 |       0.1341 |       0.1859 |       0.1542 |       0.1987 |       0.1634 |       0.1981 |       0.1706 |       0.2124 |
dl2.repl_rate                               0.0325 |       0.0325 |       0.0000 |       0.0000 |       0.0149 |       0.0149 |       0.0000 |       0.0000 |       0.0068 |       0.0068 |       0.0000 |       0.0000 |       0.0028 |       0.0028 |       0.0000 |       0.0000 |       0.0013 |       0.0013 |       0.0000 |       0.0000 |       0.0006 |       0.0006 |       0.0000 |       0.0000 |       0.0003 |       0.0003 |       0.0000 |       0.0000 |       0.0001 |       0.0011 |       0.0000 |       0.0350 |       0.0005 |       0.1076 |       0.0402 |       0.1203 |       0.1161 |       0.1769 |       0.1361 |       0.1897 |       0.1550 |       0.1939 |       0.1621 |       0.2082 |
dl2.wb_rate                                 0.0199 |       0.0199 |       0.0000 |       0.0000 |       0.0092 |       0.0092 |       0.0000 |       0.0000 |       0.0041 |       0.0041 |       0.0000 |       0.0000 |       0.0018 |       0.0018 |       0.0000 |       0.0000 |       0.0008 |       0.0008 |       0.0000 |       0.0000 |       0.0003 |       0.0003 |       0.0000 |       0.0000 |       0.0002 |       0.0002 |       0.0000 |       0.0000 |       0.0001 |       0.0009 |       0.0000 |       0.0347 |       0.0004 |       0.1070 |       0.0399 |       0.1196 |       0.1130 |       0.1663 |       0.1275 |       0.1790 |       0.1525 |       0.1906 |       0.1595 |       0.2040 |
dl2.inv_rate                                0.0000 |       0.0000 |       0.0000 |       0.0000 |       0.0000 |       0.0000 |       0.0000 |       0.0000 |       0.0000 |       0.0000 |       0.0000 |       0.0000 |       0.0000 |       0.0000 |       0.0000 |       0.0000 |       0.0000 |       0.0000 |       0.0000 |       0.0000 |       0.0000 |       0.0000 |       0.0000 |       0.0000 |       0.0000 |       0.0000 |       0.0000 |       0.0000 |       0.0000 |       0.0000 |       0.0000 |       0.0000 |       0.0000 |       0.0000 |       0.0000 |       0.0000 |       0.0000 |       0.0000 |       0.0000 |       0.0000 |       0.0000 |       0.0000 |       0.0000 |       0.0000 |
itlb.accesses                               462610 |       462610 |       462610 |       462610 |      1003915 |      1003915 |      1003915 |      1003915 |      2129448 |      2129448 |      2129448 |      2129448 |      4553436 |      4553436 |      4553436 |      4553436 |      9621382 |      9621382 |      9621382 |      9621382 |     20458513 |     20458513 |     20458513 |     20458513 |     43115975 |     43115975 |     43115975 |     43115975 |     90839885 |     90839885 |     90839885 |     90839885 |    190657494 |    190657494 |    190657494 |    190657494 |    402776905 |    402776905 |    402776905 |    402776905 |    837310203 |    837310203 |    837310203 |    837310203 |
itlb.hits                                   462600 |       462600 |       462600 |       462600 |      1003905 |      1003905 |      1003905 |      1003905 |      2129438 |      2129438 |      2129438 |      2129438 |      4553426 |      4553426 |      4553426 |      4553426 |      9621372 |      9621372 |      9621372 |      9621372 |     20458503 |     20458503 |     20458503 |     20458503 |     43115965 |     43115965 |     43115965 |     43115965 |     90839875 |     90839875 |     90839875 |     90839875 |    190657484 |    190657484 |    190657484 |    190657484 |    402776895 |    402776895 |    402776895 |    402776895 |    837310193 |    837310193 |    837310193 |    837310193 |
itlb.misses                                     10 |           10 |           10 |           10 |           10 |           10 |           10 |           10 |           10 |           10 |           10 |           10 |           10 |           10 |           10 |           10 |           10 |           10 |           10 |           10 |           10 |           10 |           10 |           10 |           10 |           10 |           10 |           10 |           10 |           10 |           10 |           10 |           10 |           10 |           10 |           10 |           10 |           10 |           10 |           10 |           10 |           10 |           10 |           10 |
itlb.replacements                                0 |            0 |            0 |            0 |            0 |            0 |            0 |            0 |            0 |            0 |            0 |            0 |            0 |            0 |            0 |            0 |            0 |            0 |            0 |            0 |            0 |            0 |            0 |            0 |            0 |            0 |            0 |            0 |            0 |            0 |            0 |            0 |            0 |            0 |            0 |            0 |            0 |            0 |            0 |            0 |            0 |            0 |            0 |            0 |
itlb.writebacks                                  0 |            0 |            0 |            0 |            0 |            0 |            0 |            0 |            0 |            0 |            0 |            0 |            0 |            0 |            0 |            0 |            0 |            0 |            0 |            0 |            0 |            0 |            0 |            0 |            0 |            0 |            0 |            0 |            0 |            0 |            0 |            0 |            0 |            0 |            0 |            0 |            0 |            0 |            0 |            0 |            0 |            0 |            0 |            0 |
itlb.invalidations                               0 |            0 |            0 |            0 |            0 |            0 |            0 |            0 |            0 |            0 |            0 |            0 |            0 |            0 |            0 |            0 |            0 |            0 |            0 |            0 |            0 |            0 |            0 |            0 |            0 |            0 |            0 |            0 |            0 |            0 |            0 |            0 |            0 |            0 |            0 |            0 |            0 |            0 |            0 |            0 |            0 |            0 |            0 |            0 |
itlb.miss_rate                              0.0000 |       0.0000 |       0.0000 |       0.0000 |       0.0000 |       0.0000 |       0.0000 |       0.0000 |       0.0000 |       0.0000 |       0.0000 |       0.0000 |       0.0000 |       0.0000 |       0.0000 |       0.0000 |       0.0000 |       0.0000 |       0.0000 |       0.0000 |       0.0000 |       0.0000 |       0.0000 |       0.0000 |       0.0000 |       0.0000 |       0.0000 |       0.0000 |       0.0000 |       0.0000 |       0.0000 |       0.0000 |       0.0000 |       0.0000 |       0.0000 |       0.0000 |       0.0000 |       0.0000 |       0.0000 |       0.0000 |       0.0000 |       0.0000 |       0.0000 |       0.0000 |
itlb.repl_rate                              0.0000 |       0.0000 |       0.0000 |       0.0000 |       0.0000 |       0.0000 |       0.0000 |       0.0000 |       0.0000 |       0.0000 |       0.0000 |       0.0000 |       0.0000 |       0.0000 |       0.0000 |       0.0000 |       0.0000 |       0.0000 |       0.0000 |       0.0000 |       0.0000 |       0.0000 |       0.0000 |       0.0000 |       0.0000 |       0.0000 |       0.0000 |       0.0000 |       0.0000 |       0.0000 |       0.0000 |       0.0000 |       0.0000 |       0.0000 |       0.0000 |       0.0000 |       0.0000 |       0.0000 |       0.0000 |       0.0000 |       0.0000 |       0.0000 |       0.0000 |       0.0000 |
itlb.wb_rate                                0.0000 |       0.0000 |       0.0000 |       0.0000 |       0.0000 |       0.0000 |       0.0000 |       0.0000 |       0.0000 |       0.0000 |       0.0000 |       0.0000 |       0.0000 |       0.0000 |       0.0000 |       0.0000 |       0.0000 |       0.0000 |       0.0000 |       0.0000 |       0.0000 |       0.0000 |       0.0000 |       0.0000 |       0.0000 |       0.0000 |       0.0000 |       0.0000 |       0.0000 |       0.0000 |       0.0000 |       0.0000 |       0.0000 |       0.0000 |       0.0000 |       0.0000 |       0.0000 |       0.0000 |       0.0000 |       0.0000 |       0.0000 |       0.0000 |       0.0000 |       0.0000 |
itlb.inv_rate                               0.0000 |       0.0000 |       0.0000 |       0.0000 |       0.0000 |       0.0000 |       0.0000 |       0.0000 |       0.0000 |       0.0000 |       0.0000 |       0.0000 |       0.0000 |       0.0000 |       0.0000 |       0.0000 |       0.0000 |       0.0000 |       0.0000 |       0.0000 |       0.0000 |       0.0000 |       0.0000 |       0.0000 |       0.0000 |       0.0000 |       0.0000 |       0.0000 |       0.0000 |       0.0000 |       0.0000 |       0.0000 |       0.0000 |       0.0000 |       0.0000 |       0.0000 |       0.0000 |       0.0000 |       0.0000 |       0.0000 |       0.0000 |       0.0000 |       0.0000 |       0.0000 |
dtlb.accesses                               141114 |       141114 |       141114 |       141114 |       299089 |       299089 |       299089 |       299089 |       626496 |       626496 |       626496 |       626496 |      1316731 |      1316731 |      1316731 |      1316731 |      2758066 |      2758066 |      2758066 |      2758066 |      5795777 |      5795777 |      5795777 |      5795777 |     12112953 |     12112953 |     12112953 |     12112953 |     25313813 |     25313813 |     25313813 |     25313813 |     52735474 |     52735474 |     52735474 |     52735474 |    110292177 |    110292177 |    110292177 |    110292177 |    228507907 |    228507907 |    228507907 |    228507907 |
dtlb.hits                                   141102 |       141102 |       141102 |       141102 |       299073 |       299073 |       299073 |       299073 |       626472 |       626472 |       626472 |       626472 |      1316691 |      1316691 |      1316691 |      1316691 |      2757994 |      2757994 |      2757994 |      2757994 |      5795596 |      5795596 |      5795596 |      5795596 |     12111966 |     12111966 |     12111966 |     12111966 |     25311153 |     25311153 |     25311153 |     25311153 |     52729284 |     52729284 |     52729284 |     52729284 |    110276588 |    110276588 |    110276588 |    110276588 |    228473082 |    228473082 |    228473082 |    228473082 |
dtlb.misses                                     12 |           12 |           12 |           12 |           16 |           16 |           16 |           16 |           24 |           24 |           24 |           24 |           40 |           40 |           40 |           40 |           72 |           72 |           72 |           72 |          181 |          181 |          181 |          181 |          987 |          987 |          987 |          987 |         2660 |         2660 |         2660 |         2660 |         6190 |         6190 |         6190 |         6190 |        15589 |        15589 |        15589 |        15589 |        34825 |        34825 |        34825 |        34825 |
dtlb.replacements                                0 |            0 |            0 |            0 |            0 |            0 |            0 |            0 |            0 |            0 |            0 |            0 |            0 |            0 |            0 |            0 |            0 |            0 |            0 |            0 |           53 |           53 |           53 |           53 |          859 |          859 |          859 |          859 |         2532 |         2532 |         2532 |         2532 |         6062 |         6062 |         6062 |         6062 |        15461 |        15461 |        15461 |        15461 |        34697 |        34697 |        34697 |        34697 |
dtlb.writebacks                                  0 |            0 |            0 |            0 |            0 |            0 |            0 |            0 |            0 |            0 |            0 |            0 |            0 |            0 |            0 |            0 |            0 |            0 |            0 |            0 |           50 |           50 |           50 |           50 |          849 |          849 |          849 |          849 |         2515 |         2515 |         2515 |         2515 |         6027 |         6027 |         6027 |         6027 |        15393 |        15393 |        15393 |        15393 |        34555 |        34555 |        34555 |        34555 |
dtlb.invalidations                               0 |            0 |            0 |            0 |            0 |            0 |            0 |            0 |            0 |            0 |            0 |            0 |            0 |            0 |            0 |            0 |            0 |            0 |            0 |            0 |            0 |            0 |            0 |            0 |            0 |            0 |            0 |            0 |            0 |            0 |            0 |            0 |            0 |            0 |            0 |            0 |            0 |            0 |            0 |            0 |            0 |            0 |            0 |            0 |
dtlb.miss_rate                              0.0001 |       0.0001 |       0.0001 |       0.0001 |       0.0001 |       0.0001 |       0.0001 |       0.0001 |       0.0000 |       0.0000 |       0.0000 |       0.0000 |       0.0000 |       0.0000 |       0.0000 |       0.0000 |       0.0000 |       0.0000 |       0.0000 |       0.0000 |       0.0000 |       0.0000 |       0.0000 |       0.0000 |       0.0001 |       0.0001 |       0.0001 |       0.0001 |       0.0001 |       0.0001 |       0.0001 |       0.0001 |       0.0001 |       0.0001 |       0.0001 |       0.0001 |       0.0001 |       0.0001 |       0.0001 |       0.0001 |       0.0002 |       0.0002 |       0.0002 |       0.0002 |
dtlb.repl_rate                              0.0000 |       0.0000 |       0.0000 |       0.0000 |       0.0000 |       0.0000 |       0.0000 |       0.0000 |       0.0000 |       0.0000 |       0.0000 |       0.0000 |       0.0000 |       0.0000 |       0.0000 |       0.0000 |       0.0000 |       0.0000 |       0.0000 |       0.0000 |       0.0000 |       0.0000 |       0.0000 |       0.0000 |       0.0001 |       0.0001 |       0.0001 |       0.0001 |       0.0001 |       0.0001 |       0.0001 |       0.0001 |       0.0001 |       0.0001 |       0.0001 |       0.0001 |       0.0001 |       0.0001 |       0.0001 |       0.0001 |       0.0002 |       0.0002 |       0.0002 |       0.0002 |
dtlb.wb_rate                                0.0000 |       0.0000 |       0.0000 |       0.0000 |       0.0000 |       0.0000 |       0.0000 |       0.0000 |       0.0000 |       0.0000 |       0.0000 |       0.0000 |       0.0000 |       0.0000 |       0.0000 |       0.0000 |       0.0000 |       0.0000 |       0.0000 |       0.0000 |       0.0000 |       0.0000 |       0.0000 |       0.0000 |       0.0001 |       0.0001 |       0.0001 |       0.0001 |       0.0001 |       0.0001 |       0.0001 |       0.0001 |       0.0001 |       0.0001 |       0.0001 |       0.0001 |       0.0001 |       0.0001 |       0.0001 |       0.0001 |       0.0002 |       0.0002 |       0.0002 |       0.0002 |
dtlb.inv_rate                               0.0000 |       0.0000 |       0.0000 |       0.0000 |       0.0000 |       0.0000 |       0.0000 |       0.0000 |       0.0000 |       0.0000 |       0.0000 |       0.0000 |       0.0000 |       0.0000 |       0.0000 |       0.0000 |       0.0000 |       0.0000 |       0.0000 |       0.0000 |       0.0000 |       0.0000 |       0.0000 |       0.0000 |       0.0000 |       0.0000 |       0.0000 |       0.0000 |       0.0000 |       0.0000 |       0.0000 |       0.0000 |       0.0000 |       0.0000 |       0.0000 |       0.0000 |       0.0000 |       0.0000 |       0.0000 |       0.0000 |       0.0000 |       0.0000 |       0.0000 |       0.0000 |
ld_text_base                            0x00400000 |   0x00400000 |   0x00400000 |   0x00400000 |   0x00400000 |   0x00400000 |   0x00400000 |   0x00400000 |   0x00400000 |   0x00400000 |   0x00400000 |   0x00400000 |   0x00400000 |   0x00400000 |   0x00400000 |   0x00400000 |   0x00400000 |   0x00400000 |   0x00400000 |   0x00400000 |   0x00400000 |   0x00400000 |   0x00400000 |   0x00400000 |   0x00400000 |   0x00400000 |   0x00400000 |   0x00400000 |   0x00400000 |   0x00400000 |   0x00400000 |   0x00400000 |   0x00400000 |   0x00400000 |   0x00400000 |   0x00400000 |   0x00400000 |   0x00400000 |   0x00400000 |   0x00400000 |   0x00400000 |   0x00400000 |   0x00400000 |   0x00400000 |
ld_text_size                                 74192 |        74192 |        74192 |        74192 |        74224 |        74224 |        74224 |        74224 |        74240 |        74240 |        74240 |        74240 |        74256 |        74256 |        74256 |        74256 |        74256 |        74256 |        74256 |        74256 |        74256 |        74256 |        74256 |        74256 |        74256 |        74256 |        74256 |        74256 |        74256 |        74256 |        74256 |        74256 |        74256 |        74256 |        74256 |        74256 |        74256 |        74256 |        74256 |        74256 |        74256 |        74256 |        74256 |        74256 |
ld_data_base                            0x10000000 |   0x10000000 |   0x10000000 |   0x10000000 |   0x10000000 |   0x10000000 |   0x10000000 |   0x10000000 |   0x10000000 |   0x10000000 |   0x10000000 |   0x10000000 |   0x10000000 |   0x10000000 |   0x10000000 |   0x10000000 |   0x10000000 |   0x10000000 |   0x10000000 |   0x10000000 |   0x10000000 |   0x10000000 |   0x10000000 |   0x10000000 |   0x10000000 |   0x10000000 |   0x10000000 |   0x10000000 |   0x10000000 |   0x10000000 |   0x10000000 |   0x10000000 |   0x10000000 |   0x10000000 |   0x10000000 |   0x10000000 |   0x10000000 |   0x10000000 |   0x10000000 |   0x10000000 |   0x10000000 |   0x10000000 |   0x10000000 |   0x10000000 |
ld_data_size                                  8192 |         8192 |         8192 |         8192 |         8192 |         8192 |         8192 |         8192 |         8192 |         8192 |         8192 |         8192 |         8192 |         8192 |         8192 |         8192 |         8192 |         8192 |         8192 |         8192 |         8192 |         8192 |         8192 |         8192 |         8192 |         8192 |         8192 |         8192 |         8192 |         8192 |         8192 |         8192 |         8192 |         8192 |         8192 |         8192 |         8192 |         8192 |         8192 |         8192 |         8192 |         8192 |         8192 |         8192 |
ld_stack_base                           0x7fffc000 |   0x7fffc000 |   0x7fffc000 |   0x7fffc000 |   0x7fffc000 |   0x7fffc000 |   0x7fffc000 |   0x7fffc000 |   0x7fffc000 |   0x7fffc000 |   0x7fffc000 |   0x7fffc000 |   0x7fffc000 |   0x7fffc000 |   0x7fffc000 |   0x7fffc000 |   0x7fffc000 |   0x7fffc000 |   0x7fffc000 |   0x7fffc000 |   0x7fffc000 |   0x7fffc000 |   0x7fffc000 |   0x7fffc000 |   0x7fffc000 |   0x7fffc000 |   0x7fffc000 |   0x7fffc000 |   0x7fffc000 |   0x7fffc000 |   0x7fffc000 |   0x7fffc000 |   0x7fffc000 |   0x7fffc000 |   0x7fffc000 |   0x7fffc000 |   0x7fffc000 |   0x7fffc000 |   0x7fffc000 |   0x7fffc000 |   0x7fffc000 |   0x7fffc000 |   0x7fffc000 |   0x7fffc000 |
ld_stack_size                                16384 |        16384 |        16384 |        16384 |        16384 |        16384 |        16384 |        16384 |        16384 |        16384 |        16384 |        16384 |        16384 |        16384 |        16384 |        16384 |        16384 |        16384 |        16384 |        16384 |        16384 |        16384 |        16384 |        16384 |        16384 |        16384 |        16384 |        16384 |        16384 |        16384 |        16384 |        16384 |        16384 |        16384 |        16384 |        16384 |        16384 |        16384 |        16384 |        16384 |        16384 |        16384 |        16384 |        16384 |
ld_prog_entry                           0x00400140 |   0x00400140 |   0x00400140 |   0x00400140 |   0x00400140 |   0x00400140 |   0x00400140 |   0x00400140 |   0x00400140 |   0x00400140 |   0x00400140 |   0x00400140 |   0x00400140 |   0x00400140 |   0x00400140 |   0x00400140 |   0x00400140 |   0x00400140 |   0x00400140 |   0x00400140 |   0x00400140 |   0x00400140 |   0x00400140 |   0x00400140 |   0x00400140 |   0x00400140 |   0x00400140 |   0x00400140 |   0x00400140 |   0x00400140 |   0x00400140 |   0x00400140 |   0x00400140 |   0x00400140 |   0x00400140 |   0x00400140 |   0x00400140 |   0x00400140 |   0x00400140 |   0x00400140 |   0x00400140 |   0x00400140 |   0x00400140 |   0x00400140 |
ld_environ_base                         0x7fff8000 |   0x7fff8000 |   0x7fff8000 |   0x7fff8000 |   0x7fff8000 |   0x7fff8000 |   0x7fff8000 |   0x7fff8000 |   0x7fff8000 |   0x7fff8000 |   0x7fff8000 |   0x7fff8000 |   0x7fff8000 |   0x7fff8000 |   0x7fff8000 |   0x7fff8000 |   0x7fff8000 |   0x7fff8000 |   0x7fff8000 |   0x7fff8000 |   0x7fff8000 |   0x7fff8000 |   0x7fff8000 |   0x7fff8000 |   0x7fff8000 |   0x7fff8000 |   0x7fff8000 |   0x7fff8000 |   0x7fff8000 |   0x7fff8000 |   0x7fff8000 |   0x7fff8000 |   0x7fff8000 |   0x7fff8000 |   0x7fff8000 |   0x7fff8000 |   0x7fff8000 |   0x7fff8000 |   0x7fff8000 |   0x7fff8000 |   0x7fff8000 |   0x7fff8000 |   0x7fff8000 |   0x7fff8000 |
ld_target_big_endian                             0 |            0 |            0 |            0 |            0 |            0 |            0 |            0 |            0 |            0 |            0 |            0 |            0 |            0 |            0 |            0 |            0 |            0 |            0 |            0 |            0 |            0 |            0 |            0 |            0 |            0 |            0 |            0 |            0 |            0 |            0 |            0 |            0 |            0 |            0 |            0 |            0 |            0 |            0 |            0 |            0 |            0 |            0 |            0 |
mem.page_count                                  31 |           31 |           31 |           31 |           35 |           35 |           35 |           35 |           43 |           43 |           43 |           43 |           59 |           59 |           59 |           59 |           91 |           91 |           91 |           91 |          155 |          155 |          155 |          155 |          283 |          283 |          283 |          283 |          539 |          539 |          539 |          539 |         1051 |         1051 |         1051 |         1051 |         2075 |         2075 |         2075 |         2075 |         4123 |         4123 |         4123 |         4123 |
mem.page_mem                                  124k |         124k |         124k |         124k |         140k |         140k |         140k |         140k |         172k |         172k |         172k |         172k |         236k |         236k |         236k |         236k |         364k |         364k |         364k |         364k |         620k |         620k |         620k |         620k |        1132k |        1132k |        1132k |        1132k |        2156k |        2156k |        2156k |        2156k |        4204k |        4204k |        4204k |        4204k |        8300k |        8300k |        8300k |        8300k |       16492k |       16492k |       16492k |       16492k |
mem.ptab_misses                                 31 |           31 |           31 |           31 |           35 |           35 |           35 |           35 |           43 |           43 |           43 |           43 |           59 |           59 |           59 |           59 |           91 |           91 |           91 |           91 |          155 |          155 |          155 |          155 |          283 |          283 |          283 |          283 |          539 |          539 |          539 |          539 |         1051 |         1051 |         1051 |         1051 |         2075 |         2075 |         2075 |         2075 |         4123 |         4123 |         4123 |         4123 |
mem.ptab_accesses                          2592442 |      2592442 |      2592442 |      2592442 |      5073804 |      5073804 |      5073804 |      5073804 |     10230846 |     10230846 |     10230846 |     10230846 |     21307364 |     21307364 |     21307364 |     21307364 |     44461818 |     44461818 |     44461818 |     44461818 |     93885764 |     93885764 |     93885764 |     93885764 |    197149964 |    197149964 |    197149964 |    197149964 |    414447324 |    414447324 |    414447324 |    414447324 |    868561082 |    868561082 |    868561082 |    868561082 |   1832152132 |   1832152132 |   1832152132 |   1832152132 |   3806716784 |   3806716784 |   3806716784 |   3806716784 |
mem.ptab_miss_rate                          0.0000 |       0.0000 |       0.0000 |       0.0000 |       0.0000 |       0.0000 |       0.0000 |       0.0000 |       0.0000 |       0.0000 |       0.0000 |       0.0000 |       0.0000 |       0.0000 |       0.0000 |       0.0000 |       0.0000 |       0.0000 |       0.0000 |       0.0000 |       0.0000 |       0.0000 |       0.0000 |       0.0000 |       0.0000 |       0.0000 |       0.0000 |       0.0000 |       0.0000 |       0.0000 |       0.0000 |       0.0000 |       0.0000 |       0.0000 |       0.0000 |       0.0000 |       0.0000 |       0.0000 |       0.0000 |       0.0000 |       0.0000 |       0.0000 |       0.0000 |       0.0000 |
-------------------------------------------------------------------------------------------------
sim-bpred                                     4096 |         4096 |         4096 |         4096 |         4096 |         4096 |         4096 |         8192 |         8192 |         8192 |         8192 |         8192 |         8192 |         8192 |        16384 |        16384 |        16384 |        16384 |        16384 |        16384 |        16384 |        32768 |        32768 |        32768 |        32768 |        32768 |        32768 |        32768 |        65536 |        65536 |        65536 |        65536 |        65536 |        65536 |        65536 |       131072 |       131072 |       131072 |       131072 |       131072 |       131072 |       131072 |       262144 |       262144 |       262144 |       262144 |       262144 |       262144 |       262144 |       524288 |       524288 |       524288 |       524288 |       524288 |       524288 |       524288 |      1048576 |      1048576 |      1048576 |      1048576 |      1048576 |      1048576 |      1048576 |      2097152 |      2097152 |      2097152 |      2097152 |      2097152 |      2097152 |      2097152 |      4194304 |      4194304 |      4194304 |      4194304 |      4194304 |      4194304 |      4194304 |
-bpred bimod -bpred:bimod 512
-bpred bimod -bpred:bimod 1024
-bpred bimod -bpred:bimod 2048
-bpred 2lev -bpred:2lev 1 512 10 1
-bpred 2lev -bpred:2lev 1 1024 10 1
-bpred 2lev -bpred:2lev 1 2048 10 1
-bpred 2lev -bpred:2lev 1 4096 10 1
-------------------------------------------------------------------------------------------------
sim_num_insn                                462610 |       462610 |       462610 |       462610 |       462610 |       462610 |       462610 |      1003915 |      1003915 |      1003915 |      1003915 |      1003915 |      1003915 |      1003915 |      2129448 |      2129448 |      2129448 |      2129448 |      2129448 |      2129448 |      2129448 |      4553436 |      4553436 |      4553436 |      4553436 |      4553436 |      4553436 |      4553436 |      9621382 |      9621382 |      9621382 |      9621382 |      9621382 |      9621382 |      9621382 |     20458513 |     20458513 |     20458513 |     20458513 |     20458513 |     20458513 |     20458513 |     43115975 |     43115975 |     43115975 |     43115975 |     43115975 |     43115975 |     43115975 |     90839885 |     90839885 |     90839885 |     90839885 |     90839885 |     90839885 |     90839885 |    190657494 |    190657494 |    190657494 |    190657494 |    190657494 |    190657494 |    190657494 |    402776905 |    402776905 |    402776905 |    402776905 |    402776905 |    402776905 |    402776905 |    837310203 |    837310203 |    837310203 |    837310203 |    837310203 |    837310203 |    837310203 |
sim_num_refs                                124648 |       124648 |       124648 |       124648 |       124648 |       124648 |       124648 |       266239 |       266239 |       266239 |       266239 |       266239 |       266239 |       266239 |       560878 |       560878 |       560878 |       560878 |       560878 |       560878 |       560878 |      1185577 |      1185577 |      1185577 |      1185577 |      1185577 |      1185577 |      1185577 |      2495840 |      2495840 |      2495840 |      2495840 |      2495840 |      2495840 |      2495840 |      5271407 |      5271407 |      5271407 |      5271407 |      5271407 |      5271407 |      5271407 |     11064295 |     11064295 |     11064295 |     11064295 |     11064295 |     11064295 |     11064295 |     23216579 |     23216579 |     23216579 |     23216579 |     23216579 |     23216579 |     23216579 |     48541088 |     48541088 |     48541088 |     48541088 |     48541088 |     48541088 |     48541088 |    101903487 |    101903487 |    101903487 |    101903487 |    101903487 |    101903487 |    101903487 |    211730609 |    211730609 |    211730609 |    211730609 |    211730609 |    211730609 |    211730609 |
sim_elapsed_time                                 1 |            1 |            1 |            1 |            1 |            1 |            1 |            1 |            1 |            1 |            1 |            1 |            1 |            1 |            1 |            1 |            1 |            1 |            1 |            1 |            1 |            1 |            1 |            1 |            1 |            1 |            1 |            1 |            1 |            1 |            1 |            1 |            2 |            1 |            1 |            3 |            2 |            3 |            3 |            2 |            4 |            2 |            5 |            5 |            7 |            5 |            5 |            8 |            5 |           10 |           10 |           15 |           10 |           11 |           16 |           11 |           22 |           22 |           32 |           22 |           22 |           34 |           22 |           46 |           46 |           68 |           46 |           47 |           73 |           47 |           95 |           96 |          141 |           97 |           97 |          152 |           98 |
sim_inst_rate                          462610.0000 |  462610.0000 |  462610.0000 |  462610.0000 |  462610.0000 |  462610.0000 |  462610.0000 | 1003915.0000 | 1003915.0000 | 1003915.0000 | 1003915.0000 | 1003915.0000 | 1003915.0000 | 1003915.0000 | 2129448.0000 | 2129448.0000 | 2129448.0000 | 2129448.0000 | 2129448.0000 | 2129448.0000 | 2129448.0000 | 4553436.0000 | 4553436.0000 | 4553436.0000 | 4553436.0000 | 4553436.0000 | 4553436.0000 | 4553436.0000 | 9621382.0000 | 9621382.0000 | 9621382.0000 | 9621382.0000 | 4810691.0000 | 9621382.0000 | 9621382.0000 | 6819504.3333 |10229256.5000 | 6819504.3333 | 6819504.3333 |10229256.5000 | 5114628.2500 |10229256.5000 | 8623195.0000 | 8623195.0000 | 6159425.0000 | 8623195.0000 | 8623195.0000 | 5389496.8750 | 8623195.0000 | 9083988.5000 | 9083988.5000 | 6055992.3333 | 9083988.5000 | 8258171.3636 | 5677492.8125 | 8258171.3636 | 8666249.7273 | 8666249.7273 | 5958046.6875 | 8666249.7273 | 8666249.7273 | 5607573.3529 | 8666249.7273 | 8756019.6739 | 8756019.6739 | 5923189.7794 | 8756019.6739 | 8569721.3830 | 5517491.8493 | 8569721.3830 | 8813791.6105 | 8721981.2812 | 5938370.2340 | 8632063.9485 | 8632063.9485 | 5508619.7566 | 8543981.6633 |
sim_num_branches                             76164 |        76164 |        76164 |        76164 |        76164 |        76164 |        76164 |       166611 |       166611 |       166611 |       166611 |       166611 |       166611 |       166611 |       355617 |       355617 |       355617 |       355617 |       355617 |       355617 |       355617 |       765335 |       765335 |       765335 |       765335 |       765335 |       765335 |       765335 |      1624784 |      1624784 |      1624784 |      1624784 |      1624784 |      1624784 |      1624784 |      3467274 |      3467274 |      3467274 |      3467274 |      3467274 |      3467274 |      3467274 |      7331351 |      7331351 |      7331351 |      7331351 |      7331351 |      7331351 |      7331351 |     15494177 |     15494177 |     15494177 |     15494177 |     15494177 |     15494177 |     15494177 |     32593547 |     32593547 |     32593547 |     32593547 |     32593547 |     32593547 |     32593547 |     69051256 |     69051256 |     69051256 |     69051256 |     69051256 |     69051256 |     69051256 |    143953305 |    143953305 |    143953305 |    143953305 |    143953305 |    143953305 |    143953305 |
sim_IPB                                     6.0739 |       6.0739 |       6.0739 |       6.0739 |       6.0739 |       6.0739 |       6.0739 |       6.0255 |       6.0255 |       6.0255 |       6.0255 |       6.0255 |       6.0255 |       6.0255 |       5.9880 |       5.9880 |       5.9880 |       5.9880 |       5.9880 |       5.9880 |       5.9880 |       5.9496 |       5.9496 |       5.9496 |       5.9496 |       5.9496 |       5.9496 |       5.9496 |       5.9216 |       5.9216 |       5.9216 |       5.9216 |       5.9216 |       5.9216 |       5.9216 |       5.9005 |       5.9005 |       5.9005 |       5.9005 |       5.9005 |       5.9005 |       5.9005 |       5.8810 |       5.8810 |       5.8810 |       5.8810 |       5.8810 |       5.8810 |       5.8810 |       5.8628 |       5.8628 |       5.8628 |       5.8628 |       5.8628 |       5.8628 |       5.8628 |       5.8495 |       5.8495 |       5.8495 |       5.8495 |       5.8495 |       5.8495 |       5.8495 |       5.8330 |       5.8330 |       5.8330 |       5.8330 |       5.8330 |       5.8330 |       5.8330 |       5.8165 |       5.8165 |       5.8165 |       5.8165 |       5.8165 |       5.8165 |       5.8165 |
bpred_bimod.lookups                          76164 |        76164 |        76164 |xxxxxxxxxxxxx |xxxxxxxxxxxxx |xxxxxxxxxxxxx |xxxxxxxxxxxxx |       166611 |       166611 |       166611 |xxxxxxxxxxxxx |xxxxxxxxxxxxx |xxxxxxxxxxxxx |xxxxxxxxxxxxx |       355617 |       355617 |       355617 |xxxxxxxxxxxxx |xxxxxxxxxxxxx |xxxxxxxxxxxxx |xxxxxxxxxxxxx |       765335 |       765335 |       765335 |xxxxxxxxxxxxx |xxxxxxxxxxxxx |xxxxxxxxxxxxx |xxxxxxxxxxxxx |      1624784 |      1624784 |      1624784 |xxxxxxxxxxxxx |xxxxxxxxxxxxx |xxxxxxxxxxxxx |xxxxxxxxxxxxx |      3467274 |      3467274 |      3467274 |xxxxxxxxxxxxx |xxxxxxxxxxxxx |xxxxxxxxxxxxx |xxxxxxxxxxxxx |      7331351 |      7331351 |      7331351 |xxxxxxxxxxxxx |xxxxxxxxxxxxx |xxxxxxxxxxxxx |xxxxxxxxxxxxx |     15494177 |     15494177 |     15494177 |xxxxxxxxxxxxx |xxxxxxxxxxxxx |xxxxxxxxxxxxx |xxxxxxxxxxxxx |     32593547 |     32593547 |     32593547 |xxxxxxxxxxxxx |xxxxxxxxxxxxx |xxxxxxxxxxxxx |xxxxxxxxxxxxx |     69051256 |     69051256 |     69051256 |xxxxxxxxxxxxx |xxxxxxxxxxxxx |xxxxxxxxxxxxx |xxxxxxxxxxxxx |    143953305 |    143953305 |    143953305 |
bpred_bimod.updates                          76164 |        76164 |        76164 |xxxxxxxxxxxxx |xxxxxxxxxxxxx |xxxxxxxxxxxxx |xxxxxxxxxxxxx |       166611 |       166611 |       166611 |xxxxxxxxxxxxx |xxxxxxxxxxxxx |xxxxxxxxxxxxx |xxxxxxxxxxxxx |       355617 |       355617 |       355617 |xxxxxxxxxxxxx |xxxxxxxxxxxxx |xxxxxxxxxxxxx |xxxxxxxxxxxxx |       765335 |       765335 |       765335 |xxxxxxxxxxxxx |xxxxxxxxxxxxx |xxxxxxxxxxxxx |xxxxxxxxxxxxx |      1624784 |      1624784 |      1624784 |xxxxxxxxxxxxx |xxxxxxxxxxxxx |xxxxxxxxxxxxx |xxxxxxxxxxxxx |      3467274 |      3467274 |      3467274 |xxxxxxxxxxxxx |xxxxxxxxxxxxx |xxxxxxxxxxxxx |xxxxxxxxxxxxx |      7331351 |      7331351 |      7331351 |xxxxxxxxxxxxx |xxxxxxxxxxxxx |xxxxxxxxxxxxx |xxxxxxxxxxxxx |     15494177 |     15494177 |     15494177 |xxxxxxxxxxxxx |xxxxxxxxxxxxx |xxxxxxxxxxxxx |xxxxxxxxxxxxx |     32593547 |     32593547 |     32593547 |xxxxxxxxxxxxx |xxxxxxxxxxxxx |xxxxxxxxxxxxx |xxxxxxxxxxxxx |     69051256 |     69051256 |     69051256 |xxxxxxxxxxxxx |xxxxxxxxxxxxx |xxxxxxxxxxxxx |xxxxxxxxxxxxx |    143953305 |    143953305 |    143953305 |
bpred_bimod.addr_hits                        52409 |        52409 |        52409 |xxxxxxxxxxxxx |xxxxxxxxxxxxx |xxxxxxxxxxxxx |xxxxxxxxxxxxx |       115883 |       115885 |       115885 |xxxxxxxxxxxxx |xxxxxxxxxxxxx |xxxxxxxxxxxxx |xxxxxxxxxxxxx |       247988 |       247985 |       247985 |xxxxxxxxxxxxx |xxxxxxxxxxxxx |xxxxxxxxxxxxx |xxxxxxxxxxxxx |       535169 |       535167 |       535168 |xxxxxxxxxxxxx |xxxxxxxxxxxxx |xxxxxxxxxxxxx |xxxxxxxxxxxxx |      1131045 |      1131048 |      1131051 |xxxxxxxxxxxxx |xxxxxxxxxxxxx |xxxxxxxxxxxxx |xxxxxxxxxxxxx |      2426705 |      2426705 |      2426708 |xxxxxxxxxxxxx |xxxxxxxxxxxxx |xxxxxxxxxxxxx |xxxxxxxxxxxxx |      5120528 |      5120530 |      5120531 |xxxxxxxxxxxxx |xxxxxxxxxxxxx |xxxxxxxxxxxxx |xxxxxxxxxxxxx |     10849971 |     10849971 |     10849972 |xxxxxxxxxxxxx |xxxxxxxxxxxxx |xxxxxxxxxxxxx |xxxxxxxxxxxxx |     22826695 |     22826694 |     22826695 |xxxxxxxxxxxxx |xxxxxxxxxxxxx |xxxxxxxxxxxxx |xxxxxxxxxxxxx |     48661935 |     48661934 |     48661937 |xxxxxxxxxxxxx |xxxxxxxxxxxxx |xxxxxxxxxxxxx |xxxxxxxxxxxxx |    101296957 |    101296959 |    101296962 |
bpred_bimod.dir_hits                         52533 |        52532 |        52531 |xxxxxxxxxxxxx |xxxxxxxxxxxxx |xxxxxxxxxxxxx |xxxxxxxxxxxxx |       116006 |       116006 |       116007 |xxxxxxxxxxxxx |xxxxxxxxxxxxx |xxxxxxxxxxxxx |xxxxxxxxxxxxx |       248114 |       248109 |       248109 |xxxxxxxxxxxxx |xxxxxxxxxxxxx |xxxxxxxxxxxxx |xxxxxxxxxxxxx |       535294 |       535289 |       535290 |xxxxxxxxxxxxx |xxxxxxxxxxxxx |xxxxxxxxxxxxx |xxxxxxxxxxxxx |      1131169 |      1131170 |      1131172 |xxxxxxxxxxxxx |xxxxxxxxxxxxx |xxxxxxxxxxxxx |xxxxxxxxxxxxx |      2426833 |      2426831 |      2426834 |xxxxxxxxxxxxx |xxxxxxxxxxxxx |xxxxxxxxxxxxx |xxxxxxxxxxxxx |      5120655 |      5120655 |      5120655 |xxxxxxxxxxxxx |xxxxxxxxxxxxx |xxxxxxxxxxxxx |xxxxxxxxxxxxx |     10850097 |     10850093 |     10850093 |xxxxxxxxxxxxx |xxxxxxxxxxxxx |xxxxxxxxxxxxx |xxxxxxxxxxxxx |     22826819 |     22826814 |     22826814 |xxxxxxxxxxxxx |xxxxxxxxxxxxx |xxxxxxxxxxxxx |xxxxxxxxxxxxx |     48662060 |     48662057 |     48662059 |xxxxxxxxxxxxx |xxxxxxxxxxxxx |xxxxxxxxxxxxx |xxxxxxxxxxxxx |    101297081 |    101297081 |    101297083 |
bpred_bimod.misses                           23631 |        23632 |        23633 |xxxxxxxxxxxxx |xxxxxxxxxxxxx |xxxxxxxxxxxxx |xxxxxxxxxxxxx |        50605 |        50605 |        50604 |xxxxxxxxxxxxx |xxxxxxxxxxxxx |xxxxxxxxxxxxx |xxxxxxxxxxxxx |       107503 |       107508 |       107508 |xxxxxxxxxxxxx |xxxxxxxxxxxxx |xxxxxxxxxxxxx |xxxxxxxxxxxxx |       230041 |       230046 |       230045 |xxxxxxxxxxxxx |xxxxxxxxxxxxx |xxxxxxxxxxxxx |xxxxxxxxxxxxx |       493615 |       493614 |       493612 |xxxxxxxxxxxxx |xxxxxxxxxxxxx |xxxxxxxxxxxxx |xxxxxxxxxxxxx |      1040441 |      1040443 |      1040440 |xxxxxxxxxxxxx |xxxxxxxxxxxxx |xxxxxxxxxxxxx |xxxxxxxxxxxxx |      2210696 |      2210696 |      2210696 |xxxxxxxxxxxxx |xxxxxxxxxxxxx |xxxxxxxxxxxxx |xxxxxxxxxxxxx |      4644080 |      4644084 |      4644084 |xxxxxxxxxxxxx |xxxxxxxxxxxxx |xxxxxxxxxxxxx |xxxxxxxxxxxxx |      9766728 |      9766733 |      9766733 |xxxxxxxxxxxxx |xxxxxxxxxxxxx |xxxxxxxxxxxxx |xxxxxxxxxxxxx |     20389196 |     20389199 |     20389197 |xxxxxxxxxxxxx |xxxxxxxxxxxxx |xxxxxxxxxxxxx |xxxxxxxxxxxxx |     42656224 |     42656224 |     42656222 |
bpred_bimod.jr_hits                             64 |           64 |           64 |xxxxxxxxxxxxx |xxxxxxxxxxxxx |xxxxxxxxxxxxx |xxxxxxxxxxxxx |           64 |           64 |           64 |xxxxxxxxxxxxx |xxxxxxxxxxxxx |xxxxxxxxxxxxx |xxxxxxxxxxxxx |           64 |           64 |           64 |xxxxxxxxxxxxx |xxxxxxxxxxxxx |xxxxxxxxxxxxx |xxxxxxxxxxxxx |           64 |           64 |           64 |xxxxxxxxxxxxx |xxxxxxxxxxxxx |xxxxxxxxxxxxx |xxxxxxxxxxxxx |           64 |           64 |           64 |xxxxxxxxxxxxx |xxxxxxxxxxxxx |xxxxxxxxxxxxx |xxxxxxxxxxxxx |           64 |           64 |           64 |xxxxxxxxxxxxx |xxxxxxxxxxxxx |xxxxxxxxxxxxx |xxxxxxxxxxxxx |           64 |           64 |           64 |xxxxxxxxxxxxx |xxxxxxxxxxxxx |xxxxxxxxxxxxx |xxxxxxxxxxxxx |           64 |           64 |           64 |xxxxxxxxxxxxx |xxxxxxxxxxxxx |xxxxxxxxxxxxx |xxxxxxxxxxxxx |           64 |           64 |           64 |xxxxxxxxxxxxx |xxxxxxxxxxxxx |xxxxxxxxxxxxx |xxxxxxxxxxxxx |           64 |           64 |           64 |xxxxxxxxxxxxx |xxxxxxxxxxxxx |xxxxxxxxxxxxx |xxxxxxxxxxxxx |           64 |           64 |           64 |
bpred_bimod.jr_seen                             64 |           64 |           64 |xxxxxxxxxxxxx |xxxxxxxxxxxxx |xxxxxxxxxxxxx |xxxxxxxxxxxxx |           64 |           64 |           64 |xxxxxxxxxxxxx |xxxxxxxxxxxxx |xxxxxxxxxxxxx |xxxxxxxxxxxxx |           64 |           64 |           64 |xxxxxxxxxxxxx |xxxxxxxxxxxxx |xxxxxxxxxxxxx |xxxxxxxxxxxxx |           64 |           64 |           64 |xxxxxxxxxxxxx |xxxxxxxxxxxxx |xxxxxxxxxxxxx |xxxxxxxxxxxxx |           64 |           64 |           64 |xxxxxxxxxxxxx |xxxxxxxxxxxxx |xxxxxxxxxxxxx |xxxxxxxxxxxxx |           64 |           64 |           64 |xxxxxxxxxxxxx |xxxxxxxxxxxxx |xxxxxxxxxxxxx |xxxxxxxxxxxxx |           64 |           64 |           64 |xxxxxxxxxxxxx |xxxxxxxxxxxxx |xxxxxxxxxxxxx |xxxxxxxxxxxxx |           64 |           64 |           64 |xxxxxxxxxxxxx |xxxxxxxxxxxxx |xxxxxxxxxxxxx |xxxxxxxxxxxxx |           64 |           64 |           64 |xxxxxxxxxxxxx |xxxxxxxxxxxxx |xxxxxxxxxxxxx |xxxxxxxxxxxxx |           64 |           64 |           64 |xxxxxxxxxxxxx |xxxxxxxxxxxxx |xxxxxxxxxxxxx |xxxxxxxxxxxxx |           64 |           64 |           64 |
bpred_bimod.jr_non_ras_hits.PP                   0 |            0 |            0 |xxxxxxxxxxxxx |xxxxxxxxxxxxx |xxxxxxxxxxxxx |xxxxxxxxxxxxx |            0 |            0 |            0 |xxxxxxxxxxxxx |xxxxxxxxxxxxx |xxxxxxxxxxxxx |xxxxxxxxxxxxx |            0 |            0 |            0 |xxxxxxxxxxxxx |xxxxxxxxxxxxx |xxxxxxxxxxxxx |xxxxxxxxxxxxx |            0 |            0 |            0 |xxxxxxxxxxxxx |xxxxxxxxxxxxx |xxxxxxxxxxxxx |xxxxxxxxxxxxx |            0 |            0 |            0 |xxxxxxxxxxxxx |xxxxxxxxxxxxx |xxxxxxxxxxxxx |xxxxxxxxxxxxx |            0 |            0 |            0 |xxxxxxxxxxxxx |xxxxxxxxxxxxx |xxxxxxxxxxxxx |xxxxxxxxxxxxx |            0 |            0 |            0 |xxxxxxxxxxxxx |xxxxxxxxxxxxx |xxxxxxxxxxxxx |xxxxxxxxxxxxx |            0 |            0 |            0 |xxxxxxxxxxxxx |xxxxxxxxxxxxx |xxxxxxxxxxxxx |xxxxxxxxxxxxx |            0 |            0 |            0 |xxxxxxxxxxxxx |xxxxxxxxxxxxx |xxxxxxxxxxxxx |xxxxxxxxxxxxx |            0 |            0 |            0 |xxxxxxxxxxxxx |xxxxxxxxxxxxx |xxxxxxxxxxxxx |xxxxxxxxxxxxx |            0 |            0 |            0 |
bpred_bimod.jr_non_ras_seen.PP                   0 |            0 |            0 |xxxxxxxxxxxxx |xxxxxxxxxxxxx |xxxxxxxxxxxxx |xxxxxxxxxxxxx |            0 |            0 |            0 |xxxxxxxxxxxxx |xxxxxxxxxxxxx |xxxxxxxxxxxxx |xxxxxxxxxxxxx |            0 |            0 |            0 |xxxxxxxxxxxxx |xxxxxxxxxxxxx |xxxxxxxxxxxxx |xxxxxxxxxxxxx |            0 |            0 |            0 |xxxxxxxxxxxxx |xxxxxxxxxxxxx |xxxxxxxxxxxxx |xxxxxxxxxxxxx |            0 |            0 |            0 |xxxxxxxxxxxxx |xxxxxxxxxxxxx |xxxxxxxxxxxxx |xxxxxxxxxxxxx |            0 |            0 |            0 |xxxxxxxxxxxxx |xxxxxxxxxxxxx |xxxxxxxxxxxxx |xxxxxxxxxxxxx |            0 |            0 |            0 |xxxxxxxxxxxxx |xxxxxxxxxxxxx |xxxxxxxxxxxxx |xxxxxxxxxxxxx |            0 |            0 |            0 |xxxxxxxxxxxxx |xxxxxxxxxxxxx |xxxxxxxxxxxxx |xxxxxxxxxxxxx |            0 |            0 |            0 |xxxxxxxxxxxxx |xxxxxxxxxxxxx |xxxxxxxxxxxxx |xxxxxxxxxxxxx |            0 |            0 |            0 |xxxxxxxxxxxxx |xxxxxxxxxxxxx |xxxxxxxxxxxxx |xxxxxxxxxxxxx |            0 |            0 |            0 |
bpred_bimod.bpred_addr_rate                 0.6881 |       0.6881 |       0.6881 |xxxxxxxxxxxxx |xxxxxxxxxxxxx |xxxxxxxxxxxxx |xxxxxxxxxxxxx |       0.6955 |       0.6955 |       0.6955 |xxxxxxxxxxxxx |xxxxxxxxxxxxx |xxxxxxxxxxxxx |xxxxxxxxxxxxx |       0.6973 |       0.6973 |       0.6973 |xxxxxxxxxxxxx |xxxxxxxxxxxxx |xxxxxxxxxxxxx |xxxxxxxxxxxxx |       0.6993 |       0.6993 |       0.6993 |xxxxxxxxxxxxx |xxxxxxxxxxxxx |xxxxxxxxxxxxx |xxxxxxxxxxxxx |       0.6961 |       0.6961 |       0.6961 |xxxxxxxxxxxxx |xxxxxxxxxxxxx |xxxxxxxxxxxxx |xxxxxxxxxxxxx |       0.6999 |       0.6999 |       0.6999 |xxxxxxxxxxxxx |xxxxxxxxxxxxx |xxxxxxxxxxxxx |xxxxxxxxxxxxx |       0.6984 |       0.6984 |       0.6984 |xxxxxxxxxxxxx |xxxxxxxxxxxxx |xxxxxxxxxxxxx |xxxxxxxxxxxxx |       0.7003 |       0.7003 |       0.7003 |xxxxxxxxxxxxx |xxxxxxxxxxxxx |xxxxxxxxxxxxx |xxxxxxxxxxxxx |       0.7003 |       0.7003 |       0.7003 |xxxxxxxxxxxxx |xxxxxxxxxxxxx |xxxxxxxxxxxxx |xxxxxxxxxxxxx |       0.7047 |       0.7047 |       0.7047 |xxxxxxxxxxxxx |xxxxxxxxxxxxx |xxxxxxxxxxxxx |xxxxxxxxxxxxx |       0.7037 |       0.7037 |       0.7037 |
bpred_bimod.bpred_dir_rate                  0.6897 |       0.6897 |       0.6897 |xxxxxxxxxxxxx |xxxxxxxxxxxxx |xxxxxxxxxxxxx |xxxxxxxxxxxxx |       0.6963 |       0.6963 |       0.6963 |xxxxxxxxxxxxx |xxxxxxxxxxxxx |xxxxxxxxxxxxx |xxxxxxxxxxxxx |       0.6977 |       0.6977 |       0.6977 |xxxxxxxxxxxxx |xxxxxxxxxxxxx |xxxxxxxxxxxxx |xxxxxxxxxxxxx |       0.6994 |       0.6994 |       0.6994 |xxxxxxxxxxxxx |xxxxxxxxxxxxx |xxxxxxxxxxxxx |xxxxxxxxxxxxx |       0.6962 |       0.6962 |       0.6962 |xxxxxxxxxxxxx |xxxxxxxxxxxxx |xxxxxxxxxxxxx |xxxxxxxxxxxxx |       0.6999 |       0.6999 |       0.6999 |xxxxxxxxxxxxx |xxxxxxxxxxxxx |xxxxxxxxxxxxx |xxxxxxxxxxxxx |       0.6985 |       0.6985 |       0.6985 |xxxxxxxxxxxxx |xxxxxxxxxxxxx |xxxxxxxxxxxxx |xxxxxxxxxxxxx |       0.7003 |       0.7003 |       0.7003 |xxxxxxxxxxxxx |xxxxxxxxxxxxx |xxxxxxxxxxxxx |xxxxxxxxxxxxx |       0.7003 |       0.7003 |       0.7003 |xxxxxxxxxxxxx |xxxxxxxxxxxxx |xxxxxxxxxxxxx |xxxxxxxxxxxxx |       0.7047 |       0.7047 |       0.7047 |xxxxxxxxxxxxx |xxxxxxxxxxxxx |xxxxxxxxxxxxx |xxxxxxxxxxxxx |       0.7037 |       0.7037 |       0.7037 |
bpred_bimod.bpred_jr_rate                   1.0000 |       1.0000 |       1.0000 |xxxxxxxxxxxxx |xxxxxxxxxxxxx |xxxxxxxxxxxxx |xxxxxxxxxxxxx |       1.0000 |       1.0000 |       1.0000 |xxxxxxxxxxxxx |xxxxxxxxxxxxx |xxxxxxxxxxxxx |xxxxxxxxxxxxx |       1.0000 |       1.0000 |       1.0000 |xxxxxxxxxxxxx |xxxxxxxxxxxxx |xxxxxxxxxxxxx |xxxxxxxxxxxxx |       1.0000 |       1.0000 |       1.0000 |xxxxxxxxxxxxx |xxxxxxxxxxxxx |xxxxxxxxxxxxx |xxxxxxxxxxxxx |       1.0000 |       1.0000 |       1.0000 |xxxxxxxxxxxxx |xxxxxxxxxxxxx |xxxxxxxxxxxxx |xxxxxxxxxxxxx |       1.0000 |       1.0000 |       1.0000 |xxxxxxxxxxxxx |xxxxxxxxxxxxx |xxxxxxxxxxxxx |xxxxxxxxxxxxx |       1.0000 |       1.0000 |       1.0000 |xxxxxxxxxxxxx |xxxxxxxxxxxxx |xxxxxxxxxxxxx |xxxxxxxxxxxxx |       1.0000 |       1.0000 |       1.0000 |xxxxxxxxxxxxx |xxxxxxxxxxxxx |xxxxxxxxxxxxx |xxxxxxxxxxxxx |       1.0000 |       1.0000 |       1.0000 |xxxxxxxxxxxxx |xxxxxxxxxxxxx |xxxxxxxxxxxxx |xxxxxxxxxxxxx |       1.0000 |       1.0000 |       1.0000 |xxxxxxxxxxxxx |xxxxxxxxxxxxx |xxxxxxxxxxxxx |xxxxxxxxxxxxx |       1.0000 |       1.0000 |       1.0000 |
bpred_bimod.bpred_jr_non_ras_rate.PP       <error: |      <error: |      <error: |xxxxxxxxxxxxx |xxxxxxxxxxxxx |xxxxxxxxxxxxx |xxxxxxxxxxxxx |      <error: |      <error: |      <error: |xxxxxxxxxxxxx |xxxxxxxxxxxxx |xxxxxxxxxxxxx |xxxxxxxxxxxxx |      <error: |      <error: |      <error: |xxxxxxxxxxxxx |xxxxxxxxxxxxx |xxxxxxxxxxxxx |xxxxxxxxxxxxx |      <error: |      <error: |      <error: |xxxxxxxxxxxxx |xxxxxxxxxxxxx |xxxxxxxxxxxxx |xxxxxxxxxxxxx |      <error: |      <error: |      <error: |xxxxxxxxxxxxx |xxxxxxxxxxxxx |xxxxxxxxxxxxx |xxxxxxxxxxxxx |      <error: |      <error: |      <error: |xxxxxxxxxxxxx |xxxxxxxxxxxxx |xxxxxxxxxxxxx |xxxxxxxxxxxxx |      <error: |      <error: |      <error: |xxxxxxxxxxxxx |xxxxxxxxxxxxx |xxxxxxxxxxxxx |xxxxxxxxxxxxx |      <error: |      <error: |      <error: |xxxxxxxxxxxxx |xxxxxxxxxxxxx |xxxxxxxxxxxxx |xxxxxxxxxxxxx |      <error: |      <error: |      <error: |xxxxxxxxxxxxx |xxxxxxxxxxxxx |xxxxxxxxxxxxx |xxxxxxxxxxxxx |      <error: |      <error: |      <error: |xxxxxxxxxxxxx |xxxxxxxxxxxxx |xxxxxxxxxxxxx |xxxxxxxxxxxxx |      <error: |      <error: |      <error: |
bpred_bimod.retstack_pushes                     66 |           66 |           66 |xxxxxxxxxxxxx |xxxxxxxxxxxxx |xxxxxxxxxxxxx |xxxxxxxxxxxxx |           66 |           66 |           66 |xxxxxxxxxxxxx |xxxxxxxxxxxxx |xxxxxxxxxxxxx |xxxxxxxxxxxxx |           66 |           66 |           66 |xxxxxxxxxxxxx |xxxxxxxxxxxxx |xxxxxxxxxxxxx |xxxxxxxxxxxxx |           66 |           66 |           66 |xxxxxxxxxxxxx |xxxxxxxxxxxxx |xxxxxxxxxxxxx |xxxxxxxxxxxxx |           66 |           66 |           66 |xxxxxxxxxxxxx |xxxxxxxxxxxxx |xxxxxxxxxxxxx |xxxxxxxxxxxxx |           66 |           66 |           66 |xxxxxxxxxxxxx |xxxxxxxxxxxxx |xxxxxxxxxxxxx |xxxxxxxxxxxxx |           66 |           66 |           66 |xxxxxxxxxxxxx |xxxxxxxxxxxxx |xxxxxxxxxxxxx |xxxxxxxxxxxxx |           66 |           66 |           66 |xxxxxxxxxxxxx |xxxxxxxxxxxxx |xxxxxxxxxxxxx |xxxxxxxxxxxxx |           66 |           66 |           66 |xxxxxxxxxxxxx |xxxxxxxxxxxxx |xxxxxxxxxxxxx |xxxxxxxxxxxxx |           66 |           66 |           66 |xxxxxxxxxxxxx |xxxxxxxxxxxxx |xxxxxxxxxxxxx |xxxxxxxxxxxxx |           66 |           66 |           66 |
bpred_bimod.retstack_pops                       64 |           64 |           64 |xxxxxxxxxxxxx |xxxxxxxxxxxxx |xxxxxxxxxxxxx |xxxxxxxxxxxxx |           64 |           64 |           64 |xxxxxxxxxxxxx |xxxxxxxxxxxxx |xxxxxxxxxxxxx |xxxxxxxxxxxxx |           64 |           64 |           64 |xxxxxxxxxxxxx |xxxxxxxxxxxxx |xxxxxxxxxxxxx |xxxxxxxxxxxxx |           64 |           64 |           64 |xxxxxxxxxxxxx |xxxxxxxxxxxxx |xxxxxxxxxxxxx |xxxxxxxxxxxxx |           64 |           64 |           64 |xxxxxxxxxxxxx |xxxxxxxxxxxxx |xxxxxxxxxxxxx |xxxxxxxxxxxxx |           64 |           64 |           64 |xxxxxxxxxxxxx |xxxxxxxxxxxxx |xxxxxxxxxxxxx |xxxxxxxxxxxxx |           64 |           64 |           64 |xxxxxxxxxxxxx |xxxxxxxxxxxxx |xxxxxxxxxxxxx |xxxxxxxxxxxxx |           64 |           64 |           64 |xxxxxxxxxxxxx |xxxxxxxxxxxxx |xxxxxxxxxxxxx |xxxxxxxxxxxxx |           64 |           64 |           64 |xxxxxxxxxxxxx |xxxxxxxxxxxxx |xxxxxxxxxxxxx |xxxxxxxxxxxxx |           64 |           64 |           64 |xxxxxxxxxxxxx |xxxxxxxxxxxxx |xxxxxxxxxxxxx |xxxxxxxxxxxxx |           64 |           64 |           64 |
bpred_bimod.used_ras.PP                         64 |           64 |           64 |xxxxxxxxxxxxx |xxxxxxxxxxxxx |xxxxxxxxxxxxx |xxxxxxxxxxxxx |           64 |           64 |           64 |xxxxxxxxxxxxx |xxxxxxxxxxxxx |xxxxxxxxxxxxx |xxxxxxxxxxxxx |           64 |           64 |           64 |xxxxxxxxxxxxx |xxxxxxxxxxxxx |xxxxxxxxxxxxx |xxxxxxxxxxxxx |           64 |           64 |           64 |xxxxxxxxxxxxx |xxxxxxxxxxxxx |xxxxxxxxxxxxx |xxxxxxxxxxxxx |           64 |           64 |           64 |xxxxxxxxxxxxx |xxxxxxxxxxxxx |xxxxxxxxxxxxx |xxxxxxxxxxxxx |           64 |           64 |           64 |xxxxxxxxxxxxx |xxxxxxxxxxxxx |xxxxxxxxxxxxx |xxxxxxxxxxxxx |           64 |           64 |           64 |xxxxxxxxxxxxx |xxxxxxxxxxxxx |xxxxxxxxxxxxx |xxxxxxxxxxxxx |           64 |           64 |           64 |xxxxxxxxxxxxx |xxxxxxxxxxxxx |xxxxxxxxxxxxx |xxxxxxxxxxxxx |           64 |           64 |           64 |xxxxxxxxxxxxx |xxxxxxxxxxxxx |xxxxxxxxxxxxx |xxxxxxxxxxxxx |           64 |           64 |           64 |xxxxxxxxxxxxx |xxxxxxxxxxxxx |xxxxxxxxxxxxx |xxxxxxxxxxxxx |           64 |           64 |           64 |
bpred_bimod.ras_hits.PP                         64 |           64 |           64 |xxxxxxxxxxxxx |xxxxxxxxxxxxx |xxxxxxxxxxxxx |xxxxxxxxxxxxx |           64 |           64 |           64 |xxxxxxxxxxxxx |xxxxxxxxxxxxx |xxxxxxxxxxxxx |xxxxxxxxxxxxx |           64 |           64 |           64 |xxxxxxxxxxxxx |xxxxxxxxxxxxx |xxxxxxxxxxxxx |xxxxxxxxxxxxx |           64 |           64 |           64 |xxxxxxxxxxxxx |xxxxxxxxxxxxx |xxxxxxxxxxxxx |xxxxxxxxxxxxx |           64 |           64 |           64 |xxxxxxxxxxxxx |xxxxxxxxxxxxx |xxxxxxxxxxxxx |xxxxxxxxxxxxx |           64 |           64 |           64 |xxxxxxxxxxxxx |xxxxxxxxxxxxx |xxxxxxxxxxxxx |xxxxxxxxxxxxx |           64 |           64 |           64 |xxxxxxxxxxxxx |xxxxxxxxxxxxx |xxxxxxxxxxxxx |xxxxxxxxxxxxx |           64 |           64 |           64 |xxxxxxxxxxxxx |xxxxxxxxxxxxx |xxxxxxxxxxxxx |xxxxxxxxxxxxx |           64 |           64 |           64 |xxxxxxxxxxxxx |xxxxxxxxxxxxx |xxxxxxxxxxxxx |xxxxxxxxxxxxx |           64 |           64 |           64 |xxxxxxxxxxxxx |xxxxxxxxxxxxx |xxxxxxxxxxxxx |xxxxxxxxxxxxx |           64 |           64 |           64 |
bpred_bimod.ras_rate.PP                     1.0000 |       1.0000 |       1.0000 |xxxxxxxxxxxxx |xxxxxxxxxxxxx |xxxxxxxxxxxxx |xxxxxxxxxxxxx |       1.0000 |       1.0000 |       1.0000 |xxxxxxxxxxxxx |xxxxxxxxxxxxx |xxxxxxxxxxxxx |xxxxxxxxxxxxx |       1.0000 |       1.0000 |       1.0000 |xxxxxxxxxxxxx |xxxxxxxxxxxxx |xxxxxxxxxxxxx |xxxxxxxxxxxxx |       1.0000 |       1.0000 |       1.0000 |xxxxxxxxxxxxx |xxxxxxxxxxxxx |xxxxxxxxxxxxx |xxxxxxxxxxxxx |       1.0000 |       1.0000 |       1.0000 |xxxxxxxxxxxxx |xxxxxxxxxxxxx |xxxxxxxxxxxxx |xxxxxxxxxxxxx |       1.0000 |       1.0000 |       1.0000 |xxxxxxxxxxxxx |xxxxxxxxxxxxx |xxxxxxxxxxxxx |xxxxxxxxxxxxx |       1.0000 |       1.0000 |       1.0000 |xxxxxxxxxxxxx |xxxxxxxxxxxxx |xxxxxxxxxxxxx |xxxxxxxxxxxxx |       1.0000 |       1.0000 |       1.0000 |xxxxxxxxxxxxx |xxxxxxxxxxxxx |xxxxxxxxxxxxx |xxxxxxxxxxxxx |       1.0000 |       1.0000 |       1.0000 |xxxxxxxxxxxxx |xxxxxxxxxxxxx |xxxxxxxxxxxxx |xxxxxxxxxxxxx |       1.0000 |       1.0000 |       1.0000 |xxxxxxxxxxxxx |xxxxxxxxxxxxx |xxxxxxxxxxxxx |xxxxxxxxxxxxx |       1.0000 |       1.0000 |       1.0000 |
bpred_2lev.lookups                   xxxxxxxxxxxxx |xxxxxxxxxxxxx |xxxxxxxxxxxxx |        76164 |        76164 |        76164 |        76164 |xxxxxxxxxxxxx |xxxxxxxxxxxxx |xxxxxxxxxxxxx |       166611 |       166611 |       166611 |       166611 |xxxxxxxxxxxxx |xxxxxxxxxxxxx |xxxxxxxxxxxxx |       355617 |       355617 |       355617 |       355617 |xxxxxxxxxxxxx |xxxxxxxxxxxxx |xxxxxxxxxxxxx |       765335 |       765335 |       765335 |       765335 |xxxxxxxxxxxxx |xxxxxxxxxxxxx |xxxxxxxxxxxxx |      1624784 |      1624784 |      1624784 |      1624784 |xxxxxxxxxxxxx |xxxxxxxxxxxxx |xxxxxxxxxxxxx |      3467274 |      3467274 |      3467274 |      3467274 |xxxxxxxxxxxxx |xxxxxxxxxxxxx |xxxxxxxxxxxxx |      7331351 |      7331351 |      7331351 |      7331351 |xxxxxxxxxxxxx |xxxxxxxxxxxxx |xxxxxxxxxxxxx |     15494177 |     15494177 |     15494177 |     15494177 |xxxxxxxxxxxxx |xxxxxxxxxxxxx |xxxxxxxxxxxxx |     32593547 |     32593547 |     32593547 |     32593547 |xxxxxxxxxxxxx |xxxxxxxxxxxxx |xxxxxxxxxxxxx |     69051256 |     69051256 |     69051256 |     69051256 |xxxxxxxxxxxxx |xxxxxxxxxxxxx |xxxxxxxxxxxxx |    143953305 |    143953305 |    143953305 |    143953305 |
[...]
bpred_2lev.retstack_pushes           xxxxxxxxxxxxx |xxxxxxxxxxxxx |xxxxxxxxxxxxx |           66 |           66 |           66 |           66 |xxxxxxxxxxxxx |xxxxxxxxxxxxx |xxxxxxxxxxxxx |           66 |           66 |           66 |           66 |xxxxxxxxxxxxx |xxxxxxxxxxxxx |xxxxxxxxxxxxx |           66 |           66 |           66 |           66 |xxxxxxxxxxxxx |xxxxxxxxxxxxx |xxxxxxxxxxxxx |           66 |           66 |           66 |           66 |xxxxxxxxxxxxx |xxxxxxxxxxxxx |xxxxxxxxxxxxx |           66 |           66 |           66 |           66 |xxxxxxxxxxxxx |xxxxxxxxxxxxx |xxxxxxxxxxxxx |           66 |           66 |           66 |           66 |xxxxxxxxxxxxx |xxxxxxxxxxxxx |xxxxxxxxxxxxx |           66 |           66 |           66 |           66 |xxxxxxxxxxxxx |xxxxxxxxxxxxx |xxxxxxxxxxxxx |           66 |           66 |           66 |           66 |xxxxxxxxxxxxx |xxxxxxxxxxxxx |xxxxxxxxxxxxx |           66 |           66 |           66 |           66 |xxxxxxxxxxxxx |xxxxxxxxxxxxx |xxxxxxxxxxxxx |           66 |           66 |           66 |           66 |xxxxxxxxxxxxx |xxxxxxxxxxxxx |xxxxxxxxxxxxx |           66 |           66 |           66 |           66 |
bpred_2lev.retstack_pops             xxxxxxxxxxxxx |xxxxxxxxxxxxx |xxxxxxxxxxxxx |           64 |           64 |           64 |           64 |xxxxxxxxxxxxx |xxxxxxxxxxxxx |xxxxxxxxxxxxx |           64 |           64 |           64 |           64 |xxxxxxxxxxxxx |xxxxxxxxxxxxx |xxxxxxxxxxxxx |           64 |           64 |           64 |           64 |xxxxxxxxxxxxx |xxxxxxxxxxxxx |xxxxxxxxxxxxx |           64 |           64 |           64 |           64 |xxxxxxxxxxxxx |xxxxxxxxxxxxx |xxxxxxxxxxxxx |           64 |           64 |           64 |           64 |xxxxxxxxxxxxx |xxxxxxxxxxxxx |xxxxxxxxxxxxx |           64 |           64 |           64 |           64 |xxxxxxxxxxxxx |xxxxxxxxxxxxx |xxxxxxxxxxxxx |           64 |           64 |           64 |           64 |xxxxxxxxxxxxx |xxxxxxxxxxxxx |xxxxxxxxxxxxx |           64 |           64 |           64 |           64 |xxxxxxxxxxxxx |xxxxxxxxxxxxx |xxxxxxxxxxxxx |           64 |           64 |           64 |           64 |xxxxxxxxxxxxx |xxxxxxxxxxxxx |xxxxxxxxxxxxx |           64 |           64 |           64 |           64 |xxxxxxxxxxxxx |xxxxxxxxxxxxx |xxxxxxxxxxxxx |           64 |           64 |           64 |           64 |
bpred_2lev.used_ras.PP               xxxxxxxxxxxxx |xxxxxxxxxxxxx |xxxxxxxxxxxxx |           64 |           64 |           64 |           64 |xxxxxxxxxxxxx |xxxxxxxxxxxxx |xxxxxxxxxxxxx |           64 |           64 |           64 |           64 |xxxxxxxxxxxxx |xxxxxxxxxxxxx |xxxxxxxxxxxxx |           64 |           64 |           64 |           64 |xxxxxxxxxxxxx |xxxxxxxxxxxxx |xxxxxxxxxxxxx |           64 |           64 |           64 |           64 |xxxxxxxxxxxxx |xxxxxxxxxxxxx |xxxxxxxxxxxxx |           64 |           64 |           64 |           64 |xxxxxxxxxxxxx |xxxxxxxxxxxxx |xxxxxxxxxxxxx |           64 |           64 |           64 |           64 |xxxxxxxxxxxxx |xxxxxxxxxxxxx |xxxxxxxxxxxxx |           64 |           64 |           64 |           64 |xxxxxxxxxxxxx |xxxxxxxxxxxxx |xxxxxxxxxxxxx |           64 |           64 |           64 |           64 |xxxxxxxxxxxxx |xxxxxxxxxxxxx |xxxxxxxxxxxxx |           64 |           64 |           64 |           64 |xxxxxxxxxxxxx |xxxxxxxxxxxxx |xxxxxxxxxxxxx |           64 |           64 |           64 |           64 |xxxxxxxxxxxxx |xxxxxxxxxxxxx |xxxxxxxxxxxxx |           64 |           64 |           64 |           64 |
bpred_2lev.ras_hits.PP               xxxxxxxxxxxxx |xxxxxxxxxxxxx |xxxxxxxxxxxxx |           64 |           64 |           64 |           64 |xxxxxxxxxxxxx |xxxxxxxxxxxxx |xxxxxxxxxxxxx |           64 |           64 |           64 |           64 |xxxxxxxxxxxxx |xxxxxxxxxxxxx |xxxxxxxxxxxxx |           64 |           64 |           64 |           64 |xxxxxxxxxxxxx |xxxxxxxxxxxxx |xxxxxxxxxxxxx |           64 |           64 |           64 |           64 |xxxxxxxxxxxxx |xxxxxxxxxxxxx |xxxxxxxxxxxxx |           64 |           64 |           64 |           64 |xxxxxxxxxxxxx |xxxxxxxxxxxxx |xxxxxxxxxxxxx |           64 |           64 |           64 |           64 |xxxxxxxxxxxxx |xxxxxxxxxxxxx |xxxxxxxxxxxxx |           64 |           64 |           64 |           64 |xxxxxxxxxxxxx |xxxxxxxxxxxxx |xxxxxxxxxxxxx |           64 |           64 |           64 |           64 |xxxxxxxxxxxxx |xxxxxxxxxxxxx |xxxxxxxxxxxxx |           64 |           64 |           64 |           64 |xxxxxxxxxxxxx |xxxxxxxxxxxxx |xxxxxxxxxxxxx |           64 |           64 |           64 |           64 |xxxxxxxxxxxxx |xxxxxxxxxxxxx |xxxxxxxxxxxxx |           64 |           64 |           64 |           64 |
bpred_2lev.ras_rate.PP               xxxxxxxxxxxxx |xxxxxxxxxxxxx |xxxxxxxxxxxxx |       1.0000 |       1.0000 |       1.0000 |       1.0000 |xxxxxxxxxxxxx |xxxxxxxxxxxxx |xxxxxxxxxxxxx |       1.0000 |       1.0000 |       1.0000 |       1.0000 |xxxxxxxxxxxxx |xxxxxxxxxxxxx |xxxxxxxxxxxxx |       1.0000 |       1.0000 |       1.0000 |       1.0000 |xxxxxxxxxxxxx |xxxxxxxxxxxxx |xxxxxxxxxxxxx |       1.0000 |       1.0000 |       1.0000 |       1.0000 |xxxxxxxxxxxxx |xxxxxxxxxxxxx |xxxxxxxxxxxxx |       1.0000 |       1.0000 |       1.0000 |       1.0000 |xxxxxxxxxxxxx |xxxxxxxxxxxxx |xxxxxxxxxxxxx |       1.0000 |       1.0000 |       1.0000 |       1.0000 |xxxxxxxxxxxxx |xxxxxxxxxxxxx |xxxxxxxxxxxxx |       1.0000 |       1.0000 |       1.0000 |       1.0000 |xxxxxxxxxxxxx |xxxxxxxxxxxxx |xxxxxxxxxxxxx |       1.0000 |       1.0000 |       1.0000 |       1.0000 |xxxxxxxxxxxxx |xxxxxxxxxxxxx |xxxxxxxxxxxxx |       1.0000 |       1.0000 |       1.0000 |       1.0000 |xxxxxxxxxxxxx |xxxxxxxxxxxxx |xxxxxxxxxxxxx |       1.0000 |       1.0000 |       1.0000 |       1.0000 |xxxxxxxxxxxxx |xxxxxxxxxxxxx |xxxxxxxxxxxxx |       1.0000 |       1.0000 |       1.0000 |       1.0000 |

Command list: 
	sslittle-na-sstrix-gcc -Wall -O3 -funroll-loops -finline-functions  -DRANDOM_SIZE=4096 -DOFFSET=2 -DSORT=base_quicksort9 sorts/base_quicksort918281285.c simpleMain.c -o base_quicksort9204435330
	sim-cache -cache:dl1 dl1:256:32:1:l -cache:dl2 dl2:131072:32:1:l -cache:il1 il1:256:32:1:l -cache:il2 dl2 base_quicksort9204435330
	sim-cache -cache:dl1 dl1:256:32:1:l -cache:dl2 dl2:65536:32:1:l -cache:il1 il1:256:32:1:l -cache:il2 dl2 base_quicksort9204435330
	sim-cache -cache:dl1 dl1:1:32:256:l -cache:dl2 dl2:1:32:131072:l -cache:il1 il1:1:32:256:l -cache:il2 dl2 base_quicksort9204435330
	sim-cache -cache:dl1 dl1:1:32:256:l -cache:dl2 dl2:1:32:65536:l -cache:il1 il1:1:32:256:l -cache:il2 dl2 base_quicksort9204435330
	sim-bpred -bpred bimod -bpred:bimod 512 base_quicksort9204435330
	sim-bpred -bpred bimod -bpred:bimod 1024 base_quicksort9204435330
	sim-bpred -bpred bimod -bpred:bimod 2048 base_quicksort9204435330
	sim-bpred -bpred 2lev -bpred:2lev 1 512 10 1 base_quicksort9204435330
	sim-bpred -bpred 2lev -bpred:2lev 1 1024 10 1 base_quicksort9204435330
	sim-bpred -bpred 2lev -bpred:2lev 1 2048 10 1 base_quicksort9204435330
	sim-bpred -bpred 2lev -bpred:2lev 1 4096 10 1 base_quicksort9204435330
	sslittle-na-sstrix-gcc -Wall -O3 -funroll-loops -finline-functions  -DRANDOM_SIZE=8192 -DOFFSET=2 -DSORT=base_quicksort9 sorts/base_quicksort918281285.c simpleMain.c -o base_quicksort9204435330
	sim-cache -cache:dl1 dl1:256:32:1:l -cache:dl2 dl2:131072:32:1:l -cache:il1 il1:256:32:1:l -cache:il2 dl2 base_quicksort9204435330
	sim-cache -cache:dl1 dl1:256:32:1:l -cache:dl2 dl2:65536:32:1:l -cache:il1 il1:256:32:1:l -cache:il2 dl2 base_quicksort9204435330
	sim-cache -cache:dl1 dl1:1:32:256:l -cache:dl2 dl2:1:32:131072:l -cache:il1 il1:1:32:256:l -cache:il2 dl2 base_quicksort9204435330
	sim-cache -cache:dl1 dl1:1:32:256:l -cache:dl2 dl2:1:32:65536:l -cache:il1 il1:1:32:256:l -cache:il2 dl2 base_quicksort9204435330
	sim-bpred -bpred bimod -bpred:bimod 512 base_quicksort9204435330
	sim-bpred -bpred bimod -bpred:bimod 1024 base_quicksort9204435330
	sim-bpred -bpred bimod -bpred:bimod 2048 base_quicksort9204435330
	sim-bpred -bpred 2lev -bpred:2lev 1 512 10 1 base_quicksort9204435330
	sim-bpred -bpred 2lev -bpred:2lev 1 1024 10 1 base_quicksort9204435330
	sim-bpred -bpred 2lev -bpred:2lev 1 2048 10 1 base_quicksort9204435330
	sim-bpred -bpred 2lev -bpred:2lev 1 4096 10 1 base_quicksort9204435330
	sslittle-na-sstrix-gcc -Wall -O3 -funroll-loops -finline-functions  -DRANDOM_SIZE=16384 -DOFFSET=2 -DSORT=base_quicksort9 sorts/base_quicksort918281285.c simpleMain.c -o base_quicksort9204435330
	sim-cache -cache:dl1 dl1:256:32:1:l -cache:dl2 dl2:131072:32:1:l -cache:il1 il1:256:32:1:l -cache:il2 dl2 base_quicksort9204435330
	sim-cache -cache:dl1 dl1:256:32:1:l -cache:dl2 dl2:65536:32:1:l -cache:il1 il1:256:32:1:l -cache:il2 dl2 base_quicksort9204435330
	sim-cache -cache:dl1 dl1:1:32:256:l -cache:dl2 dl2:1:32:131072:l -cache:il1 il1:1:32:256:l -cache:il2 dl2 base_quicksort9204435330
	sim-cache -cache:dl1 dl1:1:32:256:l -cache:dl2 dl2:1:32:65536:l -cache:il1 il1:1:32:256:l -cache:il2 dl2 base_quicksort9204435330
	sim-bpred -bpred bimod -bpred:bimod 512 base_quicksort9204435330
	sim-bpred -bpred bimod -bpred:bimod 1024 base_quicksort9204435330
	sim-bpred -bpred bimod -bpred:bimod 2048 base_quicksort9204435330
	sim-bpred -bpred 2lev -bpred:2lev 1 512 10 1 base_quicksort9204435330
	sim-bpred -bpred 2lev -bpred:2lev 1 1024 10 1 base_quicksort9204435330
	sim-bpred -bpred 2lev -bpred:2lev 1 2048 10 1 base_quicksort9204435330
	sim-bpred -bpred 2lev -bpred:2lev 1 4096 10 1 base_quicksort9204435330
	sslittle-na-sstrix-gcc -Wall -O3 -funroll-loops -finline-functions  -DRANDOM_SIZE=32768 -DOFFSET=2 -DSORT=base_quicksort9 sorts/base_quicksort918281285.c simpleMain.c -o base_quicksort9204435330
	sim-cache -cache:dl1 dl1:256:32:1:l -cache:dl2 dl2:131072:32:1:l -cache:il1 il1:256:32:1:l -cache:il2 dl2 base_quicksort9204435330
	sim-cache -cache:dl1 dl1:256:32:1:l -cache:dl2 dl2:65536:32:1:l -cache:il1 il1:256:32:1:l -cache:il2 dl2 base_quicksort9204435330
	sim-cache -cache:dl1 dl1:1:32:256:l -cache:dl2 dl2:1:32:131072:l -cache:il1 il1:1:32:256:l -cache:il2 dl2 base_quicksort9204435330
	sim-cache -cache:dl1 dl1:1:32:256:l -cache:dl2 dl2:1:32:65536:l -cache:il1 il1:1:32:256:l -cache:il2 dl2 base_quicksort9204435330
	sim-bpred -bpred bimod -bpred:bimod 512 base_quicksort9204435330
	sim-bpred -bpred bimod -bpred:bimod 1024 base_quicksort9204435330
	sim-bpred -bpred bimod -bpred:bimod 2048 base_quicksort9204435330
	sim-bpred -bpred 2lev -bpred:2lev 1 512 10 1 base_quicksort9204435330
	sim-bpred -bpred 2lev -bpred:2lev 1 1024 10 1 base_quicksort9204435330
	sim-bpred -bpred 2lev -bpred:2lev 1 2048 10 1 base_quicksort9204435330
	sim-bpred -bpred 2lev -bpred:2lev 1 4096 10 1 base_quicksort9204435330
	sslittle-na-sstrix-gcc -Wall -O3 -funroll-loops -finline-functions  -DRANDOM_SIZE=65536 -DOFFSET=2 -DSORT=base_quicksort9 sorts/base_quicksort918281285.c simpleMain.c -o base_quicksort9204435330
	sim-cache -cache:dl1 dl1:256:32:1:l -cache:dl2 dl2:131072:32:1:l -cache:il1 il1:256:32:1:l -cache:il2 dl2 base_quicksort9204435330
	sim-cache -cache:dl1 dl1:256:32:1:l -cache:dl2 dl2:65536:32:1:l -cache:il1 il1:256:32:1:l -cache:il2 dl2 base_quicksort9204435330
	sim-cache -cache:dl1 dl1:1:32:256:l -cache:dl2 dl2:1:32:131072:l -cache:il1 il1:1:32:256:l -cache:il2 dl2 base_quicksort9204435330
	sim-cache -cache:dl1 dl1:1:32:256:l -cache:dl2 dl2:1:32:65536:l -cache:il1 il1:1:32:256:l -cache:il2 dl2 base_quicksort9204435330
	sim-bpred -bpred bimod -bpred:bimod 512 base_quicksort9204435330
	sim-bpred -bpred bimod -bpred:bimod 1024 base_quicksort9204435330
	sim-bpred -bpred bimod -bpred:bimod 2048 base_quicksort9204435330
	sim-bpred -bpred 2lev -bpred:2lev 1 512 10 1 base_quicksort9204435330
	sim-bpred -bpred 2lev -bpred:2lev 1 1024 10 1 base_quicksort9204435330
	sim-bpred -bpred 2lev -bpred:2lev 1 2048 10 1 base_quicksort9204435330
	sim-bpred -bpred 2lev -bpred:2lev 1 4096 10 1 base_quicksort9204435330
	sslittle-na-sstrix-gcc -Wall -O3 -funroll-loops -finline-functions  -DRANDOM_SIZE=131072 -DOFFSET=2 -DSORT=base_quicksort9 sorts/base_quicksort918281285.c simpleMain.c -o base_quicksort9204435330
	sim-cache -cache:dl1 dl1:256:32:1:l -cache:dl2 dl2:131072:32:1:l -cache:il1 il1:256:32:1:l -cache:il2 dl2 base_quicksort9204435330
	sim-cache -cache:dl1 dl1:256:32:1:l -cache:dl2 dl2:65536:32:1:l -cache:il1 il1:256:32:1:l -cache:il2 dl2 base_quicksort9204435330
	sim-cache -cache:dl1 dl1:1:32:256:l -cache:dl2 dl2:1:32:131072:l -cache:il1 il1:1:32:256:l -cache:il2 dl2 base_quicksort9204435330
	sim-cache -cache:dl1 dl1:1:32:256:l -cache:dl2 dl2:1:32:65536:l -cache:il1 il1:1:32:256:l -cache:il2 dl2 base_quicksort9204435330
	sim-bpred -bpred bimod -bpred:bimod 512 base_quicksort9204435330
	sim-bpred -bpred bimod -bpred:bimod 1024 base_quicksort9204435330
	sim-bpred -bpred bimod -bpred:bimod 2048 base_quicksort9204435330
	sim-bpred -bpred 2lev -bpred:2lev 1 512 10 1 base_quicksort9204435330
	sim-bpred -bpred 2lev -bpred:2lev 1 1024 10 1 base_quicksort9204435330
	sim-bpred -bpred 2lev -bpred:2lev 1 2048 10 1 base_quicksort9204435330
	sim-bpred -bpred 2lev -bpred:2lev 1 4096 10 1 base_quicksort9204435330
	sslittle-na-sstrix-gcc -Wall -O3 -funroll-loops -finline-functions  -DRANDOM_SIZE=262144 -DOFFSET=2 -DSORT=base_quicksort9 sorts/base_quicksort918281285.c simpleMain.c -o base_quicksort9204435330
	sim-cache -cache:dl1 dl1:256:32:1:l -cache:dl2 dl2:131072:32:1:l -cache:il1 il1:256:32:1:l -cache:il2 dl2 base_quicksort9204435330
	sim-cache -cache:dl1 dl1:256:32:1:l -cache:dl2 dl2:65536:32:1:l -cache:il1 il1:256:32:1:l -cache:il2 dl2 base_quicksort9204435330
	sim-cache -cache:dl1 dl1:1:32:256:l -cache:dl2 dl2:1:32:131072:l -cache:il1 il1:1:32:256:l -cache:il2 dl2 base_quicksort9204435330
	sim-cache -cache:dl1 dl1:1:32:256:l -cache:dl2 dl2:1:32:65536:l -cache:il1 il1:1:32:256:l -cache:il2 dl2 base_quicksort9204435330
	sim-bpred -bpred bimod -bpred:bimod 512 base_quicksort9204435330
	sim-bpred -bpred bimod -bpred:bimod 1024 base_quicksort9204435330
	sim-bpred -bpred bimod -bpred:bimod 2048 base_quicksort9204435330
	sim-bpred -bpred 2lev -bpred:2lev 1 512 10 1 base_quicksort9204435330
	sim-bpred -bpred 2lev -bpred:2lev 1 1024 10 1 base_quicksort9204435330
	sim-bpred -bpred 2lev -bpred:2lev 1 2048 10 1 base_quicksort9204435330
	sim-bpred -bpred 2lev -bpred:2lev 1 4096 10 1 base_quicksort9204435330
	sslittle-na-sstrix-gcc -Wall -O3 -funroll-loops -finline-functions  -DRANDOM_SIZE=524288 -DOFFSET=2 -DSORT=base_quicksort9 sorts/base_quicksort918281285.c simpleMain.c -o base_quicksort9204435330
	sim-cache -cache:dl1 dl1:256:32:1:l -cache:dl2 dl2:131072:32:1:l -cache:il1 il1:256:32:1:l -cache:il2 dl2 base_quicksort9204435330
	sim-cache -cache:dl1 dl1:256:32:1:l -cache:dl2 dl2:65536:32:1:l -cache:il1 il1:256:32:1:l -cache:il2 dl2 base_quicksort9204435330
	sim-cache -cache:dl1 dl1:1:32:256:l -cache:dl2 dl2:1:32:131072:l -cache:il1 il1:1:32:256:l -cache:il2 dl2 base_quicksort9204435330
	sim-cache -cache:dl1 dl1:1:32:256:l -cache:dl2 dl2:1:32:65536:l -cache:il1 il1:1:32:256:l -cache:il2 dl2 base_quicksort9204435330
	sim-bpred -bpred bimod -bpred:bimod 512 base_quicksort9204435330
	sim-bpred -bpred bimod -bpred:bimod 1024 base_quicksort9204435330
	sim-bpred -bpred bimod -bpred:bimod 2048 base_quicksort9204435330
	sim-bpred -bpred 2lev -bpred:2lev 1 512 10 1 base_quicksort9204435330
	sim-bpred -bpred 2lev -bpred:2lev 1 1024 10 1 base_quicksort9204435330
	sim-bpred -bpred 2lev -bpred:2lev 1 2048 10 1 base_quicksort9204435330
	sim-bpred -bpred 2lev -bpred:2lev 1 4096 10 1 base_quicksort9204435330
	sslittle-na-sstrix-gcc -Wall -O3 -funroll-loops -finline-functions  -DRANDOM_SIZE=1048576 -DOFFSET=2 -DSORT=base_quicksort9 sorts/base_quicksort918281285.c simpleMain.c -o base_quicksort9204435330
	sim-cache -cache:dl1 dl1:256:32:1:l -cache:dl2 dl2:131072:32:1:l -cache:il1 il1:256:32:1:l -cache:il2 dl2 base_quicksort9204435330
	sim-cache -cache:dl1 dl1:256:32:1:l -cache:dl2 dl2:65536:32:1:l -cache:il1 il1:256:32:1:l -cache:il2 dl2 base_quicksort9204435330
	sim-cache -cache:dl1 dl1:1:32:256:l -cache:dl2 dl2:1:32:131072:l -cache:il1 il1:1:32:256:l -cache:il2 dl2 base_quicksort9204435330
	sim-cache -cache:dl1 dl1:1:32:256:l -cache:dl2 dl2:1:32:65536:l -cache:il1 il1:1:32:256:l -cache:il2 dl2 base_quicksort9204435330
	sim-bpred -bpred bimod -bpred:bimod 512 base_quicksort9204435330
	sim-bpred -bpred bimod -bpred:bimod 1024 base_quicksort9204435330
	sim-bpred -bpred bimod -bpred:bimod 2048 base_quicksort9204435330
	sim-bpred -bpred 2lev -bpred:2lev 1 512 10 1 base_quicksort9204435330
	sim-bpred -bpred 2lev -bpred:2lev 1 1024 10 1 base_quicksort9204435330
	sim-bpred -bpred 2lev -bpred:2lev 1 2048 10 1 base_quicksort9204435330
	sim-bpred -bpred 2lev -bpred:2lev 1 4096 10 1 base_quicksort9204435330
	sslittle-na-sstrix-gcc -Wall -O3 -funroll-loops -finline-functions  -DRANDOM_SIZE=2097152 -DOFFSET=2 -DSORT=base_quicksort9 sorts/base_quicksort918281285.c simpleMain.c -o base_quicksort9204435330
	sim-cache -cache:dl1 dl1:256:32:1:l -cache:dl2 dl2:131072:32:1:l -cache:il1 il1:256:32:1:l -cache:il2 dl2 base_quicksort9204435330
	sim-cache -cache:dl1 dl1:256:32:1:l -cache:dl2 dl2:65536:32:1:l -cache:il1 il1:256:32:1:l -cache:il2 dl2 base_quicksort9204435330
	sim-cache -cache:dl1 dl1:1:32:256:l -cache:dl2 dl2:1:32:131072:l -cache:il1 il1:1:32:256:l -cache:il2 dl2 base_quicksort9204435330
	sim-cache -cache:dl1 dl1:1:32:256:l -cache:dl2 dl2:1:32:65536:l -cache:il1 il1:1:32:256:l -cache:il2 dl2 base_quicksort9204435330
	sim-bpred -bpred bimod -bpred:bimod 512 base_quicksort9204435330
	sim-bpred -bpred bimod -bpred:bimod 1024 base_quicksort9204435330
	sim-bpred -bpred bimod -bpred:bimod 2048 base_quicksort9204435330
	sim-bpred -bpred 2lev -bpred:2lev 1 512 10 1 base_quicksort9204435330
	sim-bpred -bpred 2lev -bpred:2lev 1 1024 10 1 base_quicksort9204435330
	sim-bpred -bpred 2lev -bpred:2lev 1 2048 10 1 base_quicksort9204435330
	sim-bpred -bpred 2lev -bpred:2lev 1 4096 10 1 base_quicksort9204435330
	sslittle-na-sstrix-gcc -Wall -O3 -funroll-loops -finline-functions  -DRANDOM_SIZE=4194304 -DOFFSET=2 -DSORT=base_quicksort9 sorts/base_quicksort918281285.c simpleMain.c -o base_quicksort9204435330
	sim-cache -cache:dl1 dl1:256:32:1:l -cache:dl2 dl2:131072:32:1:l -cache:il1 il1:256:32:1:l -cache:il2 dl2 base_quicksort9204435330
	sim-cache -cache:dl1 dl1:256:32:1:l -cache:dl2 dl2:65536:32:1:l -cache:il1 il1:256:32:1:l -cache:il2 dl2 base_quicksort9204435330
	sim-cache -cache:dl1 dl1:1:32:256:l -cache:dl2 dl2:1:32:131072:l -cache:il1 il1:1:32:256:l -cache:il2 dl2 base_quicksort9204435330
	sim-cache -cache:dl1 dl1:1:32:256:l -cache:dl2 dl2:1:32:65536:l -cache:il1 il1:1:32:256:l -cache:il2 dl2 base_quicksort9204435330
	sim-bpred -bpred bimod -bpred:bimod 512 base_quicksort9204435330
	sim-bpred -bpred bimod -bpred:bimod 1024 base_quicksort9204435330
	sim-bpred -bpred bimod -bpred:bimod 2048 base_quicksort9204435330
	sim-bpred -bpred 2lev -bpred:2lev 1 512 10 1 base_quicksort9204435330
	sim-bpred -bpred 2lev -bpred:2lev 1 1024 10 1 base_quicksort9204435330
	sim-bpred -bpred 2lev -bpred:2lev 1 2048 10 1 base_quicksort9204435330
	sim-bpred -bpred 2lev -bpred:2lev 1 4096 10 1 base_quicksort9204435330
