Thu Jul  7 01:11:01 2005
Run as: "./do_simple -c random.org4 -o 4 base_quicksort"
-------------------------------------------------------------------------------------------------
sim-cache                                     4096 |         4096 |         4096 |         4096 |         8192 |         8192 |         8192 |         8192 |        16384 |        16384 |        16384 |        16384 |        32768 |        32768 |        32768 |        32768 |        65536 |        65536 |        65536 |        65536 |       131072 |       131072 |       131072 |       131072 |       262144 |       262144 |       262144 |       262144 |       524288 |       524288 |       524288 |       524288 |      1048576 |      1048576 |      1048576 |      1048576 |      2097152 |      2097152 |      2097152 |      2097152 |      4194304 |      4194304 |      4194304 |      4194304 |
-cache:dl1 dl1:256:32:1:l -cache:dl2 dl2:131072:32:1:l -cache:il1 il1:256:32:1:l -cache:il2 dl2
-cache:dl1 dl1:256:32:1:l -cache:dl2 dl2:65536:32:1:l -cache:il1 il1:256:32:1:l -cache:il2 dl2
-cache:dl1 dl1:1:32:256:l -cache:dl2 dl2:1:32:131072:l -cache:il1 il1:1:32:256:l -cache:il2 dl2
-cache:dl1 dl1:1:32:256:l -cache:dl2 dl2:1:32:65536:l -cache:il1 il1:1:32:256:l -cache:il2 dl2
-------------------------------------------------------------------------------------------------
sim_num_insn                                485040 |       485040 |       485040 |       485040 |       985463 |       985463 |       985463 |       985463 |      2136753 |      2136753 |      2136753 |      2136753 |      4558310 |      4558310 |      4558310 |      4558310 |      9782376 |      9782376 |      9782376 |      9782376 |     20685326 |     20685326 |     20685326 |     20685326 |     44002895 |     44002895 |     44002895 |     44002895 |     94218885 |     94218885 |     94218885 |     94218885 |    195987892 |    195987892 |    195987892 |    195987892 |    412802320 |    412802320 |    412802320 |    412802320 |    857970882 |    857970882 |    857970882 |    857970882 |
sim_num_refs                                127127 |       127127 |       127127 |       127127 |       260221 |       260221 |       260221 |       260221 |       555003 |       555003 |       555003 |       555003 |      1174814 |      1174814 |      1174814 |      1174814 |      2491519 |      2491519 |      2491519 |      2491519 |      5246674 |      5246674 |      5246674 |      5246674 |     11087498 |     11087498 |     11087498 |     11087498 |     23490211 |     23490211 |     23490211 |     23490211 |     48908608 |     48908608 |     48908608 |     48908608 |    102467258 |    102467258 |    102467258 |    102467258 |    212939251 |    212939251 |    212939251 |    212939251 |
sim_elapsed_time                                 1 |            1 |            7 |            4 |            1 |            1 |           11 |            5 |            1 |            1 |           16 |            8 |            2 |            1 |           27 |           14 |            3 |            3 |           49 |           25 |            6 |            5 |           91 |           46 |           12 |           12 |          167 |           79 |           26 |           26 |          289 |          113 |           53 |           53 |          402 |          142 |          112 |          112 |          464 |          205 |          232 |          232 |          594 |          334 |
sim_inst_rate                          485040.0000 |  485040.0000 |   69291.4286 |  121260.0000 |  985463.0000 |  985463.0000 |   89587.5455 |  197092.6000 | 2136753.0000 | 2136753.0000 |  133547.0625 |  267094.1250 | 2279155.0000 | 4558310.0000 |  168826.2963 |  325593.5714 | 3260792.0000 | 3260792.0000 |  199640.3265 |  391295.0400 | 3447554.3333 | 4137065.2000 |  227311.2747 |  449681.0000 | 3666907.9167 | 3666907.9167 |  263490.3892 |  556998.6709 | 3623803.2692 | 3623803.2692 |  326016.9031 |  833795.4425 | 3697884.7547 | 3697884.7547 |  487532.0697 | 1380196.4225 | 3685735.0000 | 3685735.0000 |  889660.1724 | 2013669.8537 | 3698150.3534 | 3698150.3534 | 1444395.4242 | 2568775.0958 |
il1.accesses                                485040 |       485040 |       485040 |       485040 |       985463 |       985463 |       985463 |       985463 |      2136753 |      2136753 |      2136753 |      2136753 |      4558310 |      4558310 |      4558310 |      4558310 |      9782376 |      9782376 |      9782376 |      9782376 |     20685326 |     20685326 |     20685326 |     20685326 |     44002895 |     44002895 |     44002895 |     44002895 |     94218885 |     94218885 |     94218885 |     94218885 |    195987892 |    195987892 |    195987892 |    195987892 |    412802320 |    412802320 |    412802320 |    412802320 |    857970882 |    857970882 |    857970882 |    857970882 |
il1.hits                                    484589 |       484589 |       484620 |       484620 |       985010 |       985010 |       985041 |       985041 |      2136288 |      2136288 |      2136328 |      2136328 |      4557856 |      4557856 |      4557887 |      4557887 |      9781922 |      9781922 |      9781953 |      9781953 |     20684873 |     20684873 |     20684904 |     20684904 |     44002442 |     44002442 |     44002473 |     44002473 |     94218432 |     94218432 |     94218463 |     94218463 |    195987439 |    195987439 |    195987470 |    195987470 |    412801867 |    412801867 |    412801898 |    412801898 |    857970429 |    857970429 |    857970460 |    857970460 |
il1.misses                                     451 |          451 |          420 |          420 |          453 |          453 |          422 |          422 |          465 |          465 |          425 |          425 |          454 |          454 |          423 |          423 |          454 |          454 |          423 |          423 |          453 |          453 |          422 |          422 |          453 |          453 |          422 |          422 |          453 |          453 |          422 |          422 |          453 |          453 |          422 |          422 |          453 |          453 |          422 |          422 |          453 |          453 |          422 |          422 |
il1.replacements                               213 |          213 |          164 |          164 |          215 |          215 |          166 |          166 |          227 |          227 |          169 |          169 |          216 |          216 |          167 |          167 |          216 |          216 |          167 |          167 |          216 |          216 |          166 |          166 |          216 |          216 |          166 |          166 |          216 |          216 |          166 |          166 |          216 |          216 |          166 |          166 |          216 |          216 |          166 |          166 |          216 |          216 |          166 |          166 |
il1.writebacks                                   0 |            0 |            0 |            0 |            0 |            0 |            0 |            0 |            0 |            0 |            0 |            0 |            0 |            0 |            0 |            0 |            0 |            0 |            0 |            0 |            0 |            0 |            0 |            0 |            0 |            0 |            0 |            0 |            0 |            0 |            0 |            0 |            0 |            0 |            0 |            0 |            0 |            0 |            0 |            0 |            0 |            0 |            0 |            0 |
il1.invalidations                                0 |            0 |            0 |            0 |            0 |            0 |            0 |            0 |            0 |            0 |            0 |            0 |            0 |            0 |            0 |            0 |            0 |            0 |            0 |            0 |            0 |            0 |            0 |            0 |            0 |            0 |            0 |            0 |            0 |            0 |            0 |            0 |            0 |            0 |            0 |            0 |            0 |            0 |            0 |            0 |            0 |            0 |            0 |            0 |
il1.miss_rate                               0.0009 |       0.0009 |       0.0009 |       0.0009 |       0.0005 |       0.0005 |       0.0004 |       0.0004 |       0.0002 |       0.0002 |       0.0002 |       0.0002 |       0.0001 |       0.0001 |       0.0001 |       0.0001 |       0.0000 |       0.0000 |       0.0000 |       0.0000 |       0.0000 |       0.0000 |       0.0000 |       0.0000 |       0.0000 |       0.0000 |       0.0000 |       0.0000 |       0.0000 |       0.0000 |       0.0000 |       0.0000 |       0.0000 |       0.0000 |       0.0000 |       0.0000 |       0.0000 |       0.0000 |       0.0000 |       0.0000 |       0.0000 |       0.0000 |       0.0000 |       0.0000 |
il1.repl_rate                               0.0004 |       0.0004 |       0.0003 |       0.0003 |       0.0002 |       0.0002 |       0.0002 |       0.0002 |       0.0001 |       0.0001 |       0.0001 |       0.0001 |       0.0000 |       0.0000 |       0.0000 |       0.0000 |       0.0000 |       0.0000 |       0.0000 |       0.0000 |       0.0000 |       0.0000 |       0.0000 |       0.0000 |       0.0000 |       0.0000 |       0.0000 |       0.0000 |       0.0000 |       0.0000 |       0.0000 |       0.0000 |       0.0000 |       0.0000 |       0.0000 |       0.0000 |       0.0000 |       0.0000 |       0.0000 |       0.0000 |       0.0000 |       0.0000 |       0.0000 |       0.0000 |
il1.wb_rate                                 0.0000 |       0.0000 |       0.0000 |       0.0000 |       0.0000 |       0.0000 |       0.0000 |       0.0000 |       0.0000 |       0.0000 |       0.0000 |       0.0000 |       0.0000 |       0.0000 |       0.0000 |       0.0000 |       0.0000 |       0.0000 |       0.0000 |       0.0000 |       0.0000 |       0.0000 |       0.0000 |       0.0000 |       0.0000 |       0.0000 |       0.0000 |       0.0000 |       0.0000 |       0.0000 |       0.0000 |       0.0000 |       0.0000 |       0.0000 |       0.0000 |       0.0000 |       0.0000 |       0.0000 |       0.0000 |       0.0000 |       0.0000 |       0.0000 |       0.0000 |       0.0000 |
il1.inv_rate                                0.0000 |       0.0000 |       0.0000 |       0.0000 |       0.0000 |       0.0000 |       0.0000 |       0.0000 |       0.0000 |       0.0000 |       0.0000 |       0.0000 |       0.0000 |       0.0000 |       0.0000 |       0.0000 |       0.0000 |       0.0000 |       0.0000 |       0.0000 |       0.0000 |       0.0000 |       0.0000 |       0.0000 |       0.0000 |       0.0000 |       0.0000 |       0.0000 |       0.0000 |       0.0000 |       0.0000 |       0.0000 |       0.0000 |       0.0000 |       0.0000 |       0.0000 |       0.0000 |       0.0000 |       0.0000 |       0.0000 |       0.0000 |       0.0000 |       0.0000 |       0.0000 |
dl1.accesses                                143593 |       143593 |       143593 |       143593 |       293071 |       293071 |       293071 |       293071 |       620621 |       620621 |       620621 |       620621 |      1305968 |      1305968 |      1305968 |      1305968 |      2753745 |      2753745 |      2753745 |      2753745 |      5771044 |      5771044 |      5771044 |      5771044 |     12136156 |     12136156 |     12136156 |     12136156 |     25587445 |     25587445 |     25587445 |     25587445 |     53102994 |     53102994 |     53102994 |     53102994 |    110855948 |    110855948 |    110855948 |    110855948 |    229716549 |    229716549 |    229716549 |    229716549 |
dl1.hits                                    140603 |       140603 |       140515 |       140515 |       287443 |       287443 |       287314 |       287314 |       607125 |       607125 |       606573 |       606573 |      1274800 |      1274800 |      1274830 |      1274830 |      2681692 |      2681692 |      2681032 |      2681032 |      5607210 |      5607210 |      5607400 |      5607400 |     11762451 |     11762451 |     11764148 |     11764148 |     24731086 |     24731086 |     24737761 |     24737761 |     51284530 |     51284530 |     51300289 |     51300289 |    106858853 |    106858853 |    106898094 |    106898094 |    221233219 |    221233219 |    221328020 |    221328020 |
dl1.misses                                    2990 |         2990 |         3078 |         3078 |         5628 |         5628 |         5757 |         5757 |        13496 |        13496 |        14048 |        14048 |        31168 |        31168 |        31138 |        31138 |        72053 |        72053 |        72713 |        72713 |       163834 |       163834 |       163644 |       163644 |       373705 |       373705 |       372008 |       372008 |       856359 |       856359 |       849684 |       849684 |      1818464 |      1818464 |      1802705 |      1802705 |      3997095 |      3997095 |      3957854 |      3957854 |      8483330 |      8483330 |      8388529 |      8388529 |
dl1.replacements                              2734 |         2734 |         2822 |         2822 |         5372 |         5372 |         5501 |         5501 |        13240 |        13240 |        13792 |        13792 |        30912 |        30912 |        30882 |        30882 |        71797 |        71797 |        72457 |        72457 |       163578 |       163578 |       163388 |       163388 |       373449 |       373449 |       371752 |       371752 |       856103 |       856103 |       849428 |       849428 |      1818208 |      1818208 |      1802449 |      1802449 |      3996839 |      3996839 |      3957598 |      3957598 |      8483074 |      8483074 |      8388273 |      8388273 |
dl1.writebacks                                2309 |         2309 |         2405 |         2405 |         5276 |         5276 |         5451 |         5451 |        12861 |        12861 |        13434 |        13434 |        29610 |        29610 |        29768 |        29768 |        68108 |        68108 |        69333 |        69333 |       155325 |       155325 |       156326 |       156326 |       346088 |       346088 |       347788 |       347788 |       773714 |       773714 |       774889 |       774889 |      1669202 |      1669202 |      1670364 |      1670364 |      3661469 |      3661469 |      3661536 |      3661536 |      7859749 |      7859749 |      7852563 |      7852563 |
dl1.invalidations                                0 |            0 |            0 |            0 |            0 |            0 |            0 |            0 |            0 |            0 |            0 |            0 |            0 |            0 |            0 |            0 |            0 |            0 |            0 |            0 |            0 |            0 |            0 |            0 |            0 |            0 |            0 |            0 |            0 |            0 |            0 |            0 |            0 |            0 |            0 |            0 |            0 |            0 |            0 |            0 |            0 |            0 |            0 |            0 |
dl1.miss_rate                               0.0208 |       0.0208 |       0.0214 |       0.0214 |       0.0192 |       0.0192 |       0.0196 |       0.0196 |       0.0217 |       0.0217 |       0.0226 |       0.0226 |       0.0239 |       0.0239 |       0.0238 |       0.0238 |       0.0262 |       0.0262 |       0.0264 |       0.0264 |       0.0284 |       0.0284 |       0.0284 |       0.0284 |       0.0308 |       0.0308 |       0.0307 |       0.0307 |       0.0335 |       0.0335 |       0.0332 |       0.0332 |       0.0342 |       0.0342 |       0.0339 |       0.0339 |       0.0361 |       0.0361 |       0.0357 |       0.0357 |       0.0369 |       0.0369 |       0.0365 |       0.0365 |
dl1.repl_rate                               0.0190 |       0.0190 |       0.0197 |       0.0197 |       0.0183 |       0.0183 |       0.0188 |       0.0188 |       0.0213 |       0.0213 |       0.0222 |       0.0222 |       0.0237 |       0.0237 |       0.0236 |       0.0236 |       0.0261 |       0.0261 |       0.0263 |       0.0263 |       0.0283 |       0.0283 |       0.0283 |       0.0283 |       0.0308 |       0.0308 |       0.0306 |       0.0306 |       0.0335 |       0.0335 |       0.0332 |       0.0332 |       0.0342 |       0.0342 |       0.0339 |       0.0339 |       0.0361 |       0.0361 |       0.0357 |       0.0357 |       0.0369 |       0.0369 |       0.0365 |       0.0365 |
dl1.wb_rate                                 0.0161 |       0.0161 |       0.0167 |       0.0167 |       0.0180 |       0.0180 |       0.0186 |       0.0186 |       0.0207 |       0.0207 |       0.0216 |       0.0216 |       0.0227 |       0.0227 |       0.0228 |       0.0228 |       0.0247 |       0.0247 |       0.0252 |       0.0252 |       0.0269 |       0.0269 |       0.0271 |       0.0271 |       0.0285 |       0.0285 |       0.0287 |       0.0287 |       0.0302 |       0.0302 |       0.0303 |       0.0303 |       0.0314 |       0.0314 |       0.0315 |       0.0315 |       0.0330 |       0.0330 |       0.0330 |       0.0330 |       0.0342 |       0.0342 |       0.0342 |       0.0342 |
dl1.inv_rate                                0.0000 |       0.0000 |       0.0000 |       0.0000 |       0.0000 |       0.0000 |       0.0000 |       0.0000 |       0.0000 |       0.0000 |       0.0000 |       0.0000 |       0.0000 |       0.0000 |       0.0000 |       0.0000 |       0.0000 |       0.0000 |       0.0000 |       0.0000 |       0.0000 |       0.0000 |       0.0000 |       0.0000 |       0.0000 |       0.0000 |       0.0000 |       0.0000 |       0.0000 |       0.0000 |       0.0000 |       0.0000 |       0.0000 |       0.0000 |       0.0000 |       0.0000 |       0.0000 |       0.0000 |       0.0000 |       0.0000 |       0.0000 |       0.0000 |       0.0000 |       0.0000 |
dl2.accesses                                  5750 |         5750 |         5903 |         5903 |        11357 |        11357 |        11630 |        11630 |        26822 |        26822 |        27907 |        27907 |        61232 |        61232 |        61329 |        61329 |       140615 |       140615 |       142469 |       142469 |       319612 |       319612 |       320392 |       320392 |       720246 |       720246 |       720218 |       720218 |      1630526 |      1630526 |      1624995 |      1624995 |      3488119 |      3488119 |      3473491 |      3473491 |      7659017 |      7659017 |      7619812 |      7619812 |     16343532 |     16343532 |     16241514 |     16241514 |
dl2.hits                                      4385 |         4385 |         4548 |         4548 |         9478 |         9478 |         9761 |         9761 |        23920 |        23920 |        25020 |        25020 |        56288 |        56288 |        56395 |        56395 |       131574 |       131574 |       133438 |       133438 |       302380 |       302380 |       303170 |       303170 |       686630 |       686630 |       686612 |       686612 |      1564142 |      1563374 |      1558621 |      1523827 |      3355451 |      3031377 |      3260973 |      2954498 |      6743386 |      6367803 |      6670578 |      6212994 |     13731856 |     13084227 |     13498142 |     12811515 |
dl2.misses                                    1365 |         1365 |         1355 |         1355 |         1879 |         1879 |         1869 |         1869 |         2902 |         2902 |         2887 |         2887 |         4944 |         4944 |         4934 |         4934 |         9041 |         9041 |         9031 |         9031 |        17232 |        17232 |        17222 |        17222 |        33616 |        33616 |        33606 |        33606 |        66384 |        67152 |        66374 |       101168 |       132668 |       456742 |       212518 |       518993 |       915631 |      1291214 |       949234 |      1406818 |      2611676 |      3259305 |      2743372 |      3429999 |
dl2.replacements                               144 |          144 |            0 |            0 |          144 |          144 |            0 |            0 |          150 |          150 |            0 |            0 |          144 |          144 |            0 |            0 |          144 |          144 |            0 |            0 |          144 |          144 |            0 |            0 |          144 |          144 |            0 |            0 |          144 |         1616 |            0 |        35632 |         1596 |       391206 |        81446 |       453457 |       784559 |      1225678 |       818162 |      1341282 |      2480604 |      3193769 |      2612300 |      3364463 |
dl2.writebacks                                  88 |           88 |            0 |            0 |           88 |           88 |            0 |            0 |           89 |           89 |            0 |            0 |           88 |           88 |            0 |            0 |           88 |           88 |            0 |            0 |           88 |           88 |            0 |            0 |           88 |           88 |            0 |            0 |           88 |         1306 |            0 |        35338 |         1287 |       390458 |        81152 |       449030 |       783450 |      1192834 |       816916 |      1293214 |      2414966 |      3096362 |      2539377 |      3247642 |
dl2.invalidations                                0 |            0 |            0 |            0 |            0 |            0 |            0 |            0 |            0 |            0 |            0 |            0 |            0 |            0 |            0 |            0 |            0 |            0 |            0 |            0 |            0 |            0 |            0 |            0 |            0 |            0 |            0 |            0 |            0 |            0 |            0 |            0 |            0 |            0 |            0 |            0 |            0 |            0 |            0 |            0 |            0 |            0 |            0 |            0 |
dl2.miss_rate                               0.2374 |       0.2374 |       0.2295 |       0.2295 |       0.1654 |       0.1654 |       0.1607 |       0.1607 |       0.1082 |       0.1082 |       0.1035 |       0.1035 |       0.0807 |       0.0807 |       0.0805 |       0.0805 |       0.0643 |       0.0643 |       0.0634 |       0.0634 |       0.0539 |       0.0539 |       0.0538 |       0.0538 |       0.0467 |       0.0467 |       0.0467 |       0.0467 |       0.0407 |       0.0412 |       0.0408 |       0.0623 |       0.0380 |       0.1309 |       0.0612 |       0.1494 |       0.1195 |       0.1686 |       0.1246 |       0.1846 |       0.1598 |       0.1994 |       0.1689 |       0.2112 |
dl2.repl_rate                               0.0250 |       0.0250 |       0.0000 |       0.0000 |       0.0127 |       0.0127 |       0.0000 |       0.0000 |       0.0056 |       0.0056 |       0.0000 |       0.0000 |       0.0024 |       0.0024 |       0.0000 |       0.0000 |       0.0010 |       0.0010 |       0.0000 |       0.0000 |       0.0005 |       0.0005 |       0.0000 |       0.0000 |       0.0002 |       0.0002 |       0.0000 |       0.0000 |       0.0001 |       0.0010 |       0.0000 |       0.0219 |       0.0005 |       0.1122 |       0.0234 |       0.1305 |       0.1024 |       0.1600 |       0.1074 |       0.1760 |       0.1518 |       0.1954 |       0.1608 |       0.2072 |
dl2.wb_rate                                 0.0153 |       0.0153 |       0.0000 |       0.0000 |       0.0077 |       0.0077 |       0.0000 |       0.0000 |       0.0033 |       0.0033 |       0.0000 |       0.0000 |       0.0014 |       0.0014 |       0.0000 |       0.0000 |       0.0006 |       0.0006 |       0.0000 |       0.0000 |       0.0003 |       0.0003 |       0.0000 |       0.0000 |       0.0001 |       0.0001 |       0.0000 |       0.0000 |       0.0001 |       0.0008 |       0.0000 |       0.0217 |       0.0004 |       0.1119 |       0.0234 |       0.1293 |       0.1023 |       0.1557 |       0.1072 |       0.1697 |       0.1478 |       0.1895 |       0.1564 |       0.2000 |
dl2.inv_rate                                0.0000 |       0.0000 |       0.0000 |       0.0000 |       0.0000 |       0.0000 |       0.0000 |       0.0000 |       0.0000 |       0.0000 |       0.0000 |       0.0000 |       0.0000 |       0.0000 |       0.0000 |       0.0000 |       0.0000 |       0.0000 |       0.0000 |       0.0000 |       0.0000 |       0.0000 |       0.0000 |       0.0000 |       0.0000 |       0.0000 |       0.0000 |       0.0000 |       0.0000 |       0.0000 |       0.0000 |       0.0000 |       0.0000 |       0.0000 |       0.0000 |       0.0000 |       0.0000 |       0.0000 |       0.0000 |       0.0000 |       0.0000 |       0.0000 |       0.0000 |       0.0000 |
itlb.accesses                               485040 |       485040 |       485040 |       485040 |       985463 |       985463 |       985463 |       985463 |      2136753 |      2136753 |      2136753 |      2136753 |      4558310 |      4558310 |      4558310 |      4558310 |      9782376 |      9782376 |      9782376 |      9782376 |     20685326 |     20685326 |     20685326 |     20685326 |     44002895 |     44002895 |     44002895 |     44002895 |     94218885 |     94218885 |     94218885 |     94218885 |    195987892 |    195987892 |    195987892 |    195987892 |    412802320 |    412802320 |    412802320 |    412802320 |    857970882 |    857970882 |    857970882 |    857970882 |
itlb.hits                                   485030 |       485030 |       485030 |       485030 |       985453 |       985453 |       985453 |       985453 |      2136743 |      2136743 |      2136743 |      2136743 |      4558300 |      4558300 |      4558300 |      4558300 |      9782366 |      9782366 |      9782366 |      9782366 |     20685316 |     20685316 |     20685316 |     20685316 |     44002885 |     44002885 |     44002885 |     44002885 |     94218875 |     94218875 |     94218875 |     94218875 |    195987882 |    195987882 |    195987882 |    195987882 |    412802310 |    412802310 |    412802310 |    412802310 |    857970872 |    857970872 |    857970872 |    857970872 |
itlb.misses                                     10 |           10 |           10 |           10 |           10 |           10 |           10 |           10 |           10 |           10 |           10 |           10 |           10 |           10 |           10 |           10 |           10 |           10 |           10 |           10 |           10 |           10 |           10 |           10 |           10 |           10 |           10 |           10 |           10 |           10 |           10 |           10 |           10 |           10 |           10 |           10 |           10 |           10 |           10 |           10 |           10 |           10 |           10 |           10 |
itlb.replacements                                0 |            0 |            0 |            0 |            0 |            0 |            0 |            0 |            0 |            0 |            0 |            0 |            0 |            0 |            0 |            0 |            0 |            0 |            0 |            0 |            0 |            0 |            0 |            0 |            0 |            0 |            0 |            0 |            0 |            0 |            0 |            0 |            0 |            0 |            0 |            0 |            0 |            0 |            0 |            0 |            0 |            0 |            0 |            0 |
itlb.writebacks                                  0 |            0 |            0 |            0 |            0 |            0 |            0 |            0 |            0 |            0 |            0 |            0 |            0 |            0 |            0 |            0 |            0 |            0 |            0 |            0 |            0 |            0 |            0 |            0 |            0 |            0 |            0 |            0 |            0 |            0 |            0 |            0 |            0 |            0 |            0 |            0 |            0 |            0 |            0 |            0 |            0 |            0 |            0 |            0 |
itlb.invalidations                               0 |            0 |            0 |            0 |            0 |            0 |            0 |            0 |            0 |            0 |            0 |            0 |            0 |            0 |            0 |            0 |            0 |            0 |            0 |            0 |            0 |            0 |            0 |            0 |            0 |            0 |            0 |            0 |            0 |            0 |            0 |            0 |            0 |            0 |            0 |            0 |            0 |            0 |            0 |            0 |            0 |            0 |            0 |            0 |
itlb.miss_rate                              0.0000 |       0.0000 |       0.0000 |       0.0000 |       0.0000 |       0.0000 |       0.0000 |       0.0000 |       0.0000 |       0.0000 |       0.0000 |       0.0000 |       0.0000 |       0.0000 |       0.0000 |       0.0000 |       0.0000 |       0.0000 |       0.0000 |       0.0000 |       0.0000 |       0.0000 |       0.0000 |       0.0000 |       0.0000 |       0.0000 |       0.0000 |       0.0000 |       0.0000 |       0.0000 |       0.0000 |       0.0000 |       0.0000 |       0.0000 |       0.0000 |       0.0000 |       0.0000 |       0.0000 |       0.0000 |       0.0000 |       0.0000 |       0.0000 |       0.0000 |       0.0000 |
itlb.repl_rate                              0.0000 |       0.0000 |       0.0000 |       0.0000 |       0.0000 |       0.0000 |       0.0000 |       0.0000 |       0.0000 |       0.0000 |       0.0000 |       0.0000 |       0.0000 |       0.0000 |       0.0000 |       0.0000 |       0.0000 |       0.0000 |       0.0000 |       0.0000 |       0.0000 |       0.0000 |       0.0000 |       0.0000 |       0.0000 |       0.0000 |       0.0000 |       0.0000 |       0.0000 |       0.0000 |       0.0000 |       0.0000 |       0.0000 |       0.0000 |       0.0000 |       0.0000 |       0.0000 |       0.0000 |       0.0000 |       0.0000 |       0.0000 |       0.0000 |       0.0000 |       0.0000 |
itlb.wb_rate                                0.0000 |       0.0000 |       0.0000 |       0.0000 |       0.0000 |       0.0000 |       0.0000 |       0.0000 |       0.0000 |       0.0000 |       0.0000 |       0.0000 |       0.0000 |       0.0000 |       0.0000 |       0.0000 |       0.0000 |       0.0000 |       0.0000 |       0.0000 |       0.0000 |       0.0000 |       0.0000 |       0.0000 |       0.0000 |       0.0000 |       0.0000 |       0.0000 |       0.0000 |       0.0000 |       0.0000 |       0.0000 |       0.0000 |       0.0000 |       0.0000 |       0.0000 |       0.0000 |       0.0000 |       0.0000 |       0.0000 |       0.0000 |       0.0000 |       0.0000 |       0.0000 |
itlb.inv_rate                               0.0000 |       0.0000 |       0.0000 |       0.0000 |       0.0000 |       0.0000 |       0.0000 |       0.0000 |       0.0000 |       0.0000 |       0.0000 |       0.0000 |       0.0000 |       0.0000 |       0.0000 |       0.0000 |       0.0000 |       0.0000 |       0.0000 |       0.0000 |       0.0000 |       0.0000 |       0.0000 |       0.0000 |       0.0000 |       0.0000 |       0.0000 |       0.0000 |       0.0000 |       0.0000 |       0.0000 |       0.0000 |       0.0000 |       0.0000 |       0.0000 |       0.0000 |       0.0000 |       0.0000 |       0.0000 |       0.0000 |       0.0000 |       0.0000 |       0.0000 |       0.0000 |
dtlb.accesses                               143593 |       143593 |       143593 |       143593 |       293071 |       293071 |       293071 |       293071 |       620621 |       620621 |       620621 |       620621 |      1305968 |      1305968 |      1305968 |      1305968 |      2753745 |      2753745 |      2753745 |      2753745 |      5771044 |      5771044 |      5771044 |      5771044 |     12136156 |     12136156 |     12136156 |     12136156 |     25587445 |     25587445 |     25587445 |     25587445 |     53102994 |     53102994 |     53102994 |     53102994 |    110855948 |    110855948 |    110855948 |    110855948 |    229716549 |    229716549 |    229716549 |    229716549 |
dtlb.hits                                   143581 |       143581 |       143581 |       143581 |       293055 |       293055 |       293055 |       293055 |       620597 |       620597 |       620597 |       620597 |      1305928 |      1305928 |      1305928 |      1305928 |      2753673 |      2753673 |      2753673 |      2753673 |      5770870 |      5770870 |      5770870 |      5770870 |     12135176 |     12135176 |     12135176 |     12135176 |     25584580 |     25584580 |     25584580 |     25584580 |     53096047 |     53096047 |     53096047 |     53096047 |    110839714 |    110839714 |    110839714 |    110839714 |    229680362 |    229680362 |    229680362 |    229680362 |
dtlb.misses                                     12 |           12 |           12 |           12 |           16 |           16 |           16 |           16 |           24 |           24 |           24 |           24 |           40 |           40 |           40 |           40 |           72 |           72 |           72 |           72 |          174 |          174 |          174 |          174 |          980 |          980 |          980 |          980 |         2865 |         2865 |         2865 |         2865 |         6947 |         6947 |         6947 |         6947 |        16234 |        16234 |        16234 |        16234 |        36187 |        36187 |        36187 |        36187 |
dtlb.replacements                                0 |            0 |            0 |            0 |            0 |            0 |            0 |            0 |            0 |            0 |            0 |            0 |            0 |            0 |            0 |            0 |            0 |            0 |            0 |            0 |           46 |           46 |           46 |           46 |          852 |          852 |          852 |          852 |         2737 |         2737 |         2737 |         2737 |         6819 |         6819 |         6819 |         6819 |        16106 |        16106 |        16106 |        16106 |        36059 |        36059 |        36059 |        36059 |
dtlb.writebacks                                  0 |            0 |            0 |            0 |            0 |            0 |            0 |            0 |            0 |            0 |            0 |            0 |            0 |            0 |            0 |            0 |            0 |            0 |            0 |            0 |           44 |           44 |           44 |           44 |          850 |          850 |          850 |          850 |         2735 |         2735 |         2735 |         2735 |         6817 |         6817 |         6817 |         6817 |        16104 |        16104 |        16104 |        16104 |        36057 |        36057 |        36057 |        36057 |
dtlb.invalidations                               0 |            0 |            0 |            0 |            0 |            0 |            0 |            0 |            0 |            0 |            0 |            0 |            0 |            0 |            0 |            0 |            0 |            0 |            0 |            0 |            0 |            0 |            0 |            0 |            0 |            0 |            0 |            0 |            0 |            0 |            0 |            0 |            0 |            0 |            0 |            0 |            0 |            0 |            0 |            0 |            0 |            0 |            0 |            0 |
dtlb.miss_rate                              0.0001 |       0.0001 |       0.0001 |       0.0001 |       0.0001 |       0.0001 |       0.0001 |       0.0001 |       0.0000 |       0.0000 |       0.0000 |       0.0000 |       0.0000 |       0.0000 |       0.0000 |       0.0000 |       0.0000 |       0.0000 |       0.0000 |       0.0000 |       0.0000 |       0.0000 |       0.0000 |       0.0000 |       0.0001 |       0.0001 |       0.0001 |       0.0001 |       0.0001 |       0.0001 |       0.0001 |       0.0001 |       0.0001 |       0.0001 |       0.0001 |       0.0001 |       0.0001 |       0.0001 |       0.0001 |       0.0001 |       0.0002 |       0.0002 |       0.0002 |       0.0002 |
dtlb.repl_rate                              0.0000 |       0.0000 |       0.0000 |       0.0000 |       0.0000 |       0.0000 |       0.0000 |       0.0000 |       0.0000 |       0.0000 |       0.0000 |       0.0000 |       0.0000 |       0.0000 |       0.0000 |       0.0000 |       0.0000 |       0.0000 |       0.0000 |       0.0000 |       0.0000 |       0.0000 |       0.0000 |       0.0000 |       0.0001 |       0.0001 |       0.0001 |       0.0001 |       0.0001 |       0.0001 |       0.0001 |       0.0001 |       0.0001 |       0.0001 |       0.0001 |       0.0001 |       0.0001 |       0.0001 |       0.0001 |       0.0001 |       0.0002 |       0.0002 |       0.0002 |       0.0002 |
dtlb.wb_rate                                0.0000 |       0.0000 |       0.0000 |       0.0000 |       0.0000 |       0.0000 |       0.0000 |       0.0000 |       0.0000 |       0.0000 |       0.0000 |       0.0000 |       0.0000 |       0.0000 |       0.0000 |       0.0000 |       0.0000 |       0.0000 |       0.0000 |       0.0000 |       0.0000 |       0.0000 |       0.0000 |       0.0000 |       0.0001 |       0.0001 |       0.0001 |       0.0001 |       0.0001 |       0.0001 |       0.0001 |       0.0001 |       0.0001 |       0.0001 |       0.0001 |       0.0001 |       0.0001 |       0.0001 |       0.0001 |       0.0001 |       0.0002 |       0.0002 |       0.0002 |       0.0002 |
dtlb.inv_rate                               0.0000 |       0.0000 |       0.0000 |       0.0000 |       0.0000 |       0.0000 |       0.0000 |       0.0000 |       0.0000 |       0.0000 |       0.0000 |       0.0000 |       0.0000 |       0.0000 |       0.0000 |       0.0000 |       0.0000 |       0.0000 |       0.0000 |       0.0000 |       0.0000 |       0.0000 |       0.0000 |       0.0000 |       0.0000 |       0.0000 |       0.0000 |       0.0000 |       0.0000 |       0.0000 |       0.0000 |       0.0000 |       0.0000 |       0.0000 |       0.0000 |       0.0000 |       0.0000 |       0.0000 |       0.0000 |       0.0000 |       0.0000 |       0.0000 |       0.0000 |       0.0000 |
ld_text_base                            0x00400000 |   0x00400000 |   0x00400000 |   0x00400000 |   0x00400000 |   0x00400000 |   0x00400000 |   0x00400000 |   0x00400000 |   0x00400000 |   0x00400000 |   0x00400000 |   0x00400000 |   0x00400000 |   0x00400000 |   0x00400000 |   0x00400000 |   0x00400000 |   0x00400000 |   0x00400000 |   0x00400000 |   0x00400000 |   0x00400000 |   0x00400000 |   0x00400000 |   0x00400000 |   0x00400000 |   0x00400000 |   0x00400000 |   0x00400000 |   0x00400000 |   0x00400000 |   0x00400000 |   0x00400000 |   0x00400000 |   0x00400000 |   0x00400000 |   0x00400000 |   0x00400000 |   0x00400000 |   0x00400000 |   0x00400000 |   0x00400000 |   0x00400000 |
ld_text_size                                 73456 |        73456 |        73456 |        73456 |        73488 |        73488 |        73488 |        73488 |        73504 |        73504 |        73504 |        73504 |        73520 |        73520 |        73520 |        73520 |        73520 |        73520 |        73520 |        73520 |        73520 |        73520 |        73520 |        73520 |        73520 |        73520 |        73520 |        73520 |        73520 |        73520 |        73520 |        73520 |        73520 |        73520 |        73520 |        73520 |        73520 |        73520 |        73520 |        73520 |        73520 |        73520 |        73520 |        73520 |
ld_data_base                            0x10000000 |   0x10000000 |   0x10000000 |   0x10000000 |   0x10000000 |   0x10000000 |   0x10000000 |   0x10000000 |   0x10000000 |   0x10000000 |   0x10000000 |   0x10000000 |   0x10000000 |   0x10000000 |   0x10000000 |   0x10000000 |   0x10000000 |   0x10000000 |   0x10000000 |   0x10000000 |   0x10000000 |   0x10000000 |   0x10000000 |   0x10000000 |   0x10000000 |   0x10000000 |   0x10000000 |   0x10000000 |   0x10000000 |   0x10000000 |   0x10000000 |   0x10000000 |   0x10000000 |   0x10000000 |   0x10000000 |   0x10000000 |   0x10000000 |   0x10000000 |   0x10000000 |   0x10000000 |   0x10000000 |   0x10000000 |   0x10000000 |   0x10000000 |
ld_data_size                                  8192 |         8192 |         8192 |         8192 |         8192 |         8192 |         8192 |         8192 |         8192 |         8192 |         8192 |         8192 |         8192 |         8192 |         8192 |         8192 |         8192 |         8192 |         8192 |         8192 |         8192 |         8192 |         8192 |         8192 |         8192 |         8192 |         8192 |         8192 |         8192 |         8192 |         8192 |         8192 |         8192 |         8192 |         8192 |         8192 |         8192 |         8192 |         8192 |         8192 |         8192 |         8192 |         8192 |         8192 |
ld_stack_base                           0x7fffc000 |   0x7fffc000 |   0x7fffc000 |   0x7fffc000 |   0x7fffc000 |   0x7fffc000 |   0x7fffc000 |   0x7fffc000 |   0x7fffc000 |   0x7fffc000 |   0x7fffc000 |   0x7fffc000 |   0x7fffc000 |   0x7fffc000 |   0x7fffc000 |   0x7fffc000 |   0x7fffc000 |   0x7fffc000 |   0x7fffc000 |   0x7fffc000 |   0x7fffc000 |   0x7fffc000 |   0x7fffc000 |   0x7fffc000 |   0x7fffc000 |   0x7fffc000 |   0x7fffc000 |   0x7fffc000 |   0x7fffc000 |   0x7fffc000 |   0x7fffc000 |   0x7fffc000 |   0x7fffc000 |   0x7fffc000 |   0x7fffc000 |   0x7fffc000 |   0x7fffc000 |   0x7fffc000 |   0x7fffc000 |   0x7fffc000 |   0x7fffc000 |   0x7fffc000 |   0x7fffc000 |   0x7fffc000 |
ld_stack_size                                16384 |        16384 |        16384 |        16384 |        16384 |        16384 |        16384 |        16384 |        16384 |        16384 |        16384 |        16384 |        16384 |        16384 |        16384 |        16384 |        16384 |        16384 |        16384 |        16384 |        16384 |        16384 |        16384 |        16384 |        16384 |        16384 |        16384 |        16384 |        16384 |        16384 |        16384 |        16384 |        16384 |        16384 |        16384 |        16384 |        16384 |        16384 |        16384 |        16384 |        16384 |        16384 |        16384 |        16384 |
ld_prog_entry                           0x00400140 |   0x00400140 |   0x00400140 |   0x00400140 |   0x00400140 |   0x00400140 |   0x00400140 |   0x00400140 |   0x00400140 |   0x00400140 |   0x00400140 |   0x00400140 |   0x00400140 |   0x00400140 |   0x00400140 |   0x00400140 |   0x00400140 |   0x00400140 |   0x00400140 |   0x00400140 |   0x00400140 |   0x00400140 |   0x00400140 |   0x00400140 |   0x00400140 |   0x00400140 |   0x00400140 |   0x00400140 |   0x00400140 |   0x00400140 |   0x00400140 |   0x00400140 |   0x00400140 |   0x00400140 |   0x00400140 |   0x00400140 |   0x00400140 |   0x00400140 |   0x00400140 |   0x00400140 |   0x00400140 |   0x00400140 |   0x00400140 |   0x00400140 |
ld_environ_base                         0x7fff8000 |   0x7fff8000 |   0x7fff8000 |   0x7fff8000 |   0x7fff8000 |   0x7fff8000 |   0x7fff8000 |   0x7fff8000 |   0x7fff8000 |   0x7fff8000 |   0x7fff8000 |   0x7fff8000 |   0x7fff8000 |   0x7fff8000 |   0x7fff8000 |   0x7fff8000 |   0x7fff8000 |   0x7fff8000 |   0x7fff8000 |   0x7fff8000 |   0x7fff8000 |   0x7fff8000 |   0x7fff8000 |   0x7fff8000 |   0x7fff8000 |   0x7fff8000 |   0x7fff8000 |   0x7fff8000 |   0x7fff8000 |   0x7fff8000 |   0x7fff8000 |   0x7fff8000 |   0x7fff8000 |   0x7fff8000 |   0x7fff8000 |   0x7fff8000 |   0x7fff8000 |   0x7fff8000 |   0x7fff8000 |   0x7fff8000 |   0x7fff8000 |   0x7fff8000 |   0x7fff8000 |   0x7fff8000 |
ld_target_big_endian                             0 |            0 |            0 |            0 |            0 |            0 |            0 |            0 |            0 |            0 |            0 |            0 |            0 |            0 |            0 |            0 |            0 |            0 |            0 |            0 |            0 |            0 |            0 |            0 |            0 |            0 |            0 |            0 |            0 |            0 |            0 |            0 |            0 |            0 |            0 |            0 |            0 |            0 |            0 |            0 |            0 |            0 |            0 |            0 |
mem.page_count                                  30 |           30 |           30 |           30 |           34 |           34 |           34 |           34 |           42 |           42 |           42 |           42 |           58 |           58 |           58 |           58 |           90 |           90 |           90 |           90 |          154 |          154 |          154 |          154 |          282 |          282 |          282 |          282 |          538 |          538 |          538 |          538 |         1050 |         1050 |         1050 |         1050 |         2074 |         2074 |         2074 |         2074 |         4122 |         4122 |         4122 |         4122 |
mem.page_mem                                  120k |         120k |         120k |         120k |         136k |         136k |         136k |         136k |         168k |         168k |         168k |         168k |         232k |         232k |         232k |         232k |         360k |         360k |         360k |         360k |         616k |         616k |         616k |         616k |        1128k |        1128k |        1128k |        1128k |        2152k |        2152k |        2152k |        2152k |        4200k |        4200k |        4200k |        4200k |        8296k |        8296k |        8296k |        8296k |       16488k |       16488k |       16488k |       16488k |
mem.ptab_misses                                 30 |           30 |           30 |           30 |           34 |           34 |           34 |           34 |           42 |           42 |           42 |           42 |           58 |           58 |           58 |           58 |           90 |           90 |           90 |           90 |          154 |          154 |          154 |          154 |          282 |          282 |          282 |          282 |          538 |          538 |          538 |          538 |         1050 |         1050 |         1050 |         1050 |         2074 |         2074 |         2074 |         2074 |         4122 |         4122 |         4122 |         4122 |
mem.ptab_accesses                          2682702 |      2682702 |      2682702 |      2682702 |      4983542 |      4983542 |      4983542 |      4983542 |     10243898 |     10243898 |     10243898 |     10243898 |     21300916 |     21300916 |     21300916 |     21300916 |     45092734 |     45092734 |     45092734 |     45092734 |     94739132 |     94739132 |     94739132 |     94739132 |    200739632 |    200739632 |    200739632 |    200739632 |    428506170 |    428506170 |    428506170 |    428506170 |    890613296 |    890613296 |    890613296 |    890613296 |   1873376916 |   1873376916 |   1873376916 |   1873376916 |   3891772366 |   3891772366 |   3891772366 |   3891772366 |
mem.ptab_miss_rate                          0.0000 |       0.0000 |       0.0000 |       0.0000 |       0.0000 |       0.0000 |       0.0000 |       0.0000 |       0.0000 |       0.0000 |       0.0000 |       0.0000 |       0.0000 |       0.0000 |       0.0000 |       0.0000 |       0.0000 |       0.0000 |       0.0000 |       0.0000 |       0.0000 |       0.0000 |       0.0000 |       0.0000 |       0.0000 |       0.0000 |       0.0000 |       0.0000 |       0.0000 |       0.0000 |       0.0000 |       0.0000 |       0.0000 |       0.0000 |       0.0000 |       0.0000 |       0.0000 |       0.0000 |       0.0000 |       0.0000 |       0.0000 |       0.0000 |       0.0000 |       0.0000 |
-------------------------------------------------------------------------------------------------
sim-bpred                                     4096 |         4096 |         4096 |         4096 |         4096 |         4096 |         4096 |         8192 |         8192 |         8192 |         8192 |         8192 |         8192 |         8192 |        16384 |        16384 |        16384 |        16384 |        16384 |        16384 |        16384 |        32768 |        32768 |        32768 |        32768 |        32768 |        32768 |        32768 |        65536 |        65536 |        65536 |        65536 |        65536 |        65536 |        65536 |       131072 |       131072 |       131072 |       131072 |       131072 |       131072 |       131072 |       262144 |       262144 |       262144 |       262144 |       262144 |       262144 |       262144 |       524288 |       524288 |       524288 |       524288 |       524288 |       524288 |       524288 |      1048576 |      1048576 |      1048576 |      1048576 |      1048576 |      1048576 |      1048576 |      2097152 |      2097152 |      2097152 |      2097152 |      2097152 |      2097152 |      2097152 |      4194304 |      4194304 |      4194304 |      4194304 |      4194304 |      4194304 |      4194304 |
-bpred bimod -bpred:bimod 512
-bpred bimod -bpred:bimod 1024
-bpred bimod -bpred:bimod 2048
-bpred 2lev -bpred:2lev 1 512 10 1
-bpred 2lev -bpred:2lev 1 1024 10 1
-bpred 2lev -bpred:2lev 1 2048 10 1
-bpred 2lev -bpred:2lev 1 4096 10 1
-------------------------------------------------------------------------------------------------
sim_num_insn                                485040 |       485040 |       485040 |       485040 |       485040 |       485040 |       485040 |       985463 |       985463 |       985463 |       985463 |       985463 |       985463 |       985463 |      2136753 |      2136753 |      2136753 |      2136753 |      2136753 |      2136753 |      2136753 |      4558310 |      4558310 |      4558310 |      4558310 |      4558310 |      4558310 |      4558310 |      9782376 |      9782376 |      9782376 |      9782376 |      9782376 |      9782376 |      9782376 |     20685326 |     20685326 |     20685326 |     20685326 |     20685326 |     20685326 |     20685326 |     44002895 |     44002895 |     44002895 |     44002895 |     44002895 |     44002895 |     44002895 |     94218885 |     94218885 |     94218885 |     94218885 |     94218885 |     94218885 |     94218885 |    195987892 |    195987892 |    195987892 |    195987892 |    195987892 |    195987892 |    195987892 |    412802320 |    412802320 |    412802320 |    412802320 |    412802320 |    412802320 |    412802320 |    857970882 |    857970882 |    857970882 |    857970882 |    857970882 |    857970882 |    857970882 |
sim_num_refs                                127127 |       127127 |       127127 |       127127 |       127127 |       127127 |       127127 |       260221 |       260221 |       260221 |       260221 |       260221 |       260221 |       260221 |       555003 |       555003 |       555003 |       555003 |       555003 |       555003 |       555003 |      1174814 |      1174814 |      1174814 |      1174814 |      1174814 |      1174814 |      1174814 |      2491519 |      2491519 |      2491519 |      2491519 |      2491519 |      2491519 |      2491519 |      5246674 |      5246674 |      5246674 |      5246674 |      5246674 |      5246674 |      5246674 |     11087498 |     11087498 |     11087498 |     11087498 |     11087498 |     11087498 |     11087498 |     23490211 |     23490211 |     23490211 |     23490211 |     23490211 |     23490211 |     23490211 |     48908608 |     48908608 |     48908608 |     48908608 |     48908608 |     48908608 |     48908608 |    102467258 |    102467258 |    102467258 |    102467258 |    102467258 |    102467258 |    102467258 |    212939251 |    212939251 |    212939251 |    212939251 |    212939251 |    212939251 |    212939251 |
sim_elapsed_time                                 1 |            1 |            1 |            1 |            1 |            1 |            1 |            1 |            1 |            1 |            1 |            1 |            1 |            1 |            1 |            1 |            1 |            1 |            1 |            1 |            1 |            1 |            1 |            1 |            1 |            1 |            1 |            1 |            1 |            1 |            2 |            1 |            1 |            1 |            2 |            2 |            3 |            3 |            2 |            3 |            3 |            2 |            6 |            5 |            6 |            5 |            6 |            5 |            6 |           11 |           12 |           12 |           11 |           12 |           12 |           12 |           24 |           25 |           24 |           25 |           24 |           25 |           25 |           51 |           51 |           51 |           52 |           52 |           51 |           52 |          106 |          106 |          106 |          107 |          108 |          107 |          107 |
sim_inst_rate                          485040.0000 |  485040.0000 |  485040.0000 |  485040.0000 |  485040.0000 |  485040.0000 |  485040.0000 |  985463.0000 |  985463.0000 |  985463.0000 |  985463.0000 |  985463.0000 |  985463.0000 |  985463.0000 | 2136753.0000 | 2136753.0000 | 2136753.0000 | 2136753.0000 | 2136753.0000 | 2136753.0000 | 2136753.0000 | 4558310.0000 | 4558310.0000 | 4558310.0000 | 4558310.0000 | 4558310.0000 | 4558310.0000 | 4558310.0000 | 9782376.0000 | 9782376.0000 | 4891188.0000 | 9782376.0000 | 9782376.0000 | 9782376.0000 | 4891188.0000 |10342663.0000 | 6895108.6667 | 6895108.6667 |10342663.0000 | 6895108.6667 | 6895108.6667 |10342663.0000 | 7333815.8333 | 8800579.0000 | 7333815.8333 | 8800579.0000 | 7333815.8333 | 8800579.0000 | 7333815.8333 | 8565353.1818 | 7851573.7500 | 7851573.7500 | 8565353.1818 | 7851573.7500 | 7851573.7500 | 7851573.7500 | 8166162.1667 | 7839515.6800 | 8166162.1667 | 7839515.6800 | 8166162.1667 | 7839515.6800 | 7839515.6800 | 8094163.1373 | 8094163.1373 | 8094163.1373 | 7938506.1538 | 7938506.1538 | 8094163.1373 | 7938506.1538 | 8094064.9245 | 8094064.9245 | 8094064.9245 | 8018419.4579 | 7944174.8333 | 8018419.4579 | 8018419.4579 |
sim_num_branches                             78731 |        78731 |        78731 |        78731 |        78731 |        78731 |        78731 |       161834 |       161834 |       161834 |       161834 |       161834 |       161834 |       161834 |       353194 |       353194 |       353194 |       353194 |       353194 |       353194 |       353194 |       759058 |       759058 |       759058 |       759058 |       759058 |       759058 |       759058 |      1633648 |      1633648 |      1633648 |      1633648 |      1633648 |      1633648 |      1633648 |      3470106 |      3470106 |      3470106 |      3470106 |      3470106 |      3470106 |      3470106 |      7420295 |      7420295 |      7420295 |      7420295 |      7420295 |      7420295 |      7420295 |     15930753 |     15930753 |     15930753 |     15930753 |     15930753 |     15930753 |     15930753 |     33235799 |     33235799 |     33235799 |     33235799 |     33235799 |     33235799 |     33235799 |     70199474 |     70199474 |     70199474 |     70199474 |     70199474 |     70199474 |     70199474 |    146312176 |    146312176 |    146312176 |    146312176 |    146312176 |    146312176 |    146312176 |
sim_IPB                                     6.1607 |       6.1607 |       6.1607 |       6.1607 |       6.1607 |       6.1607 |       6.1607 |       6.0893 |       6.0893 |       6.0893 |       6.0893 |       6.0893 |       6.0893 |       6.0893 |       6.0498 |       6.0498 |       6.0498 |       6.0498 |       6.0498 |       6.0498 |       6.0498 |       6.0052 |       6.0052 |       6.0052 |       6.0052 |       6.0052 |       6.0052 |       6.0052 |       5.9881 |       5.9881 |       5.9881 |       5.9881 |       5.9881 |       5.9881 |       5.9881 |       5.9610 |       5.9610 |       5.9610 |       5.9610 |       5.9610 |       5.9610 |       5.9610 |       5.9301 |       5.9301 |       5.9301 |       5.9301 |       5.9301 |       5.9301 |       5.9301 |       5.9143 |       5.9143 |       5.9143 |       5.9143 |       5.9143 |       5.9143 |       5.9143 |       5.8969 |       5.8969 |       5.8969 |       5.8969 |       5.8969 |       5.8969 |       5.8969 |       5.8804 |       5.8804 |       5.8804 |       5.8804 |       5.8804 |       5.8804 |       5.8804 |       5.8640 |       5.8640 |       5.8640 |       5.8640 |       5.8640 |       5.8640 |       5.8640 |
bpred_bimod.lookups                          78731 |        78731 |        78731 |xxxxxxxxxxxxx |xxxxxxxxxxxxx |xxxxxxxxxxxxx |xxxxxxxxxxxxx |       161834 |       161834 |       161834 |xxxxxxxxxxxxx |xxxxxxxxxxxxx |xxxxxxxxxxxxx |xxxxxxxxxxxxx |       353194 |       353194 |       353194 |xxxxxxxxxxxxx |xxxxxxxxxxxxx |xxxxxxxxxxxxx |xxxxxxxxxxxxx |       759058 |       759058 |       759058 |xxxxxxxxxxxxx |xxxxxxxxxxxxx |xxxxxxxxxxxxx |xxxxxxxxxxxxx |      1633648 |      1633648 |      1633648 |xxxxxxxxxxxxx |xxxxxxxxxxxxx |xxxxxxxxxxxxx |xxxxxxxxxxxxx |      3470106 |      3470106 |      3470106 |xxxxxxxxxxxxx |xxxxxxxxxxxxx |xxxxxxxxxxxxx |xxxxxxxxxxxxx |      7420295 |      7420295 |      7420295 |xxxxxxxxxxxxx |xxxxxxxxxxxxx |xxxxxxxxxxxxx |xxxxxxxxxxxxx |     15930753 |     15930753 |     15930753 |xxxxxxxxxxxxx |xxxxxxxxxxxxx |xxxxxxxxxxxxx |xxxxxxxxxxxxx |     33235799 |     33235799 |     33235799 |xxxxxxxxxxxxx |xxxxxxxxxxxxx |xxxxxxxxxxxxx |xxxxxxxxxxxxx |     70199474 |     70199474 |     70199474 |xxxxxxxxxxxxx |xxxxxxxxxxxxx |xxxxxxxxxxxxx |xxxxxxxxxxxxx |    146312176 |    146312176 |    146312176 |
bpred_bimod.updates                          78731 |        78731 |        78731 |xxxxxxxxxxxxx |xxxxxxxxxxxxx |xxxxxxxxxxxxx |xxxxxxxxxxxxx |       161834 |       161834 |       161834 |xxxxxxxxxxxxx |xxxxxxxxxxxxx |xxxxxxxxxxxxx |xxxxxxxxxxxxx |       353194 |       353194 |       353194 |xxxxxxxxxxxxx |xxxxxxxxxxxxx |xxxxxxxxxxxxx |xxxxxxxxxxxxx |       759058 |       759058 |       759058 |xxxxxxxxxxxxx |xxxxxxxxxxxxx |xxxxxxxxxxxxx |xxxxxxxxxxxxx |      1633648 |      1633648 |      1633648 |xxxxxxxxxxxxx |xxxxxxxxxxxxx |xxxxxxxxxxxxx |xxxxxxxxxxxxx |      3470106 |      3470106 |      3470106 |xxxxxxxxxxxxx |xxxxxxxxxxxxx |xxxxxxxxxxxxx |xxxxxxxxxxxxx |      7420295 |      7420295 |      7420295 |xxxxxxxxxxxxx |xxxxxxxxxxxxx |xxxxxxxxxxxxx |xxxxxxxxxxxxx |     15930753 |     15930753 |     15930753 |xxxxxxxxxxxxx |xxxxxxxxxxxxx |xxxxxxxxxxxxx |xxxxxxxxxxxxx |     33235799 |     33235799 |     33235799 |xxxxxxxxxxxxx |xxxxxxxxxxxxx |xxxxxxxxxxxxx |xxxxxxxxxxxxx |     70199474 |     70199474 |     70199474 |xxxxxxxxxxxxx |xxxxxxxxxxxxx |xxxxxxxxxxxxx |xxxxxxxxxxxxx |    146312176 |    146312176 |    146312176 |
bpred_bimod.addr_hits                        57070 |        57072 |        57073 |xxxxxxxxxxxxx |xxxxxxxxxxxxx |xxxxxxxxxxxxx |xxxxxxxxxxxxx |       113249 |       113249 |       113252 |xxxxxxxxxxxxx |xxxxxxxxxxxxx |xxxxxxxxxxxxx |xxxxxxxxxxxxx |       250937 |       250938 |       250941 |xxxxxxxxxxxxx |xxxxxxxxxxxxx |xxxxxxxxxxxxx |xxxxxxxxxxxxx |       538625 |       538627 |       538627 |xxxxxxxxxxxxx |xxxxxxxxxxxxx |xxxxxxxxxxxxx |xxxxxxxxxxxxx |      1169798 |      1169799 |      1169799 |xxxxxxxxxxxxx |xxxxxxxxxxxxx |xxxxxxxxxxxxx |xxxxxxxxxxxxx |      2487753 |      2487754 |      2487754 |xxxxxxxxxxxxx |xxxxxxxxxxxxx |xxxxxxxxxxxxx |xxxxxxxxxxxxx |      5338167 |      5338168 |      5338168 |xxxxxxxxxxxxx |xxxxxxxxxxxxx |xxxxxxxxxxxxx |xxxxxxxxxxxxx |     11603583 |     11603584 |     11603584 |xxxxxxxxxxxxx |xxxxxxxxxxxxx |xxxxxxxxxxxxx |xxxxxxxxxxxxx |     24007557 |     24007558 |     24007558 |xxxxxxxxxxxxx |xxxxxxxxxxxxx |xxxxxxxxxxxxx |xxxxxxxxxxxxx |     51057269 |     51057270 |     51057270 |xxxxxxxxxxxxx |xxxxxxxxxxxxx |xxxxxxxxxxxxx |xxxxxxxxxxxxx |    106097498 |    106097499 |    106097499 |
bpred_bimod.dir_hits                         57178 |        57178 |        57179 |xxxxxxxxxxxxx |xxxxxxxxxxxxx |xxxxxxxxxxxxx |xxxxxxxxxxxxx |       113361 |       113359 |       113361 |xxxxxxxxxxxxx |xxxxxxxxxxxxx |xxxxxxxxxxxxx |xxxxxxxxxxxxx |       251049 |       251048 |       251051 |xxxxxxxxxxxxx |xxxxxxxxxxxxx |xxxxxxxxxxxxx |xxxxxxxxxxxxx |       538738 |       538737 |       538736 |xxxxxxxxxxxxx |xxxxxxxxxxxxx |xxxxxxxxxxxxx |xxxxxxxxxxxxx |      1169910 |      1169907 |      1169906 |xxxxxxxxxxxxx |xxxxxxxxxxxxx |xxxxxxxxxxxxx |xxxxxxxxxxxxx |      2487867 |      2487864 |      2487863 |xxxxxxxxxxxxx |xxxxxxxxxxxxx |xxxxxxxxxxxxx |xxxxxxxxxxxxx |      5338279 |      5338276 |      5338275 |xxxxxxxxxxxxx |xxxxxxxxxxxxx |xxxxxxxxxxxxx |xxxxxxxxxxxxx |     11603695 |     11603692 |     11603691 |xxxxxxxxxxxxx |xxxxxxxxxxxxx |xxxxxxxxxxxxx |xxxxxxxxxxxxx |     24007670 |     24007667 |     24007666 |xxxxxxxxxxxxx |xxxxxxxxxxxxx |xxxxxxxxxxxxx |xxxxxxxxxxxxx |     51057382 |     51057379 |     51057378 |xxxxxxxxxxxxx |xxxxxxxxxxxxx |xxxxxxxxxxxxx |xxxxxxxxxxxxx |    106097611 |    106097608 |    106097607 |
bpred_bimod.misses                           21553 |        21553 |        21552 |xxxxxxxxxxxxx |xxxxxxxxxxxxx |xxxxxxxxxxxxx |xxxxxxxxxxxxx |        48473 |        48475 |        48473 |xxxxxxxxxxxxx |xxxxxxxxxxxxx |xxxxxxxxxxxxx |xxxxxxxxxxxxx |       102145 |       102146 |       102143 |xxxxxxxxxxxxx |xxxxxxxxxxxxx |xxxxxxxxxxxxx |xxxxxxxxxxxxx |       220320 |       220321 |       220322 |xxxxxxxxxxxxx |xxxxxxxxxxxxx |xxxxxxxxxxxxx |xxxxxxxxxxxxx |       463738 |       463741 |       463742 |xxxxxxxxxxxxx |xxxxxxxxxxxxx |xxxxxxxxxxxxx |xxxxxxxxxxxxx |       982239 |       982242 |       982243 |xxxxxxxxxxxxx |xxxxxxxxxxxxx |xxxxxxxxxxxxx |xxxxxxxxxxxxx |      2082016 |      2082019 |      2082020 |xxxxxxxxxxxxx |xxxxxxxxxxxxx |xxxxxxxxxxxxx |xxxxxxxxxxxxx |      4327058 |      4327061 |      4327062 |xxxxxxxxxxxxx |xxxxxxxxxxxxx |xxxxxxxxxxxxx |xxxxxxxxxxxxx |      9228129 |      9228132 |      9228133 |xxxxxxxxxxxxx |xxxxxxxxxxxxx |xxxxxxxxxxxxx |xxxxxxxxxxxxx |     19142092 |     19142095 |     19142096 |xxxxxxxxxxxxx |xxxxxxxxxxxxx |xxxxxxxxxxxxx |xxxxxxxxxxxxx |     40214565 |     40214568 |     40214569 |
bpred_bimod.jr_hits                             64 |           64 |           64 |xxxxxxxxxxxxx |xxxxxxxxxxxxx |xxxxxxxxxxxxx |xxxxxxxxxxxxx |           64 |           64 |           64 |xxxxxxxxxxxxx |xxxxxxxxxxxxx |xxxxxxxxxxxxx |xxxxxxxxxxxxx |           64 |           64 |           64 |xxxxxxxxxxxxx |xxxxxxxxxxxxx |xxxxxxxxxxxxx |xxxxxxxxxxxxx |           64 |           64 |           64 |xxxxxxxxxxxxx |xxxxxxxxxxxxx |xxxxxxxxxxxxx |xxxxxxxxxxxxx |           64 |           64 |           64 |xxxxxxxxxxxxx |xxxxxxxxxxxxx |xxxxxxxxxxxxx |xxxxxxxxxxxxx |           64 |           64 |           64 |xxxxxxxxxxxxx |xxxxxxxxxxxxx |xxxxxxxxxxxxx |xxxxxxxxxxxxx |           64 |           64 |           64 |xxxxxxxxxxxxx |xxxxxxxxxxxxx |xxxxxxxxxxxxx |xxxxxxxxxxxxx |           64 |           64 |           64 |xxxxxxxxxxxxx |xxxxxxxxxxxxx |xxxxxxxxxxxxx |xxxxxxxxxxxxx |           64 |           64 |           64 |xxxxxxxxxxxxx |xxxxxxxxxxxxx |xxxxxxxxxxxxx |xxxxxxxxxxxxx |           64 |           64 |           64 |xxxxxxxxxxxxx |xxxxxxxxxxxxx |xxxxxxxxxxxxx |xxxxxxxxxxxxx |           64 |           64 |           64 |
bpred_bimod.jr_seen                             64 |           64 |           64 |xxxxxxxxxxxxx |xxxxxxxxxxxxx |xxxxxxxxxxxxx |xxxxxxxxxxxxx |           64 |           64 |           64 |xxxxxxxxxxxxx |xxxxxxxxxxxxx |xxxxxxxxxxxxx |xxxxxxxxxxxxx |           64 |           64 |           64 |xxxxxxxxxxxxx |xxxxxxxxxxxxx |xxxxxxxxxxxxx |xxxxxxxxxxxxx |           64 |           64 |           64 |xxxxxxxxxxxxx |xxxxxxxxxxxxx |xxxxxxxxxxxxx |xxxxxxxxxxxxx |           64 |           64 |           64 |xxxxxxxxxxxxx |xxxxxxxxxxxxx |xxxxxxxxxxxxx |xxxxxxxxxxxxx |           64 |           64 |           64 |xxxxxxxxxxxxx |xxxxxxxxxxxxx |xxxxxxxxxxxxx |xxxxxxxxxxxxx |           64 |           64 |           64 |xxxxxxxxxxxxx |xxxxxxxxxxxxx |xxxxxxxxxxxxx |xxxxxxxxxxxxx |           64 |           64 |           64 |xxxxxxxxxxxxx |xxxxxxxxxxxxx |xxxxxxxxxxxxx |xxxxxxxxxxxxx |           64 |           64 |           64 |xxxxxxxxxxxxx |xxxxxxxxxxxxx |xxxxxxxxxxxxx |xxxxxxxxxxxxx |           64 |           64 |           64 |xxxxxxxxxxxxx |xxxxxxxxxxxxx |xxxxxxxxxxxxx |xxxxxxxxxxxxx |           64 |           64 |           64 |
bpred_bimod.jr_non_ras_hits.PP                   0 |            0 |            0 |xxxxxxxxxxxxx |xxxxxxxxxxxxx |xxxxxxxxxxxxx |xxxxxxxxxxxxx |            0 |            0 |            0 |xxxxxxxxxxxxx |xxxxxxxxxxxxx |xxxxxxxxxxxxx |xxxxxxxxxxxxx |            0 |            0 |            0 |xxxxxxxxxxxxx |xxxxxxxxxxxxx |xxxxxxxxxxxxx |xxxxxxxxxxxxx |            0 |            0 |            0 |xxxxxxxxxxxxx |xxxxxxxxxxxxx |xxxxxxxxxxxxx |xxxxxxxxxxxxx |            0 |            0 |            0 |xxxxxxxxxxxxx |xxxxxxxxxxxxx |xxxxxxxxxxxxx |xxxxxxxxxxxxx |            0 |            0 |            0 |xxxxxxxxxxxxx |xxxxxxxxxxxxx |xxxxxxxxxxxxx |xxxxxxxxxxxxx |            0 |            0 |            0 |xxxxxxxxxxxxx |xxxxxxxxxxxxx |xxxxxxxxxxxxx |xxxxxxxxxxxxx |            0 |            0 |            0 |xxxxxxxxxxxxx |xxxxxxxxxxxxx |xxxxxxxxxxxxx |xxxxxxxxxxxxx |            0 |            0 |            0 |xxxxxxxxxxxxx |xxxxxxxxxxxxx |xxxxxxxxxxxxx |xxxxxxxxxxxxx |            0 |            0 |            0 |xxxxxxxxxxxxx |xxxxxxxxxxxxx |xxxxxxxxxxxxx |xxxxxxxxxxxxx |            0 |            0 |            0 |
bpred_bimod.jr_non_ras_seen.PP                   0 |            0 |            0 |xxxxxxxxxxxxx |xxxxxxxxxxxxx |xxxxxxxxxxxxx |xxxxxxxxxxxxx |            0 |            0 |            0 |xxxxxxxxxxxxx |xxxxxxxxxxxxx |xxxxxxxxxxxxx |xxxxxxxxxxxxx |            0 |            0 |            0 |xxxxxxxxxxxxx |xxxxxxxxxxxxx |xxxxxxxxxxxxx |xxxxxxxxxxxxx |            0 |            0 |            0 |xxxxxxxxxxxxx |xxxxxxxxxxxxx |xxxxxxxxxxxxx |xxxxxxxxxxxxx |            0 |            0 |            0 |xxxxxxxxxxxxx |xxxxxxxxxxxxx |xxxxxxxxxxxxx |xxxxxxxxxxxxx |            0 |            0 |            0 |xxxxxxxxxxxxx |xxxxxxxxxxxxx |xxxxxxxxxxxxx |xxxxxxxxxxxxx |            0 |            0 |            0 |xxxxxxxxxxxxx |xxxxxxxxxxxxx |xxxxxxxxxxxxx |xxxxxxxxxxxxx |            0 |            0 |            0 |xxxxxxxxxxxxx |xxxxxxxxxxxxx |xxxxxxxxxxxxx |xxxxxxxxxxxxx |            0 |            0 |            0 |xxxxxxxxxxxxx |xxxxxxxxxxxxx |xxxxxxxxxxxxx |xxxxxxxxxxxxx |            0 |            0 |            0 |xxxxxxxxxxxxx |xxxxxxxxxxxxx |xxxxxxxxxxxxx |xxxxxxxxxxxxx |            0 |            0 |            0 |
bpred_bimod.bpred_addr_rate                 0.7249 |       0.7249 |       0.7249 |xxxxxxxxxxxxx |xxxxxxxxxxxxx |xxxxxxxxxxxxx |xxxxxxxxxxxxx |       0.6998 |       0.6998 |       0.6998 |xxxxxxxxxxxxx |xxxxxxxxxxxxx |xxxxxxxxxxxxx |xxxxxxxxxxxxx |       0.7105 |       0.7105 |       0.7105 |xxxxxxxxxxxxx |xxxxxxxxxxxxx |xxxxxxxxxxxxx |xxxxxxxxxxxxx |       0.7096 |       0.7096 |       0.7096 |xxxxxxxxxxxxx |xxxxxxxxxxxxx |xxxxxxxxxxxxx |xxxxxxxxxxxxx |       0.7161 |       0.7161 |       0.7161 |xxxxxxxxxxxxx |xxxxxxxxxxxxx |xxxxxxxxxxxxx |xxxxxxxxxxxxx |       0.7169 |       0.7169 |       0.7169 |xxxxxxxxxxxxx |xxxxxxxxxxxxx |xxxxxxxxxxxxx |xxxxxxxxxxxxx |       0.7194 |       0.7194 |       0.7194 |xxxxxxxxxxxxx |xxxxxxxxxxxxx |xxxxxxxxxxxxx |xxxxxxxxxxxxx |       0.7284 |       0.7284 |       0.7284 |xxxxxxxxxxxxx |xxxxxxxxxxxxx |xxxxxxxxxxxxx |xxxxxxxxxxxxx |       0.7223 |       0.7223 |       0.7223 |xxxxxxxxxxxxx |xxxxxxxxxxxxx |xxxxxxxxxxxxx |xxxxxxxxxxxxx |       0.7273 |       0.7273 |       0.7273 |xxxxxxxxxxxxx |xxxxxxxxxxxxx |xxxxxxxxxxxxx |xxxxxxxxxxxxx |       0.7251 |       0.7251 |       0.7251 |
bpred_bimod.bpred_dir_rate                  0.7262 |       0.7262 |       0.7263 |xxxxxxxxxxxxx |xxxxxxxxxxxxx |xxxxxxxxxxxxx |xxxxxxxxxxxxx |       0.7005 |       0.7005 |       0.7005 |xxxxxxxxxxxxx |xxxxxxxxxxxxx |xxxxxxxxxxxxx |xxxxxxxxxxxxx |       0.7108 |       0.7108 |       0.7108 |xxxxxxxxxxxxx |xxxxxxxxxxxxx |xxxxxxxxxxxxx |xxxxxxxxxxxxx |       0.7097 |       0.7097 |       0.7097 |xxxxxxxxxxxxx |xxxxxxxxxxxxx |xxxxxxxxxxxxx |xxxxxxxxxxxxx |       0.7161 |       0.7161 |       0.7161 |xxxxxxxxxxxxx |xxxxxxxxxxxxx |xxxxxxxxxxxxx |xxxxxxxxxxxxx |       0.7169 |       0.7169 |       0.7169 |xxxxxxxxxxxxx |xxxxxxxxxxxxx |xxxxxxxxxxxxx |xxxxxxxxxxxxx |       0.7194 |       0.7194 |       0.7194 |xxxxxxxxxxxxx |xxxxxxxxxxxxx |xxxxxxxxxxxxx |xxxxxxxxxxxxx |       0.7284 |       0.7284 |       0.7284 |xxxxxxxxxxxxx |xxxxxxxxxxxxx |xxxxxxxxxxxxx |xxxxxxxxxxxxx |       0.7223 |       0.7223 |       0.7223 |xxxxxxxxxxxxx |xxxxxxxxxxxxx |xxxxxxxxxxxxx |xxxxxxxxxxxxx |       0.7273 |       0.7273 |       0.7273 |xxxxxxxxxxxxx |xxxxxxxxxxxxx |xxxxxxxxxxxxx |xxxxxxxxxxxxx |       0.7251 |       0.7251 |       0.7251 |
bpred_bimod.bpred_jr_rate                   1.0000 |       1.0000 |       1.0000 |xxxxxxxxxxxxx |xxxxxxxxxxxxx |xxxxxxxxxxxxx |xxxxxxxxxxxxx |       1.0000 |       1.0000 |       1.0000 |xxxxxxxxxxxxx |xxxxxxxxxxxxx |xxxxxxxxxxxxx |xxxxxxxxxxxxx |       1.0000 |       1.0000 |       1.0000 |xxxxxxxxxxxxx |xxxxxxxxxxxxx |xxxxxxxxxxxxx |xxxxxxxxxxxxx |       1.0000 |       1.0000 |       1.0000 |xxxxxxxxxxxxx |xxxxxxxxxxxxx |xxxxxxxxxxxxx |xxxxxxxxxxxxx |       1.0000 |       1.0000 |       1.0000 |xxxxxxxxxxxxx |xxxxxxxxxxxxx |xxxxxxxxxxxxx |xxxxxxxxxxxxx |       1.0000 |       1.0000 |       1.0000 |xxxxxxxxxxxxx |xxxxxxxxxxxxx |xxxxxxxxxxxxx |xxxxxxxxxxxxx |       1.0000 |       1.0000 |       1.0000 |xxxxxxxxxxxxx |xxxxxxxxxxxxx |xxxxxxxxxxxxx |xxxxxxxxxxxxx |       1.0000 |       1.0000 |       1.0000 |xxxxxxxxxxxxx |xxxxxxxxxxxxx |xxxxxxxxxxxxx |xxxxxxxxxxxxx |       1.0000 |       1.0000 |       1.0000 |xxxxxxxxxxxxx |xxxxxxxxxxxxx |xxxxxxxxxxxxx |xxxxxxxxxxxxx |       1.0000 |       1.0000 |       1.0000 |xxxxxxxxxxxxx |xxxxxxxxxxxxx |xxxxxxxxxxxxx |xxxxxxxxxxxxx |       1.0000 |       1.0000 |       1.0000 |
bpred_bimod.bpred_jr_non_ras_rate.PP       <error: |      <error: |      <error: |xxxxxxxxxxxxx |xxxxxxxxxxxxx |xxxxxxxxxxxxx |xxxxxxxxxxxxx |      <error: |      <error: |      <error: |xxxxxxxxxxxxx |xxxxxxxxxxxxx |xxxxxxxxxxxxx |xxxxxxxxxxxxx |      <error: |      <error: |      <error: |xxxxxxxxxxxxx |xxxxxxxxxxxxx |xxxxxxxxxxxxx |xxxxxxxxxxxxx |      <error: |      <error: |      <error: |xxxxxxxxxxxxx |xxxxxxxxxxxxx |xxxxxxxxxxxxx |xxxxxxxxxxxxx |      <error: |      <error: |      <error: |xxxxxxxxxxxxx |xxxxxxxxxxxxx |xxxxxxxxxxxxx |xxxxxxxxxxxxx |      <error: |      <error: |      <error: |xxxxxxxxxxxxx |xxxxxxxxxxxxx |xxxxxxxxxxxxx |xxxxxxxxxxxxx |      <error: |      <error: |      <error: |xxxxxxxxxxxxx |xxxxxxxxxxxxx |xxxxxxxxxxxxx |xxxxxxxxxxxxx |      <error: |      <error: |      <error: |xxxxxxxxxxxxx |xxxxxxxxxxxxx |xxxxxxxxxxxxx |xxxxxxxxxxxxx |      <error: |      <error: |      <error: |xxxxxxxxxxxxx |xxxxxxxxxxxxx |xxxxxxxxxxxxx |xxxxxxxxxxxxx |      <error: |      <error: |      <error: |xxxxxxxxxxxxx |xxxxxxxxxxxxx |xxxxxxxxxxxxx |xxxxxxxxxxxxx |      <error: |      <error: |      <error: |
bpred_bimod.retstack_pushes                     66 |           66 |           66 |xxxxxxxxxxxxx |xxxxxxxxxxxxx |xxxxxxxxxxxxx |xxxxxxxxxxxxx |           66 |           66 |           66 |xxxxxxxxxxxxx |xxxxxxxxxxxxx |xxxxxxxxxxxxx |xxxxxxxxxxxxx |           66 |           66 |           66 |xxxxxxxxxxxxx |xxxxxxxxxxxxx |xxxxxxxxxxxxx |xxxxxxxxxxxxx |           66 |           66 |           66 |xxxxxxxxxxxxx |xxxxxxxxxxxxx |xxxxxxxxxxxxx |xxxxxxxxxxxxx |           66 |           66 |           66 |xxxxxxxxxxxxx |xxxxxxxxxxxxx |xxxxxxxxxxxxx |xxxxxxxxxxxxx |           66 |           66 |           66 |xxxxxxxxxxxxx |xxxxxxxxxxxxx |xxxxxxxxxxxxx |xxxxxxxxxxxxx |           66 |           66 |           66 |xxxxxxxxxxxxx |xxxxxxxxxxxxx |xxxxxxxxxxxxx |xxxxxxxxxxxxx |           66 |           66 |           66 |xxxxxxxxxxxxx |xxxxxxxxxxxxx |xxxxxxxxxxxxx |xxxxxxxxxxxxx |           66 |           66 |           66 |xxxxxxxxxxxxx |xxxxxxxxxxxxx |xxxxxxxxxxxxx |xxxxxxxxxxxxx |           66 |           66 |           66 |xxxxxxxxxxxxx |xxxxxxxxxxxxx |xxxxxxxxxxxxx |xxxxxxxxxxxxx |           66 |           66 |           66 |
bpred_bimod.retstack_pops                       64 |           64 |           64 |xxxxxxxxxxxxx |xxxxxxxxxxxxx |xxxxxxxxxxxxx |xxxxxxxxxxxxx |           64 |           64 |           64 |xxxxxxxxxxxxx |xxxxxxxxxxxxx |xxxxxxxxxxxxx |xxxxxxxxxxxxx |           64 |           64 |           64 |xxxxxxxxxxxxx |xxxxxxxxxxxxx |xxxxxxxxxxxxx |xxxxxxxxxxxxx |           64 |           64 |           64 |xxxxxxxxxxxxx |xxxxxxxxxxxxx |xxxxxxxxxxxxx |xxxxxxxxxxxxx |           64 |           64 |           64 |xxxxxxxxxxxxx |xxxxxxxxxxxxx |xxxxxxxxxxxxx |xxxxxxxxxxxxx |           64 |           64 |           64 |xxxxxxxxxxxxx |xxxxxxxxxxxxx |xxxxxxxxxxxxx |xxxxxxxxxxxxx |           64 |           64 |           64 |xxxxxxxxxxxxx |xxxxxxxxxxxxx |xxxxxxxxxxxxx |xxxxxxxxxxxxx |           64 |           64 |           64 |xxxxxxxxxxxxx |xxxxxxxxxxxxx |xxxxxxxxxxxxx |xxxxxxxxxxxxx |           64 |           64 |           64 |xxxxxxxxxxxxx |xxxxxxxxxxxxx |xxxxxxxxxxxxx |xxxxxxxxxxxxx |           64 |           64 |           64 |xxxxxxxxxxxxx |xxxxxxxxxxxxx |xxxxxxxxxxxxx |xxxxxxxxxxxxx |           64 |           64 |           64 |
bpred_bimod.used_ras.PP                         64 |           64 |           64 |xxxxxxxxxxxxx |xxxxxxxxxxxxx |xxxxxxxxxxxxx |xxxxxxxxxxxxx |           64 |           64 |           64 |xxxxxxxxxxxxx |xxxxxxxxxxxxx |xxxxxxxxxxxxx |xxxxxxxxxxxxx |           64 |           64 |           64 |xxxxxxxxxxxxx |xxxxxxxxxxxxx |xxxxxxxxxxxxx |xxxxxxxxxxxxx |           64 |           64 |           64 |xxxxxxxxxxxxx |xxxxxxxxxxxxx |xxxxxxxxxxxxx |xxxxxxxxxxxxx |           64 |           64 |           64 |xxxxxxxxxxxxx |xxxxxxxxxxxxx |xxxxxxxxxxxxx |xxxxxxxxxxxxx |           64 |           64 |           64 |xxxxxxxxxxxxx |xxxxxxxxxxxxx |xxxxxxxxxxxxx |xxxxxxxxxxxxx |           64 |           64 |           64 |xxxxxxxxxxxxx |xxxxxxxxxxxxx |xxxxxxxxxxxxx |xxxxxxxxxxxxx |           64 |           64 |           64 |xxxxxxxxxxxxx |xxxxxxxxxxxxx |xxxxxxxxxxxxx |xxxxxxxxxxxxx |           64 |           64 |           64 |xxxxxxxxxxxxx |xxxxxxxxxxxxx |xxxxxxxxxxxxx |xxxxxxxxxxxxx |           64 |           64 |           64 |xxxxxxxxxxxxx |xxxxxxxxxxxxx |xxxxxxxxxxxxx |xxxxxxxxxxxxx |           64 |           64 |           64 |
bpred_bimod.ras_hits.PP                         64 |           64 |           64 |xxxxxxxxxxxxx |xxxxxxxxxxxxx |xxxxxxxxxxxxx |xxxxxxxxxxxxx |           64 |           64 |           64 |xxxxxxxxxxxxx |xxxxxxxxxxxxx |xxxxxxxxxxxxx |xxxxxxxxxxxxx |           64 |           64 |           64 |xxxxxxxxxxxxx |xxxxxxxxxxxxx |xxxxxxxxxxxxx |xxxxxxxxxxxxx |           64 |           64 |           64 |xxxxxxxxxxxxx |xxxxxxxxxxxxx |xxxxxxxxxxxxx |xxxxxxxxxxxxx |           64 |           64 |           64 |xxxxxxxxxxxxx |xxxxxxxxxxxxx |xxxxxxxxxxxxx |xxxxxxxxxxxxx |           64 |           64 |           64 |xxxxxxxxxxxxx |xxxxxxxxxxxxx |xxxxxxxxxxxxx |xxxxxxxxxxxxx |           64 |           64 |           64 |xxxxxxxxxxxxx |xxxxxxxxxxxxx |xxxxxxxxxxxxx |xxxxxxxxxxxxx |           64 |           64 |           64 |xxxxxxxxxxxxx |xxxxxxxxxxxxx |xxxxxxxxxxxxx |xxxxxxxxxxxxx |           64 |           64 |           64 |xxxxxxxxxxxxx |xxxxxxxxxxxxx |xxxxxxxxxxxxx |xxxxxxxxxxxxx |           64 |           64 |           64 |xxxxxxxxxxxxx |xxxxxxxxxxxxx |xxxxxxxxxxxxx |xxxxxxxxxxxxx |           64 |           64 |           64 |
bpred_bimod.ras_rate.PP                     1.0000 |       1.0000 |       1.0000 |xxxxxxxxxxxxx |xxxxxxxxxxxxx |xxxxxxxxxxxxx |xxxxxxxxxxxxx |       1.0000 |       1.0000 |       1.0000 |xxxxxxxxxxxxx |xxxxxxxxxxxxx |xxxxxxxxxxxxx |xxxxxxxxxxxxx |       1.0000 |       1.0000 |       1.0000 |xxxxxxxxxxxxx |xxxxxxxxxxxxx |xxxxxxxxxxxxx |xxxxxxxxxxxxx |       1.0000 |       1.0000 |       1.0000 |xxxxxxxxxxxxx |xxxxxxxxxxxxx |xxxxxxxxxxxxx |xxxxxxxxxxxxx |       1.0000 |       1.0000 |       1.0000 |xxxxxxxxxxxxx |xxxxxxxxxxxxx |xxxxxxxxxxxxx |xxxxxxxxxxxxx |       1.0000 |       1.0000 |       1.0000 |xxxxxxxxxxxxx |xxxxxxxxxxxxx |xxxxxxxxxxxxx |xxxxxxxxxxxxx |       1.0000 |       1.0000 |       1.0000 |xxxxxxxxxxxxx |xxxxxxxxxxxxx |xxxxxxxxxxxxx |xxxxxxxxxxxxx |       1.0000 |       1.0000 |       1.0000 |xxxxxxxxxxxxx |xxxxxxxxxxxxx |xxxxxxxxxxxxx |xxxxxxxxxxxxx |       1.0000 |       1.0000 |       1.0000 |xxxxxxxxxxxxx |xxxxxxxxxxxxx |xxxxxxxxxxxxx |xxxxxxxxxxxxx |       1.0000 |       1.0000 |       1.0000 |xxxxxxxxxxxxx |xxxxxxxxxxxxx |xxxxxxxxxxxxx |xxxxxxxxxxxxx |       1.0000 |       1.0000 |       1.0000 |
bpred_2lev.lookups                   xxxxxxxxxxxxx |xxxxxxxxxxxxx |xxxxxxxxxxxxx |        78731 |        78731 |        78731 |        78731 |xxxxxxxxxxxxx |xxxxxxxxxxxxx |xxxxxxxxxxxxx |       161834 |       161834 |       161834 |       161834 |xxxxxxxxxxxxx |xxxxxxxxxxxxx |xxxxxxxxxxxxx |       353194 |       353194 |       353194 |       353194 |xxxxxxxxxxxxx |xxxxxxxxxxxxx |xxxxxxxxxxxxx |       759058 |       759058 |       759058 |       759058 |xxxxxxxxxxxxx |xxxxxxxxxxxxx |xxxxxxxxxxxxx |      1633648 |      1633648 |      1633648 |      1633648 |xxxxxxxxxxxxx |xxxxxxxxxxxxx |xxxxxxxxxxxxx |      3470106 |      3470106 |      3470106 |      3470106 |xxxxxxxxxxxxx |xxxxxxxxxxxxx |xxxxxxxxxxxxx |      7420295 |      7420295 |      7420295 |      7420295 |xxxxxxxxxxxxx |xxxxxxxxxxxxx |xxxxxxxxxxxxx |     15930753 |     15930753 |     15930753 |     15930753 |xxxxxxxxxxxxx |xxxxxxxxxxxxx |xxxxxxxxxxxxx |     33235799 |     33235799 |     33235799 |     33235799 |xxxxxxxxxxxxx |xxxxxxxxxxxxx |xxxxxxxxxxxxx |     70199474 |     70199474 |     70199474 |     70199474 |xxxxxxxxxxxxx |xxxxxxxxxxxxx |xxxxxxxxxxxxx |    146312176 |    146312176 |    146312176 |    146312176 |
[...]
bpred_2lev.retstack_pushes           xxxxxxxxxxxxx |xxxxxxxxxxxxx |xxxxxxxxxxxxx |           66 |           66 |           66 |           66 |xxxxxxxxxxxxx |xxxxxxxxxxxxx |xxxxxxxxxxxxx |           66 |           66 |           66 |           66 |xxxxxxxxxxxxx |xxxxxxxxxxxxx |xxxxxxxxxxxxx |           66 |           66 |           66 |           66 |xxxxxxxxxxxxx |xxxxxxxxxxxxx |xxxxxxxxxxxxx |           66 |           66 |           66 |           66 |xxxxxxxxxxxxx |xxxxxxxxxxxxx |xxxxxxxxxxxxx |           66 |           66 |           66 |           66 |xxxxxxxxxxxxx |xxxxxxxxxxxxx |xxxxxxxxxxxxx |           66 |           66 |           66 |           66 |xxxxxxxxxxxxx |xxxxxxxxxxxxx |xxxxxxxxxxxxx |           66 |           66 |           66 |           66 |xxxxxxxxxxxxx |xxxxxxxxxxxxx |xxxxxxxxxxxxx |           66 |           66 |           66 |           66 |xxxxxxxxxxxxx |xxxxxxxxxxxxx |xxxxxxxxxxxxx |           66 |           66 |           66 |           66 |xxxxxxxxxxxxx |xxxxxxxxxxxxx |xxxxxxxxxxxxx |           66 |           66 |           66 |           66 |xxxxxxxxxxxxx |xxxxxxxxxxxxx |xxxxxxxxxxxxx |           66 |           66 |           66 |           66 |
bpred_2lev.retstack_pops             xxxxxxxxxxxxx |xxxxxxxxxxxxx |xxxxxxxxxxxxx |           64 |           64 |           64 |           64 |xxxxxxxxxxxxx |xxxxxxxxxxxxx |xxxxxxxxxxxxx |           64 |           64 |           64 |           64 |xxxxxxxxxxxxx |xxxxxxxxxxxxx |xxxxxxxxxxxxx |           64 |           64 |           64 |           64 |xxxxxxxxxxxxx |xxxxxxxxxxxxx |xxxxxxxxxxxxx |           64 |           64 |           64 |           64 |xxxxxxxxxxxxx |xxxxxxxxxxxxx |xxxxxxxxxxxxx |           64 |           64 |           64 |           64 |xxxxxxxxxxxxx |xxxxxxxxxxxxx |xxxxxxxxxxxxx |           64 |           64 |           64 |           64 |xxxxxxxxxxxxx |xxxxxxxxxxxxx |xxxxxxxxxxxxx |           64 |           64 |           64 |           64 |xxxxxxxxxxxxx |xxxxxxxxxxxxx |xxxxxxxxxxxxx |           64 |           64 |           64 |           64 |xxxxxxxxxxxxx |xxxxxxxxxxxxx |xxxxxxxxxxxxx |           64 |           64 |           64 |           64 |xxxxxxxxxxxxx |xxxxxxxxxxxxx |xxxxxxxxxxxxx |           64 |           64 |           64 |           64 |xxxxxxxxxxxxx |xxxxxxxxxxxxx |xxxxxxxxxxxxx |           64 |           64 |           64 |           64 |
bpred_2lev.used_ras.PP               xxxxxxxxxxxxx |xxxxxxxxxxxxx |xxxxxxxxxxxxx |           64 |           64 |           64 |           64 |xxxxxxxxxxxxx |xxxxxxxxxxxxx |xxxxxxxxxxxxx |           64 |           64 |           64 |           64 |xxxxxxxxxxxxx |xxxxxxxxxxxxx |xxxxxxxxxxxxx |           64 |           64 |           64 |           64 |xxxxxxxxxxxxx |xxxxxxxxxxxxx |xxxxxxxxxxxxx |           64 |           64 |           64 |           64 |xxxxxxxxxxxxx |xxxxxxxxxxxxx |xxxxxxxxxxxxx |           64 |           64 |           64 |           64 |xxxxxxxxxxxxx |xxxxxxxxxxxxx |xxxxxxxxxxxxx |           64 |           64 |           64 |           64 |xxxxxxxxxxxxx |xxxxxxxxxxxxx |xxxxxxxxxxxxx |           64 |           64 |           64 |           64 |xxxxxxxxxxxxx |xxxxxxxxxxxxx |xxxxxxxxxxxxx |           64 |           64 |           64 |           64 |xxxxxxxxxxxxx |xxxxxxxxxxxxx |xxxxxxxxxxxxx |           64 |           64 |           64 |           64 |xxxxxxxxxxxxx |xxxxxxxxxxxxx |xxxxxxxxxxxxx |           64 |           64 |           64 |           64 |xxxxxxxxxxxxx |xxxxxxxxxxxxx |xxxxxxxxxxxxx |           64 |           64 |           64 |           64 |
bpred_2lev.ras_hits.PP               xxxxxxxxxxxxx |xxxxxxxxxxxxx |xxxxxxxxxxxxx |           64 |           64 |           64 |           64 |xxxxxxxxxxxxx |xxxxxxxxxxxxx |xxxxxxxxxxxxx |           64 |           64 |           64 |           64 |xxxxxxxxxxxxx |xxxxxxxxxxxxx |xxxxxxxxxxxxx |           64 |           64 |           64 |           64 |xxxxxxxxxxxxx |xxxxxxxxxxxxx |xxxxxxxxxxxxx |           64 |           64 |           64 |           64 |xxxxxxxxxxxxx |xxxxxxxxxxxxx |xxxxxxxxxxxxx |           64 |           64 |           64 |           64 |xxxxxxxxxxxxx |xxxxxxxxxxxxx |xxxxxxxxxxxxx |           64 |           64 |           64 |           64 |xxxxxxxxxxxxx |xxxxxxxxxxxxx |xxxxxxxxxxxxx |           64 |           64 |           64 |           64 |xxxxxxxxxxxxx |xxxxxxxxxxxxx |xxxxxxxxxxxxx |           64 |           64 |           64 |           64 |xxxxxxxxxxxxx |xxxxxxxxxxxxx |xxxxxxxxxxxxx |           64 |           64 |           64 |           64 |xxxxxxxxxxxxx |xxxxxxxxxxxxx |xxxxxxxxxxxxx |           64 |           64 |           64 |           64 |xxxxxxxxxxxxx |xxxxxxxxxxxxx |xxxxxxxxxxxxx |           64 |           64 |           64 |           64 |
bpred_2lev.ras_rate.PP               xxxxxxxxxxxxx |xxxxxxxxxxxxx |xxxxxxxxxxxxx |       1.0000 |       1.0000 |       1.0000 |       1.0000 |xxxxxxxxxxxxx |xxxxxxxxxxxxx |xxxxxxxxxxxxx |       1.0000 |       1.0000 |       1.0000 |       1.0000 |xxxxxxxxxxxxx |xxxxxxxxxxxxx |xxxxxxxxxxxxx |       1.0000 |       1.0000 |       1.0000 |       1.0000 |xxxxxxxxxxxxx |xxxxxxxxxxxxx |xxxxxxxxxxxxx |       1.0000 |       1.0000 |       1.0000 |       1.0000 |xxxxxxxxxxxxx |xxxxxxxxxxxxx |xxxxxxxxxxxxx |       1.0000 |       1.0000 |       1.0000 |       1.0000 |xxxxxxxxxxxxx |xxxxxxxxxxxxx |xxxxxxxxxxxxx |       1.0000 |       1.0000 |       1.0000 |       1.0000 |xxxxxxxxxxxxx |xxxxxxxxxxxxx |xxxxxxxxxxxxx |       1.0000 |       1.0000 |       1.0000 |       1.0000 |xxxxxxxxxxxxx |xxxxxxxxxxxxx |xxxxxxxxxxxxx |       1.0000 |       1.0000 |       1.0000 |       1.0000 |xxxxxxxxxxxxx |xxxxxxxxxxxxx |xxxxxxxxxxxxx |       1.0000 |       1.0000 |       1.0000 |       1.0000 |xxxxxxxxxxxxx |xxxxxxxxxxxxx |xxxxxxxxxxxxx |       1.0000 |       1.0000 |       1.0000 |       1.0000 |xxxxxxxxxxxxx |xxxxxxxxxxxxx |xxxxxxxxxxxxx |       1.0000 |       1.0000 |       1.0000 |       1.0000 |

Command list: 
	sslittle-na-sstrix-gcc -Wall -O3 -funroll-loops -finline-functions  -DRANDOM_SIZE=4096 -DOFFSET=4 -DSORT=base_quicksort sorts/base_quicksort1968296512.c simpleMain.c -o base_quicksort653910625
	sim-cache -cache:dl1 dl1:256:32:1:l -cache:dl2 dl2:131072:32:1:l -cache:il1 il1:256:32:1:l -cache:il2 dl2 base_quicksort653910625
	sim-cache -cache:dl1 dl1:256:32:1:l -cache:dl2 dl2:65536:32:1:l -cache:il1 il1:256:32:1:l -cache:il2 dl2 base_quicksort653910625
	sim-cache -cache:dl1 dl1:1:32:256:l -cache:dl2 dl2:1:32:131072:l -cache:il1 il1:1:32:256:l -cache:il2 dl2 base_quicksort653910625
	sim-cache -cache:dl1 dl1:1:32:256:l -cache:dl2 dl2:1:32:65536:l -cache:il1 il1:1:32:256:l -cache:il2 dl2 base_quicksort653910625
	sim-bpred -bpred bimod -bpred:bimod 512 base_quicksort653910625
	sim-bpred -bpred bimod -bpred:bimod 1024 base_quicksort653910625
	sim-bpred -bpred bimod -bpred:bimod 2048 base_quicksort653910625
	sim-bpred -bpred 2lev -bpred:2lev 1 512 10 1 base_quicksort653910625
	sim-bpred -bpred 2lev -bpred:2lev 1 1024 10 1 base_quicksort653910625
	sim-bpred -bpred 2lev -bpred:2lev 1 2048 10 1 base_quicksort653910625
	sim-bpred -bpred 2lev -bpred:2lev 1 4096 10 1 base_quicksort653910625
	sslittle-na-sstrix-gcc -Wall -O3 -funroll-loops -finline-functions  -DRANDOM_SIZE=8192 -DOFFSET=4 -DSORT=base_quicksort sorts/base_quicksort1968296512.c simpleMain.c -o base_quicksort653910625
	sim-cache -cache:dl1 dl1:256:32:1:l -cache:dl2 dl2:131072:32:1:l -cache:il1 il1:256:32:1:l -cache:il2 dl2 base_quicksort653910625
	sim-cache -cache:dl1 dl1:256:32:1:l -cache:dl2 dl2:65536:32:1:l -cache:il1 il1:256:32:1:l -cache:il2 dl2 base_quicksort653910625
	sim-cache -cache:dl1 dl1:1:32:256:l -cache:dl2 dl2:1:32:131072:l -cache:il1 il1:1:32:256:l -cache:il2 dl2 base_quicksort653910625
	sim-cache -cache:dl1 dl1:1:32:256:l -cache:dl2 dl2:1:32:65536:l -cache:il1 il1:1:32:256:l -cache:il2 dl2 base_quicksort653910625
	sim-bpred -bpred bimod -bpred:bimod 512 base_quicksort653910625
	sim-bpred -bpred bimod -bpred:bimod 1024 base_quicksort653910625
	sim-bpred -bpred bimod -bpred:bimod 2048 base_quicksort653910625
	sim-bpred -bpred 2lev -bpred:2lev 1 512 10 1 base_quicksort653910625
	sim-bpred -bpred 2lev -bpred:2lev 1 1024 10 1 base_quicksort653910625
	sim-bpred -bpred 2lev -bpred:2lev 1 2048 10 1 base_quicksort653910625
	sim-bpred -bpred 2lev -bpred:2lev 1 4096 10 1 base_quicksort653910625
	sslittle-na-sstrix-gcc -Wall -O3 -funroll-loops -finline-functions  -DRANDOM_SIZE=16384 -DOFFSET=4 -DSORT=base_quicksort sorts/base_quicksort1968296512.c simpleMain.c -o base_quicksort653910625
	sim-cache -cache:dl1 dl1:256:32:1:l -cache:dl2 dl2:131072:32:1:l -cache:il1 il1:256:32:1:l -cache:il2 dl2 base_quicksort653910625
	sim-cache -cache:dl1 dl1:256:32:1:l -cache:dl2 dl2:65536:32:1:l -cache:il1 il1:256:32:1:l -cache:il2 dl2 base_quicksort653910625
	sim-cache -cache:dl1 dl1:1:32:256:l -cache:dl2 dl2:1:32:131072:l -cache:il1 il1:1:32:256:l -cache:il2 dl2 base_quicksort653910625
	sim-cache -cache:dl1 dl1:1:32:256:l -cache:dl2 dl2:1:32:65536:l -cache:il1 il1:1:32:256:l -cache:il2 dl2 base_quicksort653910625
	sim-bpred -bpred bimod -bpred:bimod 512 base_quicksort653910625
	sim-bpred -bpred bimod -bpred:bimod 1024 base_quicksort653910625
	sim-bpred -bpred bimod -bpred:bimod 2048 base_quicksort653910625
	sim-bpred -bpred 2lev -bpred:2lev 1 512 10 1 base_quicksort653910625
	sim-bpred -bpred 2lev -bpred:2lev 1 1024 10 1 base_quicksort653910625
	sim-bpred -bpred 2lev -bpred:2lev 1 2048 10 1 base_quicksort653910625
	sim-bpred -bpred 2lev -bpred:2lev 1 4096 10 1 base_quicksort653910625
	sslittle-na-sstrix-gcc -Wall -O3 -funroll-loops -finline-functions  -DRANDOM_SIZE=32768 -DOFFSET=4 -DSORT=base_quicksort sorts/base_quicksort1968296512.c simpleMain.c -o base_quicksort653910625
	sim-cache -cache:dl1 dl1:256:32:1:l -cache:dl2 dl2:131072:32:1:l -cache:il1 il1:256:32:1:l -cache:il2 dl2 base_quicksort653910625
	sim-cache -cache:dl1 dl1:256:32:1:l -cache:dl2 dl2:65536:32:1:l -cache:il1 il1:256:32:1:l -cache:il2 dl2 base_quicksort653910625
	sim-cache -cache:dl1 dl1:1:32:256:l -cache:dl2 dl2:1:32:131072:l -cache:il1 il1:1:32:256:l -cache:il2 dl2 base_quicksort653910625
	sim-cache -cache:dl1 dl1:1:32:256:l -cache:dl2 dl2:1:32:65536:l -cache:il1 il1:1:32:256:l -cache:il2 dl2 base_quicksort653910625
	sim-bpred -bpred bimod -bpred:bimod 512 base_quicksort653910625
	sim-bpred -bpred bimod -bpred:bimod 1024 base_quicksort653910625
	sim-bpred -bpred bimod -bpred:bimod 2048 base_quicksort653910625
	sim-bpred -bpred 2lev -bpred:2lev 1 512 10 1 base_quicksort653910625
	sim-bpred -bpred 2lev -bpred:2lev 1 1024 10 1 base_quicksort653910625
	sim-bpred -bpred 2lev -bpred:2lev 1 2048 10 1 base_quicksort653910625
	sim-bpred -bpred 2lev -bpred:2lev 1 4096 10 1 base_quicksort653910625
	sslittle-na-sstrix-gcc -Wall -O3 -funroll-loops -finline-functions  -DRANDOM_SIZE=65536 -DOFFSET=4 -DSORT=base_quicksort sorts/base_quicksort1968296512.c simpleMain.c -o base_quicksort653910625
	sim-cache -cache:dl1 dl1:256:32:1:l -cache:dl2 dl2:131072:32:1:l -cache:il1 il1:256:32:1:l -cache:il2 dl2 base_quicksort653910625
	sim-cache -cache:dl1 dl1:256:32:1:l -cache:dl2 dl2:65536:32:1:l -cache:il1 il1:256:32:1:l -cache:il2 dl2 base_quicksort653910625
	sim-cache -cache:dl1 dl1:1:32:256:l -cache:dl2 dl2:1:32:131072:l -cache:il1 il1:1:32:256:l -cache:il2 dl2 base_quicksort653910625
	sim-cache -cache:dl1 dl1:1:32:256:l -cache:dl2 dl2:1:32:65536:l -cache:il1 il1:1:32:256:l -cache:il2 dl2 base_quicksort653910625
	sim-bpred -bpred bimod -bpred:bimod 512 base_quicksort653910625
	sim-bpred -bpred bimod -bpred:bimod 1024 base_quicksort653910625
	sim-bpred -bpred bimod -bpred:bimod 2048 base_quicksort653910625
	sim-bpred -bpred 2lev -bpred:2lev 1 512 10 1 base_quicksort653910625
	sim-bpred -bpred 2lev -bpred:2lev 1 1024 10 1 base_quicksort653910625
	sim-bpred -bpred 2lev -bpred:2lev 1 2048 10 1 base_quicksort653910625
	sim-bpred -bpred 2lev -bpred:2lev 1 4096 10 1 base_quicksort653910625
	sslittle-na-sstrix-gcc -Wall -O3 -funroll-loops -finline-functions  -DRANDOM_SIZE=131072 -DOFFSET=4 -DSORT=base_quicksort sorts/base_quicksort1968296512.c simpleMain.c -o base_quicksort653910625
	sim-cache -cache:dl1 dl1:256:32:1:l -cache:dl2 dl2:131072:32:1:l -cache:il1 il1:256:32:1:l -cache:il2 dl2 base_quicksort653910625
	sim-cache -cache:dl1 dl1:256:32:1:l -cache:dl2 dl2:65536:32:1:l -cache:il1 il1:256:32:1:l -cache:il2 dl2 base_quicksort653910625
	sim-cache -cache:dl1 dl1:1:32:256:l -cache:dl2 dl2:1:32:131072:l -cache:il1 il1:1:32:256:l -cache:il2 dl2 base_quicksort653910625
	sim-cache -cache:dl1 dl1:1:32:256:l -cache:dl2 dl2:1:32:65536:l -cache:il1 il1:1:32:256:l -cache:il2 dl2 base_quicksort653910625
	sim-bpred -bpred bimod -bpred:bimod 512 base_quicksort653910625
	sim-bpred -bpred bimod -bpred:bimod 1024 base_quicksort653910625
	sim-bpred -bpred bimod -bpred:bimod 2048 base_quicksort653910625
	sim-bpred -bpred 2lev -bpred:2lev 1 512 10 1 base_quicksort653910625
	sim-bpred -bpred 2lev -bpred:2lev 1 1024 10 1 base_quicksort653910625
	sim-bpred -bpred 2lev -bpred:2lev 1 2048 10 1 base_quicksort653910625
	sim-bpred -bpred 2lev -bpred:2lev 1 4096 10 1 base_quicksort653910625
	sslittle-na-sstrix-gcc -Wall -O3 -funroll-loops -finline-functions  -DRANDOM_SIZE=262144 -DOFFSET=4 -DSORT=base_quicksort sorts/base_quicksort1968296512.c simpleMain.c -o base_quicksort653910625
	sim-cache -cache:dl1 dl1:256:32:1:l -cache:dl2 dl2:131072:32:1:l -cache:il1 il1:256:32:1:l -cache:il2 dl2 base_quicksort653910625
	sim-cache -cache:dl1 dl1:256:32:1:l -cache:dl2 dl2:65536:32:1:l -cache:il1 il1:256:32:1:l -cache:il2 dl2 base_quicksort653910625
	sim-cache -cache:dl1 dl1:1:32:256:l -cache:dl2 dl2:1:32:131072:l -cache:il1 il1:1:32:256:l -cache:il2 dl2 base_quicksort653910625
	sim-cache -cache:dl1 dl1:1:32:256:l -cache:dl2 dl2:1:32:65536:l -cache:il1 il1:1:32:256:l -cache:il2 dl2 base_quicksort653910625
	sim-bpred -bpred bimod -bpred:bimod 512 base_quicksort653910625
	sim-bpred -bpred bimod -bpred:bimod 1024 base_quicksort653910625
	sim-bpred -bpred bimod -bpred:bimod 2048 base_quicksort653910625
	sim-bpred -bpred 2lev -bpred:2lev 1 512 10 1 base_quicksort653910625
	sim-bpred -bpred 2lev -bpred:2lev 1 1024 10 1 base_quicksort653910625
	sim-bpred -bpred 2lev -bpred:2lev 1 2048 10 1 base_quicksort653910625
	sim-bpred -bpred 2lev -bpred:2lev 1 4096 10 1 base_quicksort653910625
	sslittle-na-sstrix-gcc -Wall -O3 -funroll-loops -finline-functions  -DRANDOM_SIZE=524288 -DOFFSET=4 -DSORT=base_quicksort sorts/base_quicksort1968296512.c simpleMain.c -o base_quicksort653910625
	sim-cache -cache:dl1 dl1:256:32:1:l -cache:dl2 dl2:131072:32:1:l -cache:il1 il1:256:32:1:l -cache:il2 dl2 base_quicksort653910625
	sim-cache -cache:dl1 dl1:256:32:1:l -cache:dl2 dl2:65536:32:1:l -cache:il1 il1:256:32:1:l -cache:il2 dl2 base_quicksort653910625
	sim-cache -cache:dl1 dl1:1:32:256:l -cache:dl2 dl2:1:32:131072:l -cache:il1 il1:1:32:256:l -cache:il2 dl2 base_quicksort653910625
	sim-cache -cache:dl1 dl1:1:32:256:l -cache:dl2 dl2:1:32:65536:l -cache:il1 il1:1:32:256:l -cache:il2 dl2 base_quicksort653910625
	sim-bpred -bpred bimod -bpred:bimod 512 base_quicksort653910625
	sim-bpred -bpred bimod -bpred:bimod 1024 base_quicksort653910625
	sim-bpred -bpred bimod -bpred:bimod 2048 base_quicksort653910625
	sim-bpred -bpred 2lev -bpred:2lev 1 512 10 1 base_quicksort653910625
	sim-bpred -bpred 2lev -bpred:2lev 1 1024 10 1 base_quicksort653910625
	sim-bpred -bpred 2lev -bpred:2lev 1 2048 10 1 base_quicksort653910625
	sim-bpred -bpred 2lev -bpred:2lev 1 4096 10 1 base_quicksort653910625
	sslittle-na-sstrix-gcc -Wall -O3 -funroll-loops -finline-functions  -DRANDOM_SIZE=1048576 -DOFFSET=4 -DSORT=base_quicksort sorts/base_quicksort1968296512.c simpleMain.c -o base_quicksort653910625
	sim-cache -cache:dl1 dl1:256:32:1:l -cache:dl2 dl2:131072:32:1:l -cache:il1 il1:256:32:1:l -cache:il2 dl2 base_quicksort653910625
	sim-cache -cache:dl1 dl1:256:32:1:l -cache:dl2 dl2:65536:32:1:l -cache:il1 il1:256:32:1:l -cache:il2 dl2 base_quicksort653910625
	sim-cache -cache:dl1 dl1:1:32:256:l -cache:dl2 dl2:1:32:131072:l -cache:il1 il1:1:32:256:l -cache:il2 dl2 base_quicksort653910625
	sim-cache -cache:dl1 dl1:1:32:256:l -cache:dl2 dl2:1:32:65536:l -cache:il1 il1:1:32:256:l -cache:il2 dl2 base_quicksort653910625
	sim-bpred -bpred bimod -bpred:bimod 512 base_quicksort653910625
	sim-bpred -bpred bimod -bpred:bimod 1024 base_quicksort653910625
	sim-bpred -bpred bimod -bpred:bimod 2048 base_quicksort653910625
	sim-bpred -bpred 2lev -bpred:2lev 1 512 10 1 base_quicksort653910625
	sim-bpred -bpred 2lev -bpred:2lev 1 1024 10 1 base_quicksort653910625
	sim-bpred -bpred 2lev -bpred:2lev 1 2048 10 1 base_quicksort653910625
	sim-bpred -bpred 2lev -bpred:2lev 1 4096 10 1 base_quicksort653910625
	sslittle-na-sstrix-gcc -Wall -O3 -funroll-loops -finline-functions  -DRANDOM_SIZE=2097152 -DOFFSET=4 -DSORT=base_quicksort sorts/base_quicksort1968296512.c simpleMain.c -o base_quicksort653910625
	sim-cache -cache:dl1 dl1:256:32:1:l -cache:dl2 dl2:131072:32:1:l -cache:il1 il1:256:32:1:l -cache:il2 dl2 base_quicksort653910625
	sim-cache -cache:dl1 dl1:256:32:1:l -cache:dl2 dl2:65536:32:1:l -cache:il1 il1:256:32:1:l -cache:il2 dl2 base_quicksort653910625
	sim-cache -cache:dl1 dl1:1:32:256:l -cache:dl2 dl2:1:32:131072:l -cache:il1 il1:1:32:256:l -cache:il2 dl2 base_quicksort653910625
	sim-cache -cache:dl1 dl1:1:32:256:l -cache:dl2 dl2:1:32:65536:l -cache:il1 il1:1:32:256:l -cache:il2 dl2 base_quicksort653910625
	sim-bpred -bpred bimod -bpred:bimod 512 base_quicksort653910625
	sim-bpred -bpred bimod -bpred:bimod 1024 base_quicksort653910625
	sim-bpred -bpred bimod -bpred:bimod 2048 base_quicksort653910625
	sim-bpred -bpred 2lev -bpred:2lev 1 512 10 1 base_quicksort653910625
	sim-bpred -bpred 2lev -bpred:2lev 1 1024 10 1 base_quicksort653910625
	sim-bpred -bpred 2lev -bpred:2lev 1 2048 10 1 base_quicksort653910625
	sim-bpred -bpred 2lev -bpred:2lev 1 4096 10 1 base_quicksort653910625
	sslittle-na-sstrix-gcc -Wall -O3 -funroll-loops -finline-functions  -DRANDOM_SIZE=4194304 -DOFFSET=4 -DSORT=base_quicksort sorts/base_quicksort1968296512.c simpleMain.c -o base_quicksort653910625
	sim-cache -cache:dl1 dl1:256:32:1:l -cache:dl2 dl2:131072:32:1:l -cache:il1 il1:256:32:1:l -cache:il2 dl2 base_quicksort653910625
	sim-cache -cache:dl1 dl1:256:32:1:l -cache:dl2 dl2:65536:32:1:l -cache:il1 il1:256:32:1:l -cache:il2 dl2 base_quicksort653910625
	sim-cache -cache:dl1 dl1:1:32:256:l -cache:dl2 dl2:1:32:131072:l -cache:il1 il1:1:32:256:l -cache:il2 dl2 base_quicksort653910625
	sim-cache -cache:dl1 dl1:1:32:256:l -cache:dl2 dl2:1:32:65536:l -cache:il1 il1:1:32:256:l -cache:il2 dl2 base_quicksort653910625
	sim-bpred -bpred bimod -bpred:bimod 512 base_quicksort653910625
	sim-bpred -bpred bimod -bpred:bimod 1024 base_quicksort653910625
	sim-bpred -bpred bimod -bpred:bimod 2048 base_quicksort653910625
	sim-bpred -bpred 2lev -bpred:2lev 1 512 10 1 base_quicksort653910625
	sim-bpred -bpred 2lev -bpred:2lev 1 1024 10 1 base_quicksort653910625
	sim-bpred -bpred 2lev -bpred:2lev 1 2048 10 1 base_quicksort653910625
	sim-bpred -bpred 2lev -bpred:2lev 1 4096 10 1 base_quicksort653910625
