Thu Jun 16 22:18:44 2005
Run as: "./do_simple -c random.org0 -o 0 base_quicksort5"
-------------------------------------------------------------------------------------------------
sim-cache                                     4096 |         4096 |         4096 |         4096 |         8192 |         8192 |         8192 |         8192 |        16384 |        16384 |        16384 |        16384 |        32768 |        32768 |        32768 |        32768 |        65536 |        65536 |        65536 |        65536 |       131072 |       131072 |       131072 |       131072 |       262144 |       262144 |       262144 |       262144 |       524288 |       524288 |       524288 |       524288 |      1048576 |      1048576 |      1048576 |      1048576 |      2097152 |      2097152 |      2097152 |      2097152 |      4194304 |      4194304 |      4194304 |      4194304 |
-cache:dl1 dl1:256:32:1:l -cache:dl2 dl2:131072:32:1:l -cache:il1 il1:256:32:1:l -cache:il2 dl2
-cache:dl1 dl1:256:32:1:l -cache:dl2 dl2:65536:32:1:l -cache:il1 il1:256:32:1:l -cache:il2 dl2
-cache:dl1 dl1:1:32:256:l -cache:dl2 dl2:1:32:131072:l -cache:il1 il1:1:32:256:l -cache:il2 dl2
-cache:dl1 dl1:1:32:256:l -cache:dl2 dl2:1:32:65536:l -cache:il1 il1:1:32:256:l -cache:il2 dl2
-------------------------------------------------------------------------------------------------
sim_num_insn                                468248 |       468248 |       468248 |       468248 |      1000605 |      1000605 |      1000605 |      1000605 |      2155454 |      2155454 |      2155454 |      2155454 |      4649879 |      4649879 |      4649879 |      4649879 |      9724170 |      9724170 |      9724170 |      9724170 |     20475597 |     20475597 |     20475597 |     20475597 |     43819239 |     43819239 |     43819239 |     43819239 |     92896386 |     92896386 |     92896386 |     92896386 |    195190529 |    195190529 |    195190529 |    195190529 |    405979155 |    405979155 |    405979155 |    405979155 |    869205332 |    869205332 |    869205332 |    869205332 |
sim_num_refs                                124477 |       124477 |       124477 |       124477 |       262953 |       262953 |       262953 |       262953 |       556271 |       556271 |       556271 |       556271 |      1188666 |      1188666 |      1188666 |      1188666 |      2486571 |      2486571 |      2486571 |      2486571 |      5220752 |      5220752 |      5220752 |      5220752 |     11061313 |     11061313 |     11061313 |     11061313 |     23312771 |     23312771 |     23312771 |     23312771 |     48791366 |     48791366 |     48791366 |     48791366 |    101570433 |    101570433 |    101570433 |    101570433 |    214852535 |    214852535 |    214852535 |    214852535 |
sim_elapsed_time                                 1 |            1 |            7 |            3 |            1 |            1 |            9 |            5 |            1 |            1 |           15 |            7 |            2 |            1 |           25 |           13 |            2 |            3 |           45 |           23 |            6 |            5 |           84 |           42 |           11 |           11 |          155 |           73 |           23 |           24 |          266 |          105 |           49 |           49 |          371 |          132 |          102 |          102 |          429 |          191 |          219 |          218 |          556 |          318 |
sim_inst_rate                          468248.0000 |  468248.0000 |   66892.5714 |  156082.6667 | 1000605.0000 | 1000605.0000 |  111178.3333 |  200121.0000 | 2155454.0000 | 2155454.0000 |  143696.9333 |  307922.0000 | 2324939.5000 | 4649879.0000 |  185995.1600 |  357683.0000 | 4862085.0000 | 3241390.0000 |  216092.6667 |  422790.0000 | 3412599.5000 | 4095119.4000 |  243757.1071 |  487514.2143 | 3983567.1818 | 3983567.1818 |  282704.7677 |  600263.5479 | 4038973.3043 | 3870682.7500 |  349234.5338 |  884727.4857 | 3983480.1837 | 3983480.1837 |  526120.0243 | 1478716.1288 | 3980187.7941 | 3980187.7941 |  946338.3566 | 2125545.3141 | 3968974.1187 | 3987180.4220 | 1563318.9424 | 2733350.1006 |
il1.accesses                                468248 |       468248 |       468248 |       468248 |      1000605 |      1000605 |      1000605 |      1000605 |      2155454 |      2155454 |      2155454 |      2155454 |      4649879 |      4649879 |      4649879 |      4649879 |      9724170 |      9724170 |      9724170 |      9724170 |     20475597 |     20475597 |     20475597 |     20475597 |     43819239 |     43819239 |     43819239 |     43819239 |     92896386 |     92896386 |     92896386 |     92896386 |    195190529 |    195190529 |    195190529 |    195190529 |    405979155 |    405979155 |    405979155 |    405979155 |    869205332 |    869205332 |    869205332 |    869205332 |
il1.hits                                    467784 |       467784 |       467820 |       467820 |      1000142 |      1000142 |      1000175 |      1000175 |      2155002 |      2155002 |      2155028 |      2155028 |      4649428 |      4649428 |      4649454 |      4649454 |      9723719 |      9723719 |      9723745 |      9723745 |     20475133 |     20475133 |     20475167 |     20475167 |     43818775 |     43818775 |     43818809 |     43818809 |     92895922 |     92895922 |     92895956 |     92895956 |    195190065 |    195190065 |    195190099 |    195190099 |    405978691 |    405978691 |    405978725 |    405978725 |    869204868 |    869204868 |    869204902 |    869204902 |
il1.misses                                     464 |          464 |          428 |          428 |          463 |          463 |          430 |          430 |          452 |          452 |          426 |          426 |          451 |          451 |          425 |          425 |          451 |          451 |          425 |          425 |          464 |          464 |          430 |          430 |          464 |          464 |          430 |          430 |          464 |          464 |          430 |          430 |          464 |          464 |          430 |          430 |          464 |          464 |          430 |          430 |          464 |          464 |          430 |          430 |
il1.replacements                               225 |          225 |          172 |          172 |          224 |          224 |          174 |          174 |          214 |          214 |          170 |          170 |          214 |          214 |          169 |          169 |          214 |          214 |          169 |          169 |          227 |          227 |          174 |          174 |          227 |          227 |          174 |          174 |          227 |          227 |          174 |          174 |          227 |          227 |          174 |          174 |          227 |          227 |          174 |          174 |          227 |          227 |          174 |          174 |
il1.writebacks                                   0 |            0 |            0 |            0 |            0 |            0 |            0 |            0 |            0 |            0 |            0 |            0 |            0 |            0 |            0 |            0 |            0 |            0 |            0 |            0 |            0 |            0 |            0 |            0 |            0 |            0 |            0 |            0 |            0 |            0 |            0 |            0 |            0 |            0 |            0 |            0 |            0 |            0 |            0 |            0 |            0 |            0 |            0 |            0 |
il1.invalidations                                0 |            0 |            0 |            0 |            0 |            0 |            0 |            0 |            0 |            0 |            0 |            0 |            0 |            0 |            0 |            0 |            0 |            0 |            0 |            0 |            0 |            0 |            0 |            0 |            0 |            0 |            0 |            0 |            0 |            0 |            0 |            0 |            0 |            0 |            0 |            0 |            0 |            0 |            0 |            0 |            0 |            0 |            0 |            0 |
il1.miss_rate                               0.0010 |       0.0010 |       0.0009 |       0.0009 |       0.0005 |       0.0005 |       0.0004 |       0.0004 |       0.0002 |       0.0002 |       0.0002 |       0.0002 |       0.0001 |       0.0001 |       0.0001 |       0.0001 |       0.0000 |       0.0000 |       0.0000 |       0.0000 |       0.0000 |       0.0000 |       0.0000 |       0.0000 |       0.0000 |       0.0000 |       0.0000 |       0.0000 |       0.0000 |       0.0000 |       0.0000 |       0.0000 |       0.0000 |       0.0000 |       0.0000 |       0.0000 |       0.0000 |       0.0000 |       0.0000 |       0.0000 |       0.0000 |       0.0000 |       0.0000 |       0.0000 |
il1.repl_rate                               0.0005 |       0.0005 |       0.0004 |       0.0004 |       0.0002 |       0.0002 |       0.0002 |       0.0002 |       0.0001 |       0.0001 |       0.0001 |       0.0001 |       0.0000 |       0.0000 |       0.0000 |       0.0000 |       0.0000 |       0.0000 |       0.0000 |       0.0000 |       0.0000 |       0.0000 |       0.0000 |       0.0000 |       0.0000 |       0.0000 |       0.0000 |       0.0000 |       0.0000 |       0.0000 |       0.0000 |       0.0000 |       0.0000 |       0.0000 |       0.0000 |       0.0000 |       0.0000 |       0.0000 |       0.0000 |       0.0000 |       0.0000 |       0.0000 |       0.0000 |       0.0000 |
il1.wb_rate                                 0.0000 |       0.0000 |       0.0000 |       0.0000 |       0.0000 |       0.0000 |       0.0000 |       0.0000 |       0.0000 |       0.0000 |       0.0000 |       0.0000 |       0.0000 |       0.0000 |       0.0000 |       0.0000 |       0.0000 |       0.0000 |       0.0000 |       0.0000 |       0.0000 |       0.0000 |       0.0000 |       0.0000 |       0.0000 |       0.0000 |       0.0000 |       0.0000 |       0.0000 |       0.0000 |       0.0000 |       0.0000 |       0.0000 |       0.0000 |       0.0000 |       0.0000 |       0.0000 |       0.0000 |       0.0000 |       0.0000 |       0.0000 |       0.0000 |       0.0000 |       0.0000 |
il1.inv_rate                                0.0000 |       0.0000 |       0.0000 |       0.0000 |       0.0000 |       0.0000 |       0.0000 |       0.0000 |       0.0000 |       0.0000 |       0.0000 |       0.0000 |       0.0000 |       0.0000 |       0.0000 |       0.0000 |       0.0000 |       0.0000 |       0.0000 |       0.0000 |       0.0000 |       0.0000 |       0.0000 |       0.0000 |       0.0000 |       0.0000 |       0.0000 |       0.0000 |       0.0000 |       0.0000 |       0.0000 |       0.0000 |       0.0000 |       0.0000 |       0.0000 |       0.0000 |       0.0000 |       0.0000 |       0.0000 |       0.0000 |       0.0000 |       0.0000 |       0.0000 |       0.0000 |
dl1.accesses                                140943 |       140943 |       140943 |       140943 |       295803 |       295803 |       295803 |       295803 |       621889 |       621889 |       621889 |       621889 |      1319820 |      1319820 |      1319820 |      1319820 |      2748797 |      2748797 |      2748797 |      2748797 |      5745122 |      5745122 |      5745122 |      5745122 |     12109971 |     12109971 |     12109971 |     12109971 |     25410005 |     25410005 |     25410005 |     25410005 |     52985752 |     52985752 |     52985752 |     52985752 |    109959123 |    109959123 |    109959123 |    109959123 |    231629833 |    231629833 |    231629833 |    231629833 |
dl1.hits                                    138106 |       138106 |       138054 |       138054 |       289862 |       289862 |       289736 |       289736 |       607604 |       607604 |       607274 |       607274 |      1286019 |      1286019 |      1286037 |      1286037 |      2676152 |      2676152 |      2676262 |      2676262 |      5585047 |      5585047 |      5585694 |      5585694 |     11738930 |     11738930 |     11741094 |     11741094 |     24577728 |     24577728 |     24582506 |     24582506 |     51173206 |     51173206 |     51188502 |     51188502 |    106096381 |    106096381 |    106137167 |    106137167 |    222833790 |    222833790 |    222930907 |    222930907 |
dl1.misses                                    2837 |         2837 |         2889 |         2889 |         5941 |         5941 |         6067 |         6067 |        14285 |        14285 |        14615 |        14615 |        33801 |        33801 |        33783 |        33783 |        72645 |        72645 |        72535 |        72535 |       160075 |       160075 |       159428 |       159428 |       371041 |       371041 |       368877 |       368877 |       832277 |       832277 |       827499 |       827499 |      1812546 |      1812546 |      1797250 |      1797250 |      3862742 |      3862742 |      3821956 |      3821956 |      8796043 |      8796043 |      8698926 |      8698926 |
dl1.replacements                              2581 |         2581 |         2633 |         2633 |         5685 |         5685 |         5811 |         5811 |        14029 |        14029 |        14359 |        14359 |        33545 |        33545 |        33527 |        33527 |        72389 |        72389 |        72279 |        72279 |       159819 |       159819 |       159172 |       159172 |       370785 |       370785 |       368621 |       368621 |       832021 |       832021 |       827243 |       827243 |      1812290 |      1812290 |      1796994 |      1796994 |      3862486 |      3862486 |      3821700 |      3821700 |      8795787 |      8795787 |      8698670 |      8698670 |
dl1.writebacks                                2431 |         2431 |         2500 |         2500 |         5465 |         5465 |         5622 |         5622 |        13170 |        13170 |        13561 |        13561 |        30943 |        30943 |        31181 |        31181 |        68935 |        68935 |        69382 |        69382 |       153396 |       153396 |       154149 |       154149 |       346999 |       346999 |       348337 |       348337 |       767671 |       767671 |       770459 |       770459 |      1679680 |      1679680 |      1682289 |      1682289 |      3608714 |      3608714 |      3608443 |      3608443 |      7916232 |      7916232 |      7909204 |      7909204 |
dl1.invalidations                                0 |            0 |            0 |            0 |            0 |            0 |            0 |            0 |            0 |            0 |            0 |            0 |            0 |            0 |            0 |            0 |            0 |            0 |            0 |            0 |            0 |            0 |            0 |            0 |            0 |            0 |            0 |            0 |            0 |            0 |            0 |            0 |            0 |            0 |            0 |            0 |            0 |            0 |            0 |            0 |            0 |            0 |            0 |            0 |
dl1.miss_rate                               0.0201 |       0.0201 |       0.0205 |       0.0205 |       0.0201 |       0.0201 |       0.0205 |       0.0205 |       0.0230 |       0.0230 |       0.0235 |       0.0235 |       0.0256 |       0.0256 |       0.0256 |       0.0256 |       0.0264 |       0.0264 |       0.0264 |       0.0264 |       0.0279 |       0.0279 |       0.0278 |       0.0278 |       0.0306 |       0.0306 |       0.0305 |       0.0305 |       0.0328 |       0.0328 |       0.0326 |       0.0326 |       0.0342 |       0.0342 |       0.0339 |       0.0339 |       0.0351 |       0.0351 |       0.0348 |       0.0348 |       0.0380 |       0.0380 |       0.0376 |       0.0376 |
dl1.repl_rate                               0.0183 |       0.0183 |       0.0187 |       0.0187 |       0.0192 |       0.0192 |       0.0196 |       0.0196 |       0.0226 |       0.0226 |       0.0231 |       0.0231 |       0.0254 |       0.0254 |       0.0254 |       0.0254 |       0.0263 |       0.0263 |       0.0263 |       0.0263 |       0.0278 |       0.0278 |       0.0277 |       0.0277 |       0.0306 |       0.0306 |       0.0304 |       0.0304 |       0.0327 |       0.0327 |       0.0326 |       0.0326 |       0.0342 |       0.0342 |       0.0339 |       0.0339 |       0.0351 |       0.0351 |       0.0348 |       0.0348 |       0.0380 |       0.0380 |       0.0376 |       0.0376 |
dl1.wb_rate                                 0.0172 |       0.0172 |       0.0177 |       0.0177 |       0.0185 |       0.0185 |       0.0190 |       0.0190 |       0.0212 |       0.0212 |       0.0218 |       0.0218 |       0.0234 |       0.0234 |       0.0236 |       0.0236 |       0.0251 |       0.0251 |       0.0252 |       0.0252 |       0.0267 |       0.0267 |       0.0268 |       0.0268 |       0.0287 |       0.0287 |       0.0288 |       0.0288 |       0.0302 |       0.0302 |       0.0303 |       0.0303 |       0.0317 |       0.0317 |       0.0317 |       0.0317 |       0.0328 |       0.0328 |       0.0328 |       0.0328 |       0.0342 |       0.0342 |       0.0341 |       0.0341 |
dl1.inv_rate                                0.0000 |       0.0000 |       0.0000 |       0.0000 |       0.0000 |       0.0000 |       0.0000 |       0.0000 |       0.0000 |       0.0000 |       0.0000 |       0.0000 |       0.0000 |       0.0000 |       0.0000 |       0.0000 |       0.0000 |       0.0000 |       0.0000 |       0.0000 |       0.0000 |       0.0000 |       0.0000 |       0.0000 |       0.0000 |       0.0000 |       0.0000 |       0.0000 |       0.0000 |       0.0000 |       0.0000 |       0.0000 |       0.0000 |       0.0000 |       0.0000 |       0.0000 |       0.0000 |       0.0000 |       0.0000 |       0.0000 |       0.0000 |       0.0000 |       0.0000 |       0.0000 |
dl2.accesses                                  5732 |         5732 |         5817 |         5817 |        11869 |        11869 |        12119 |        12119 |        27907 |        27907 |        28602 |        28602 |        65195 |        65195 |        65389 |        65389 |       142031 |       142031 |       142342 |       142342 |       313935 |       313935 |       314007 |       314007 |       718504 |       718504 |       717644 |       717644 |      1600412 |      1600412 |      1598388 |      1598388 |      3492690 |      3492690 |      3479969 |      3479969 |      7471920 |      7471920 |      7430829 |      7430829 |     16712739 |     16712739 |     16608560 |     16608560 |
dl2.hits                                      4358 |         4358 |         4457 |         4457 |         9980 |         9980 |        10245 |        10245 |        25007 |        25007 |        25714 |        25714 |        60248 |        60248 |        60454 |        60454 |       132987 |       132987 |       133310 |       133310 |       296693 |       296693 |       296780 |       296780 |       684878 |       684878 |       684033 |       684033 |      1534018 |      1533241 |      1532009 |      1510214 |      3360007 |      3025418 |      3314143 |      2963091 |      6557041 |      6204860 |      6426120 |      6050005 |     13651288 |     13033741 |     13480872 |     12785650 |
dl2.misses                                    1374 |         1374 |         1360 |         1360 |         1889 |         1889 |         1874 |         1874 |         2900 |         2900 |         2888 |         2888 |         4947 |         4947 |         4935 |         4935 |         9044 |         9044 |         9032 |         9032 |        17242 |        17242 |        17227 |        17227 |        33626 |        33626 |        33611 |        33611 |        66394 |        67171 |        66379 |        88174 |       132683 |       467272 |       165826 |       516878 |       914879 |      1267060 |      1004709 |      1380824 |      3061451 |      3678998 |      3127688 |      3822910 |
dl2.replacements                               152 |          152 |            0 |            0 |          155 |          155 |            0 |            0 |          151 |          151 |            0 |            0 |          151 |          151 |            0 |            0 |          151 |          151 |            0 |            0 |          157 |          157 |            0 |            0 |          157 |          157 |            0 |            0 |          157 |         1635 |            0 |        22638 |         1611 |       401736 |        34754 |       451342 |       783807 |      1201524 |       873637 |      1315288 |      2930379 |      3613462 |      2996616 |      3757374 |
dl2.writebacks                                  91 |           91 |            0 |            0 |           92 |           92 |            0 |            0 |           90 |           90 |            0 |            0 |           90 |           90 |            0 |            0 |           90 |           90 |            0 |            0 |           93 |           93 |            0 |            0 |           93 |           93 |            0 |            0 |           93 |         1320 |            0 |        22343 |         1297 |       392735 |        34459 |       441023 |       778318 |      1177932 |       868065 |      1279201 |      2622613 |      3221083 |      2686125 |      3348359 |
dl2.invalidations                                0 |            0 |            0 |            0 |            0 |            0 |            0 |            0 |            0 |            0 |            0 |            0 |            0 |            0 |            0 |            0 |            0 |            0 |            0 |            0 |            0 |            0 |            0 |            0 |            0 |            0 |            0 |            0 |            0 |            0 |            0 |            0 |            0 |            0 |            0 |            0 |            0 |            0 |            0 |            0 |            0 |            0 |            0 |            0 |
dl2.miss_rate                               0.2397 |       0.2397 |       0.2338 |       0.2338 |       0.1592 |       0.1592 |       0.1546 |       0.1546 |       0.1039 |       0.1039 |       0.1010 |       0.1010 |       0.0759 |       0.0759 |       0.0755 |       0.0755 |       0.0637 |       0.0637 |       0.0635 |       0.0635 |       0.0549 |       0.0549 |       0.0549 |       0.0549 |       0.0468 |       0.0468 |       0.0468 |       0.0468 |       0.0415 |       0.0420 |       0.0415 |       0.0552 |       0.0380 |       0.1338 |       0.0477 |       0.1485 |       0.1224 |       0.1696 |       0.1352 |       0.1858 |       0.1832 |       0.2201 |       0.1883 |       0.2302 |
dl2.repl_rate                               0.0265 |       0.0265 |       0.0000 |       0.0000 |       0.0131 |       0.0131 |       0.0000 |       0.0000 |       0.0054 |       0.0054 |       0.0000 |       0.0000 |       0.0023 |       0.0023 |       0.0000 |       0.0000 |       0.0011 |       0.0011 |       0.0000 |       0.0000 |       0.0005 |       0.0005 |       0.0000 |       0.0000 |       0.0002 |       0.0002 |       0.0000 |       0.0000 |       0.0001 |       0.0010 |       0.0000 |       0.0142 |       0.0005 |       0.1150 |       0.0100 |       0.1297 |       0.1049 |       0.1608 |       0.1176 |       0.1770 |       0.1753 |       0.2162 |       0.1804 |       0.2262 |
dl2.wb_rate                                 0.0159 |       0.0159 |       0.0000 |       0.0000 |       0.0078 |       0.0078 |       0.0000 |       0.0000 |       0.0032 |       0.0032 |       0.0000 |       0.0000 |       0.0014 |       0.0014 |       0.0000 |       0.0000 |       0.0006 |       0.0006 |       0.0000 |       0.0000 |       0.0003 |       0.0003 |       0.0000 |       0.0000 |       0.0001 |       0.0001 |       0.0000 |       0.0000 |       0.0001 |       0.0008 |       0.0000 |       0.0140 |       0.0004 |       0.1124 |       0.0099 |       0.1267 |       0.1042 |       0.1576 |       0.1168 |       0.1721 |       0.1569 |       0.1927 |       0.1617 |       0.2016 |
dl2.inv_rate                                0.0000 |       0.0000 |       0.0000 |       0.0000 |       0.0000 |       0.0000 |       0.0000 |       0.0000 |       0.0000 |       0.0000 |       0.0000 |       0.0000 |       0.0000 |       0.0000 |       0.0000 |       0.0000 |       0.0000 |       0.0000 |       0.0000 |       0.0000 |       0.0000 |       0.0000 |       0.0000 |       0.0000 |       0.0000 |       0.0000 |       0.0000 |       0.0000 |       0.0000 |       0.0000 |       0.0000 |       0.0000 |       0.0000 |       0.0000 |       0.0000 |       0.0000 |       0.0000 |       0.0000 |       0.0000 |       0.0000 |       0.0000 |       0.0000 |       0.0000 |       0.0000 |
itlb.accesses                               468248 |       468248 |       468248 |       468248 |      1000605 |      1000605 |      1000605 |      1000605 |      2155454 |      2155454 |      2155454 |      2155454 |      4649879 |      4649879 |      4649879 |      4649879 |      9724170 |      9724170 |      9724170 |      9724170 |     20475597 |     20475597 |     20475597 |     20475597 |     43819239 |     43819239 |     43819239 |     43819239 |     92896386 |     92896386 |     92896386 |     92896386 |    195190529 |    195190529 |    195190529 |    195190529 |    405979155 |    405979155 |    405979155 |    405979155 |    869205332 |    869205332 |    869205332 |    869205332 |
itlb.hits                                   468238 |       468238 |       468238 |       468238 |      1000595 |      1000595 |      1000595 |      1000595 |      2155444 |      2155444 |      2155444 |      2155444 |      4649869 |      4649869 |      4649869 |      4649869 |      9724160 |      9724160 |      9724160 |      9724160 |     20475587 |     20475587 |     20475587 |     20475587 |     43819229 |     43819229 |     43819229 |     43819229 |     92896376 |     92896376 |     92896376 |     92896376 |    195190519 |    195190519 |    195190519 |    195190519 |    405979145 |    405979145 |    405979145 |    405979145 |    869205322 |    869205322 |    869205322 |    869205322 |
itlb.misses                                     10 |           10 |           10 |           10 |           10 |           10 |           10 |           10 |           10 |           10 |           10 |           10 |           10 |           10 |           10 |           10 |           10 |           10 |           10 |           10 |           10 |           10 |           10 |           10 |           10 |           10 |           10 |           10 |           10 |           10 |           10 |           10 |           10 |           10 |           10 |           10 |           10 |           10 |           10 |           10 |           10 |           10 |           10 |           10 |
itlb.replacements                                0 |            0 |            0 |            0 |            0 |            0 |            0 |            0 |            0 |            0 |            0 |            0 |            0 |            0 |            0 |            0 |            0 |            0 |            0 |            0 |            0 |            0 |            0 |            0 |            0 |            0 |            0 |            0 |            0 |            0 |            0 |            0 |            0 |            0 |            0 |            0 |            0 |            0 |            0 |            0 |            0 |            0 |            0 |            0 |
itlb.writebacks                                  0 |            0 |            0 |            0 |            0 |            0 |            0 |            0 |            0 |            0 |            0 |            0 |            0 |            0 |            0 |            0 |            0 |            0 |            0 |            0 |            0 |            0 |            0 |            0 |            0 |            0 |            0 |            0 |            0 |            0 |            0 |            0 |            0 |            0 |            0 |            0 |            0 |            0 |            0 |            0 |            0 |            0 |            0 |            0 |
itlb.invalidations                               0 |            0 |            0 |            0 |            0 |            0 |            0 |            0 |            0 |            0 |            0 |            0 |            0 |            0 |            0 |            0 |            0 |            0 |            0 |            0 |            0 |            0 |            0 |            0 |            0 |            0 |            0 |            0 |            0 |            0 |            0 |            0 |            0 |            0 |            0 |            0 |            0 |            0 |            0 |            0 |            0 |            0 |            0 |            0 |
itlb.miss_rate                              0.0000 |       0.0000 |       0.0000 |       0.0000 |       0.0000 |       0.0000 |       0.0000 |       0.0000 |       0.0000 |       0.0000 |       0.0000 |       0.0000 |       0.0000 |       0.0000 |       0.0000 |       0.0000 |       0.0000 |       0.0000 |       0.0000 |       0.0000 |       0.0000 |       0.0000 |       0.0000 |       0.0000 |       0.0000 |       0.0000 |       0.0000 |       0.0000 |       0.0000 |       0.0000 |       0.0000 |       0.0000 |       0.0000 |       0.0000 |       0.0000 |       0.0000 |       0.0000 |       0.0000 |       0.0000 |       0.0000 |       0.0000 |       0.0000 |       0.0000 |       0.0000 |
itlb.repl_rate                              0.0000 |       0.0000 |       0.0000 |       0.0000 |       0.0000 |       0.0000 |       0.0000 |       0.0000 |       0.0000 |       0.0000 |       0.0000 |       0.0000 |       0.0000 |       0.0000 |       0.0000 |       0.0000 |       0.0000 |       0.0000 |       0.0000 |       0.0000 |       0.0000 |       0.0000 |       0.0000 |       0.0000 |       0.0000 |       0.0000 |       0.0000 |       0.0000 |       0.0000 |       0.0000 |       0.0000 |       0.0000 |       0.0000 |       0.0000 |       0.0000 |       0.0000 |       0.0000 |       0.0000 |       0.0000 |       0.0000 |       0.0000 |       0.0000 |       0.0000 |       0.0000 |
itlb.wb_rate                                0.0000 |       0.0000 |       0.0000 |       0.0000 |       0.0000 |       0.0000 |       0.0000 |       0.0000 |       0.0000 |       0.0000 |       0.0000 |       0.0000 |       0.0000 |       0.0000 |       0.0000 |       0.0000 |       0.0000 |       0.0000 |       0.0000 |       0.0000 |       0.0000 |       0.0000 |       0.0000 |       0.0000 |       0.0000 |       0.0000 |       0.0000 |       0.0000 |       0.0000 |       0.0000 |       0.0000 |       0.0000 |       0.0000 |       0.0000 |       0.0000 |       0.0000 |       0.0000 |       0.0000 |       0.0000 |       0.0000 |       0.0000 |       0.0000 |       0.0000 |       0.0000 |
itlb.inv_rate                               0.0000 |       0.0000 |       0.0000 |       0.0000 |       0.0000 |       0.0000 |       0.0000 |       0.0000 |       0.0000 |       0.0000 |       0.0000 |       0.0000 |       0.0000 |       0.0000 |       0.0000 |       0.0000 |       0.0000 |       0.0000 |       0.0000 |       0.0000 |       0.0000 |       0.0000 |       0.0000 |       0.0000 |       0.0000 |       0.0000 |       0.0000 |       0.0000 |       0.0000 |       0.0000 |       0.0000 |       0.0000 |       0.0000 |       0.0000 |       0.0000 |       0.0000 |       0.0000 |       0.0000 |       0.0000 |       0.0000 |       0.0000 |       0.0000 |       0.0000 |       0.0000 |
dtlb.accesses                               140943 |       140943 |       140943 |       140943 |       295803 |       295803 |       295803 |       295803 |       621889 |       621889 |       621889 |       621889 |      1319820 |      1319820 |      1319820 |      1319820 |      2748797 |      2748797 |      2748797 |      2748797 |      5745122 |      5745122 |      5745122 |      5745122 |     12109971 |     12109971 |     12109971 |     12109971 |     25410005 |     25410005 |     25410005 |     25410005 |     52985752 |     52985752 |     52985752 |     52985752 |    109959123 |    109959123 |    109959123 |    109959123 |    231629833 |    231629833 |    231629833 |    231629833 |
dtlb.hits                                   140931 |       140931 |       140931 |       140931 |       295787 |       295787 |       295787 |       295787 |       621865 |       621865 |       621865 |       621865 |      1319780 |      1319780 |      1319780 |      1319780 |      2748725 |      2748725 |      2748725 |      2748725 |      5744943 |      5744943 |      5744943 |      5744943 |     12108950 |     12108950 |     12108950 |     12108950 |     25407176 |     25407176 |     25407176 |     25407176 |     52978720 |     52978720 |     52978720 |     52978720 |    109943280 |    109943280 |    109943280 |    109943280 |    231590042 |    231590042 |    231590042 |    231590042 |
dtlb.misses                                     12 |           12 |           12 |           12 |           16 |           16 |           16 |           16 |           24 |           24 |           24 |           24 |           40 |           40 |           40 |           40 |           72 |           72 |           72 |           72 |          179 |          179 |          179 |          179 |         1021 |         1021 |         1021 |         1021 |         2829 |         2829 |         2829 |         2829 |         7032 |         7032 |         7032 |         7032 |        15843 |        15843 |        15843 |        15843 |        39791 |        39791 |        39791 |        39791 |
dtlb.replacements                                0 |            0 |            0 |            0 |            0 |            0 |            0 |            0 |            0 |            0 |            0 |            0 |            0 |            0 |            0 |            0 |            0 |            0 |            0 |            0 |           51 |           51 |           51 |           51 |          893 |          893 |          893 |          893 |         2701 |         2701 |         2701 |         2701 |         6904 |         6904 |         6904 |         6904 |        15715 |        15715 |        15715 |        15715 |        39663 |        39663 |        39663 |        39663 |
dtlb.writebacks                                  0 |            0 |            0 |            0 |            0 |            0 |            0 |            0 |            0 |            0 |            0 |            0 |            0 |            0 |            0 |            0 |            0 |            0 |            0 |            0 |           48 |           48 |           48 |           48 |          888 |          888 |          888 |          888 |         2691 |         2691 |         2691 |         2691 |         6890 |         6890 |         6890 |         6890 |        15683 |        15683 |        15683 |        15683 |        39599 |        39599 |        39599 |        39599 |
dtlb.invalidations                               0 |            0 |            0 |            0 |            0 |            0 |            0 |            0 |            0 |            0 |            0 |            0 |            0 |            0 |            0 |            0 |            0 |            0 |            0 |            0 |            0 |            0 |            0 |            0 |            0 |            0 |            0 |            0 |            0 |            0 |            0 |            0 |            0 |            0 |            0 |            0 |            0 |            0 |            0 |            0 |            0 |            0 |            0 |            0 |
dtlb.miss_rate                              0.0001 |       0.0001 |       0.0001 |       0.0001 |       0.0001 |       0.0001 |       0.0001 |       0.0001 |       0.0000 |       0.0000 |       0.0000 |       0.0000 |       0.0000 |       0.0000 |       0.0000 |       0.0000 |       0.0000 |       0.0000 |       0.0000 |       0.0000 |       0.0000 |       0.0000 |       0.0000 |       0.0000 |       0.0001 |       0.0001 |       0.0001 |       0.0001 |       0.0001 |       0.0001 |       0.0001 |       0.0001 |       0.0001 |       0.0001 |       0.0001 |       0.0001 |       0.0001 |       0.0001 |       0.0001 |       0.0001 |       0.0002 |       0.0002 |       0.0002 |       0.0002 |
dtlb.repl_rate                              0.0000 |       0.0000 |       0.0000 |       0.0000 |       0.0000 |       0.0000 |       0.0000 |       0.0000 |       0.0000 |       0.0000 |       0.0000 |       0.0000 |       0.0000 |       0.0000 |       0.0000 |       0.0000 |       0.0000 |       0.0000 |       0.0000 |       0.0000 |       0.0000 |       0.0000 |       0.0000 |       0.0000 |       0.0001 |       0.0001 |       0.0001 |       0.0001 |       0.0001 |       0.0001 |       0.0001 |       0.0001 |       0.0001 |       0.0001 |       0.0001 |       0.0001 |       0.0001 |       0.0001 |       0.0001 |       0.0001 |       0.0002 |       0.0002 |       0.0002 |       0.0002 |
dtlb.wb_rate                                0.0000 |       0.0000 |       0.0000 |       0.0000 |       0.0000 |       0.0000 |       0.0000 |       0.0000 |       0.0000 |       0.0000 |       0.0000 |       0.0000 |       0.0000 |       0.0000 |       0.0000 |       0.0000 |       0.0000 |       0.0000 |       0.0000 |       0.0000 |       0.0000 |       0.0000 |       0.0000 |       0.0000 |       0.0001 |       0.0001 |       0.0001 |       0.0001 |       0.0001 |       0.0001 |       0.0001 |       0.0001 |       0.0001 |       0.0001 |       0.0001 |       0.0001 |       0.0001 |       0.0001 |       0.0001 |       0.0001 |       0.0002 |       0.0002 |       0.0002 |       0.0002 |
dtlb.inv_rate                               0.0000 |       0.0000 |       0.0000 |       0.0000 |       0.0000 |       0.0000 |       0.0000 |       0.0000 |       0.0000 |       0.0000 |       0.0000 |       0.0000 |       0.0000 |       0.0000 |       0.0000 |       0.0000 |       0.0000 |       0.0000 |       0.0000 |       0.0000 |       0.0000 |       0.0000 |       0.0000 |       0.0000 |       0.0000 |       0.0000 |       0.0000 |       0.0000 |       0.0000 |       0.0000 |       0.0000 |       0.0000 |       0.0000 |       0.0000 |       0.0000 |       0.0000 |       0.0000 |       0.0000 |       0.0000 |       0.0000 |       0.0000 |       0.0000 |       0.0000 |       0.0000 |
ld_text_base                            0x00400000 |   0x00400000 |   0x00400000 |   0x00400000 |   0x00400000 |   0x00400000 |   0x00400000 |   0x00400000 |   0x00400000 |   0x00400000 |   0x00400000 |   0x00400000 |   0x00400000 |   0x00400000 |   0x00400000 |   0x00400000 |   0x00400000 |   0x00400000 |   0x00400000 |   0x00400000 |   0x00400000 |   0x00400000 |   0x00400000 |   0x00400000 |   0x00400000 |   0x00400000 |   0x00400000 |   0x00400000 |   0x00400000 |   0x00400000 |   0x00400000 |   0x00400000 |   0x00400000 |   0x00400000 |   0x00400000 |   0x00400000 |   0x00400000 |   0x00400000 |   0x00400000 |   0x00400000 |   0x00400000 |   0x00400000 |   0x00400000 |   0x00400000 |
ld_text_size                                 73600 |        73600 |        73600 |        73600 |        73632 |        73632 |        73632 |        73632 |        73648 |        73648 |        73648 |        73648 |        73648 |        73648 |        73648 |        73648 |        73648 |        73648 |        73648 |        73648 |        73664 |        73664 |        73664 |        73664 |        73664 |        73664 |        73664 |        73664 |        73664 |        73664 |        73664 |        73664 |        73664 |        73664 |        73664 |        73664 |        73664 |        73664 |        73664 |        73664 |        73664 |        73664 |        73664 |        73664 |
ld_data_base                            0x10000000 |   0x10000000 |   0x10000000 |   0x10000000 |   0x10000000 |   0x10000000 |   0x10000000 |   0x10000000 |   0x10000000 |   0x10000000 |   0x10000000 |   0x10000000 |   0x10000000 |   0x10000000 |   0x10000000 |   0x10000000 |   0x10000000 |   0x10000000 |   0x10000000 |   0x10000000 |   0x10000000 |   0x10000000 |   0x10000000 |   0x10000000 |   0x10000000 |   0x10000000 |   0x10000000 |   0x10000000 |   0x10000000 |   0x10000000 |   0x10000000 |   0x10000000 |   0x10000000 |   0x10000000 |   0x10000000 |   0x10000000 |   0x10000000 |   0x10000000 |   0x10000000 |   0x10000000 |   0x10000000 |   0x10000000 |   0x10000000 |   0x10000000 |
ld_data_size                                  8192 |         8192 |         8192 |         8192 |         8192 |         8192 |         8192 |         8192 |         8192 |         8192 |         8192 |         8192 |         8192 |         8192 |         8192 |         8192 |         8192 |         8192 |         8192 |         8192 |         8192 |         8192 |         8192 |         8192 |         8192 |         8192 |         8192 |         8192 |         8192 |         8192 |         8192 |         8192 |         8192 |         8192 |         8192 |         8192 |         8192 |         8192 |         8192 |         8192 |         8192 |         8192 |         8192 |         8192 |
ld_stack_base                           0x7fffc000 |   0x7fffc000 |   0x7fffc000 |   0x7fffc000 |   0x7fffc000 |   0x7fffc000 |   0x7fffc000 |   0x7fffc000 |   0x7fffc000 |   0x7fffc000 |   0x7fffc000 |   0x7fffc000 |   0x7fffc000 |   0x7fffc000 |   0x7fffc000 |   0x7fffc000 |   0x7fffc000 |   0x7fffc000 |   0x7fffc000 |   0x7fffc000 |   0x7fffc000 |   0x7fffc000 |   0x7fffc000 |   0x7fffc000 |   0x7fffc000 |   0x7fffc000 |   0x7fffc000 |   0x7fffc000 |   0x7fffc000 |   0x7fffc000 |   0x7fffc000 |   0x7fffc000 |   0x7fffc000 |   0x7fffc000 |   0x7fffc000 |   0x7fffc000 |   0x7fffc000 |   0x7fffc000 |   0x7fffc000 |   0x7fffc000 |   0x7fffc000 |   0x7fffc000 |   0x7fffc000 |   0x7fffc000 |
ld_stack_size                                16384 |        16384 |        16384 |        16384 |        16384 |        16384 |        16384 |        16384 |        16384 |        16384 |        16384 |        16384 |        16384 |        16384 |        16384 |        16384 |        16384 |        16384 |        16384 |        16384 |        16384 |        16384 |        16384 |        16384 |        16384 |        16384 |        16384 |        16384 |        16384 |        16384 |        16384 |        16384 |        16384 |        16384 |        16384 |        16384 |        16384 |        16384 |        16384 |        16384 |        16384 |        16384 |        16384 |        16384 |
ld_prog_entry                           0x00400140 |   0x00400140 |   0x00400140 |   0x00400140 |   0x00400140 |   0x00400140 |   0x00400140 |   0x00400140 |   0x00400140 |   0x00400140 |   0x00400140 |   0x00400140 |   0x00400140 |   0x00400140 |   0x00400140 |   0x00400140 |   0x00400140 |   0x00400140 |   0x00400140 |   0x00400140 |   0x00400140 |   0x00400140 |   0x00400140 |   0x00400140 |   0x00400140 |   0x00400140 |   0x00400140 |   0x00400140 |   0x00400140 |   0x00400140 |   0x00400140 |   0x00400140 |   0x00400140 |   0x00400140 |   0x00400140 |   0x00400140 |   0x00400140 |   0x00400140 |   0x00400140 |   0x00400140 |   0x00400140 |   0x00400140 |   0x00400140 |   0x00400140 |
ld_environ_base                         0x7fff8000 |   0x7fff8000 |   0x7fff8000 |   0x7fff8000 |   0x7fff8000 |   0x7fff8000 |   0x7fff8000 |   0x7fff8000 |   0x7fff8000 |   0x7fff8000 |   0x7fff8000 |   0x7fff8000 |   0x7fff8000 |   0x7fff8000 |   0x7fff8000 |   0x7fff8000 |   0x7fff8000 |   0x7fff8000 |   0x7fff8000 |   0x7fff8000 |   0x7fff8000 |   0x7fff8000 |   0x7fff8000 |   0x7fff8000 |   0x7fff8000 |   0x7fff8000 |   0x7fff8000 |   0x7fff8000 |   0x7fff8000 |   0x7fff8000 |   0x7fff8000 |   0x7fff8000 |   0x7fff8000 |   0x7fff8000 |   0x7fff8000 |   0x7fff8000 |   0x7fff8000 |   0x7fff8000 |   0x7fff8000 |   0x7fff8000 |   0x7fff8000 |   0x7fff8000 |   0x7fff8000 |   0x7fff8000 |
ld_target_big_endian                             0 |            0 |            0 |            0 |            0 |            0 |            0 |            0 |            0 |            0 |            0 |            0 |            0 |            0 |            0 |            0 |            0 |            0 |            0 |            0 |            0 |            0 |            0 |            0 |            0 |            0 |            0 |            0 |            0 |            0 |            0 |            0 |            0 |            0 |            0 |            0 |            0 |            0 |            0 |            0 |            0 |            0 |            0 |            0 |
mem.page_count                                  30 |           30 |           30 |           30 |           34 |           34 |           34 |           34 |           42 |           42 |           42 |           42 |           58 |           58 |           58 |           58 |           90 |           90 |           90 |           90 |          154 |          154 |          154 |          154 |          282 |          282 |          282 |          282 |          538 |          538 |          538 |          538 |         1050 |         1050 |         1050 |         1050 |         2074 |         2074 |         2074 |         2074 |         4122 |         4122 |         4122 |         4122 |
mem.page_mem                                  120k |         120k |         120k |         120k |         136k |         136k |         136k |         136k |         168k |         168k |         168k |         168k |         232k |         232k |         232k |         232k |         360k |         360k |         360k |         360k |         616k |         616k |         616k |         616k |        1128k |        1128k |        1128k |        1128k |        2152k |        2152k |        2152k |        2152k |        4200k |        4200k |        4200k |        4200k |        8296k |        8296k |        8296k |        8296k |       16488k |       16488k |       16488k |       16488k |
mem.ptab_misses                                 30 |           30 |           30 |           30 |           34 |           34 |           34 |           34 |           42 |           42 |           42 |           42 |           58 |           58 |           58 |           58 |           90 |           90 |           90 |           90 |          154 |          154 |          154 |          154 |          282 |          282 |          282 |          282 |          538 |          538 |          538 |          538 |         1050 |         1050 |         1050 |         1050 |         2074 |         2074 |         2074 |         2074 |         4122 |         4122 |         4122 |         4122 |
mem.ptab_accesses                          2611100 |      2611100 |      2611100 |      2611100 |      5050440 |      5050440 |      5050440 |      5050440 |     10322104 |     10322104 |     10322104 |     10322104 |     21695666 |     21695666 |     21695666 |     21695666 |     44850784 |     44850784 |     44850784 |     44850784 |     93849238 |     93849238 |     93849238 |     93849238 |    199953504 |    199953504 |    199953504 |    199953504 |    422862160 |    422862160 |    422862160 |    422862160 |    887190226 |    887190226 |    887190226 |    887190226 |   1844291472 |   1844291472 |   1844291472 |   1844291472 |   3940537600 |   3940537600 |   3940537600 |   3940537600 |
mem.ptab_miss_rate                          0.0000 |       0.0000 |       0.0000 |       0.0000 |       0.0000 |       0.0000 |       0.0000 |       0.0000 |       0.0000 |       0.0000 |       0.0000 |       0.0000 |       0.0000 |       0.0000 |       0.0000 |       0.0000 |       0.0000 |       0.0000 |       0.0000 |       0.0000 |       0.0000 |       0.0000 |       0.0000 |       0.0000 |       0.0000 |       0.0000 |       0.0000 |       0.0000 |       0.0000 |       0.0000 |       0.0000 |       0.0000 |       0.0000 |       0.0000 |       0.0000 |       0.0000 |       0.0000 |       0.0000 |       0.0000 |       0.0000 |       0.0000 |       0.0000 |       0.0000 |       0.0000 |
-------------------------------------------------------------------------------------------------
sim-bpred                                     4096 |         4096 |         4096 |         4096 |         4096 |         4096 |         4096 |         8192 |         8192 |         8192 |         8192 |         8192 |         8192 |         8192 |        16384 |        16384 |        16384 |        16384 |        16384 |        16384 |        16384 |        32768 |        32768 |        32768 |        32768 |        32768 |        32768 |        32768 |        65536 |        65536 |        65536 |        65536 |        65536 |        65536 |        65536 |       131072 |       131072 |       131072 |       131072 |       131072 |       131072 |       131072 |       262144 |       262144 |       262144 |       262144 |       262144 |       262144 |       262144 |       524288 |       524288 |       524288 |       524288 |       524288 |       524288 |       524288 |      1048576 |      1048576 |      1048576 |      1048576 |      1048576 |      1048576 |      1048576 |      2097152 |      2097152 |      2097152 |      2097152 |      2097152 |      2097152 |      2097152 |      4194304 |      4194304 |      4194304 |      4194304 |      4194304 |      4194304 |      4194304 |
-bpred bimod -bpred:bimod 512
-bpred bimod -bpred:bimod 1024
-bpred bimod -bpred:bimod 2048
-bpred 2lev -bpred:2lev 1 512 10 1
-bpred 2lev -bpred:2lev 1 1024 10 1
-bpred 2lev -bpred:2lev 1 2048 10 1
-bpred 2lev -bpred:2lev 1 4096 10 1
-------------------------------------------------------------------------------------------------
sim_num_insn                                468248 |       468248 |       468248 |       468248 |       468248 |       468248 |       468248 |      1000605 |      1000605 |      1000605 |      1000605 |      1000605 |      1000605 |      1000605 |      2155454 |      2155454 |      2155454 |      2155454 |      2155454 |      2155454 |      2155454 |      4649879 |      4649879 |      4649879 |      4649879 |      4649879 |      4649879 |      4649879 |      9724170 |      9724170 |      9724170 |      9724170 |      9724170 |      9724170 |      9724170 |     20475597 |     20475597 |     20475597 |     20475597 |     20475597 |     20475597 |     20475597 |     43819239 |     43819239 |     43819239 |     43819239 |     43819239 |     43819239 |     43819239 |     92896386 |     92896386 |     92896386 |     92896386 |     92896386 |     92896386 |     92896386 |    195190529 |    195190529 |    195190529 |    195190529 |    195190529 |    195190529 |    195190529 |    405979155 |    405979155 |    405979155 |    405979155 |    405979155 |    405979155 |    405979155 |    869205332 |    869205332 |    869205332 |    869205332 |    869205332 |    869205332 |    869205332 |
sim_num_refs                                124477 |       124477 |       124477 |       124477 |       124477 |       124477 |       124477 |       262953 |       262953 |       262953 |       262953 |       262953 |       262953 |       262953 |       556271 |       556271 |       556271 |       556271 |       556271 |       556271 |       556271 |      1188666 |      1188666 |      1188666 |      1188666 |      1188666 |      1188666 |      1188666 |      2486571 |      2486571 |      2486571 |      2486571 |      2486571 |      2486571 |      2486571 |      5220752 |      5220752 |      5220752 |      5220752 |      5220752 |      5220752 |      5220752 |     11061313 |     11061313 |     11061313 |     11061313 |     11061313 |     11061313 |     11061313 |     23312771 |     23312771 |     23312771 |     23312771 |     23312771 |     23312771 |     23312771 |     48791366 |     48791366 |     48791366 |     48791366 |     48791366 |     48791366 |     48791366 |    101570433 |    101570433 |    101570433 |    101570433 |    101570433 |    101570433 |    101570433 |    214852535 |    214852535 |    214852535 |    214852535 |    214852535 |    214852535 |    214852535 |
sim_elapsed_time                                 1 |            1 |            1 |            1 |            1 |            1 |            1 |            1 |            1 |            1 |            1 |            1 |            1 |            1 |            1 |            1 |            1 |            1 |            1 |            1 |            1 |            1 |            1 |            1 |            1 |            1 |            1 |            1 |            1 |            1 |            2 |            1 |            1 |            1 |            1 |            2 |            3 |            2 |            3 |            2 |            2 |            3 |            5 |            5 |            5 |            5 |            5 |            5 |            6 |           10 |           11 |           10 |           10 |           11 |           11 |           11 |           22 |           22 |           23 |           22 |           23 |           23 |           22 |           46 |           46 |           47 |           47 |           47 |           47 |           47 |           99 |           99 |          100 |          100 |          101 |          100 |          101 |
sim_inst_rate                          468248.0000 |  468248.0000 |  468248.0000 |  468248.0000 |  468248.0000 |  468248.0000 |  468248.0000 | 1000605.0000 | 1000605.0000 | 1000605.0000 | 1000605.0000 | 1000605.0000 | 1000605.0000 | 1000605.0000 | 2155454.0000 | 2155454.0000 | 2155454.0000 | 2155454.0000 | 2155454.0000 | 2155454.0000 | 2155454.0000 | 4649879.0000 | 4649879.0000 | 4649879.0000 | 4649879.0000 | 4649879.0000 | 4649879.0000 | 4649879.0000 | 9724170.0000 | 9724170.0000 | 4862085.0000 | 9724170.0000 | 9724170.0000 | 9724170.0000 | 9724170.0000 |10237798.5000 | 6825199.0000 |10237798.5000 | 6825199.0000 |10237798.5000 |10237798.5000 | 6825199.0000 | 8763847.8000 | 8763847.8000 | 8763847.8000 | 8763847.8000 | 8763847.8000 | 8763847.8000 | 7303206.5000 | 9289638.6000 | 8445126.0000 | 9289638.6000 | 9289638.6000 | 8445126.0000 | 8445126.0000 | 8445126.0000 | 8872296.7727 | 8872296.7727 | 8486544.7391 | 8872296.7727 | 8486544.7391 | 8486544.7391 | 8872296.7727 | 8825633.8043 | 8825633.8043 | 8637854.3617 | 8637854.3617 | 8637854.3617 | 8637854.3617 | 8637854.3617 | 8779851.8384 | 8779851.8384 | 8692053.3200 | 8692053.3200 | 8605993.3861 | 8692053.3200 | 8605993.3861 |
sim_num_branches                             77110 |        77110 |        77110 |        77110 |        77110 |        77110 |        77110 |       166050 |       166050 |       166050 |       166050 |       166050 |       166050 |       166050 |       360070 |       360070 |       360070 |       360070 |       360070 |       360070 |       360070 |       780801 |       780801 |       780801 |       780801 |       780801 |       780801 |       780801 |      1639537 |      1639537 |      1639537 |      1639537 |      1639537 |      1639537 |      1639537 |      3469122 |      3469122 |      3469122 |      3469122 |      3469122 |      3469122 |      3469122 |      7443336 |      7443336 |      7443336 |      7443336 |      7443336 |      7443336 |      7443336 |     15832980 |     15832980 |     15832980 |     15832980 |     15832980 |     15832980 |     15832980 |     33333246 |     33333246 |     33333246 |     33333246 |     33333246 |     33333246 |     33333246 |     69568624 |     69568624 |     69568624 |     69568624 |     69568624 |     69568624 |     69568624 |    149196128 |    149196128 |    149196128 |    149196128 |    149196128 |    149196128 |    149196128 |
sim_IPB                                     6.0725 |       6.0725 |       6.0725 |       6.0725 |       6.0725 |       6.0725 |       6.0725 |       6.0259 |       6.0259 |       6.0259 |       6.0259 |       6.0259 |       6.0259 |       6.0259 |       5.9862 |       5.9862 |       5.9862 |       5.9862 |       5.9862 |       5.9862 |       5.9862 |       5.9553 |       5.9553 |       5.9553 |       5.9553 |       5.9553 |       5.9553 |       5.9553 |       5.9310 |       5.9310 |       5.9310 |       5.9310 |       5.9310 |       5.9310 |       5.9310 |       5.9022 |       5.9022 |       5.9022 |       5.9022 |       5.9022 |       5.9022 |       5.9022 |       5.8870 |       5.8870 |       5.8870 |       5.8870 |       5.8870 |       5.8870 |       5.8870 |       5.8673 |       5.8673 |       5.8673 |       5.8673 |       5.8673 |       5.8673 |       5.8673 |       5.8557 |       5.8557 |       5.8557 |       5.8557 |       5.8557 |       5.8557 |       5.8557 |       5.8357 |       5.8357 |       5.8357 |       5.8357 |       5.8357 |       5.8357 |       5.8357 |       5.8259 |       5.8259 |       5.8259 |       5.8259 |       5.8259 |       5.8259 |       5.8259 |
bpred_bimod.lookups                          77110 |        77110 |        77110 |xxxxxxxxxxxxx |xxxxxxxxxxxxx |xxxxxxxxxxxxx |xxxxxxxxxxxxx |       166050 |       166050 |       166050 |xxxxxxxxxxxxx |xxxxxxxxxxxxx |xxxxxxxxxxxxx |xxxxxxxxxxxxx |       360070 |       360070 |       360070 |xxxxxxxxxxxxx |xxxxxxxxxxxxx |xxxxxxxxxxxxx |xxxxxxxxxxxxx |       780801 |       780801 |       780801 |xxxxxxxxxxxxx |xxxxxxxxxxxxx |xxxxxxxxxxxxx |xxxxxxxxxxxxx |      1639537 |      1639537 |      1639537 |xxxxxxxxxxxxx |xxxxxxxxxxxxx |xxxxxxxxxxxxx |xxxxxxxxxxxxx |      3469122 |      3469122 |      3469122 |xxxxxxxxxxxxx |xxxxxxxxxxxxx |xxxxxxxxxxxxx |xxxxxxxxxxxxx |      7443336 |      7443336 |      7443336 |xxxxxxxxxxxxx |xxxxxxxxxxxxx |xxxxxxxxxxxxx |xxxxxxxxxxxxx |     15832980 |     15832980 |     15832980 |xxxxxxxxxxxxx |xxxxxxxxxxxxx |xxxxxxxxxxxxx |xxxxxxxxxxxxx |     33333246 |     33333246 |     33333246 |xxxxxxxxxxxxx |xxxxxxxxxxxxx |xxxxxxxxxxxxx |xxxxxxxxxxxxx |     69568624 |     69568624 |     69568624 |xxxxxxxxxxxxx |xxxxxxxxxxxxx |xxxxxxxxxxxxx |xxxxxxxxxxxxx |    149196128 |    149196128 |    149196128 |
bpred_bimod.updates                          77110 |        77110 |        77110 |xxxxxxxxxxxxx |xxxxxxxxxxxxx |xxxxxxxxxxxxx |xxxxxxxxxxxxx |       166050 |       166050 |       166050 |xxxxxxxxxxxxx |xxxxxxxxxxxxx |xxxxxxxxxxxxx |xxxxxxxxxxxxx |       360070 |       360070 |       360070 |xxxxxxxxxxxxx |xxxxxxxxxxxxx |xxxxxxxxxxxxx |xxxxxxxxxxxxx |       780801 |       780801 |       780801 |xxxxxxxxxxxxx |xxxxxxxxxxxxx |xxxxxxxxxxxxx |xxxxxxxxxxxxx |      1639537 |      1639537 |      1639537 |xxxxxxxxxxxxx |xxxxxxxxxxxxx |xxxxxxxxxxxxx |xxxxxxxxxxxxx |      3469122 |      3469122 |      3469122 |xxxxxxxxxxxxx |xxxxxxxxxxxxx |xxxxxxxxxxxxx |xxxxxxxxxxxxx |      7443336 |      7443336 |      7443336 |xxxxxxxxxxxxx |xxxxxxxxxxxxx |xxxxxxxxxxxxx |xxxxxxxxxxxxx |     15832980 |     15832980 |     15832980 |xxxxxxxxxxxxx |xxxxxxxxxxxxx |xxxxxxxxxxxxx |xxxxxxxxxxxxx |     33333246 |     33333246 |     33333246 |xxxxxxxxxxxxx |xxxxxxxxxxxxx |xxxxxxxxxxxxx |xxxxxxxxxxxxx |     69568624 |     69568624 |     69568624 |xxxxxxxxxxxxx |xxxxxxxxxxxxx |xxxxxxxxxxxxx |xxxxxxxxxxxxx |    149196128 |    149196128 |    149196128 |
bpred_bimod.addr_hits                        54523 |        54527 |        54527 |xxxxxxxxxxxxx |xxxxxxxxxxxxx |xxxxxxxxxxxxx |xxxxxxxxxxxxx |       116892 |       116892 |       116892 |xxxxxxxxxxxxx |xxxxxxxxxxxxx |xxxxxxxxxxxxx |xxxxxxxxxxxxx |       256621 |       256618 |       256617 |xxxxxxxxxxxxx |xxxxxxxxxxxxx |xxxxxxxxxxxxx |xxxxxxxxxxxxx |       565483 |       565483 |       565484 |xxxxxxxxxxxxx |xxxxxxxxxxxxx |xxxxxxxxxxxxx |xxxxxxxxxxxxx |      1168287 |      1168287 |      1168287 |xxxxxxxxxxxxx |xxxxxxxxxxxxx |xxxxxxxxxxxxx |xxxxxxxxxxxxx |      2462948 |      2462949 |      2462952 |xxxxxxxxxxxxx |xxxxxxxxxxxxx |xxxxxxxxxxxxx |xxxxxxxxxxxxx |      5343579 |      5343579 |      5343580 |xxxxxxxxxxxxx |xxxxxxxxxxxxx |xxxxxxxxxxxxx |xxxxxxxxxxxxx |     11421273 |     11421274 |     11421277 |xxxxxxxxxxxxx |xxxxxxxxxxxxx |xxxxxxxxxxxxx |xxxxxxxxxxxxx |     24084739 |     24084741 |     24084742 |xxxxxxxxxxxxx |xxxxxxxxxxxxx |xxxxxxxxxxxxx |xxxxxxxxxxxxx |     49926843 |     49926845 |     49926846 |xxxxxxxxxxxxx |xxxxxxxxxxxxx |xxxxxxxxxxxxx |xxxxxxxxxxxxx |    108962163 |    108962165 |    108962166 |
bpred_bimod.dir_hits                         54638 |        54640 |        54640 |xxxxxxxxxxxxx |xxxxxxxxxxxxx |xxxxxxxxxxxxx |xxxxxxxxxxxxx |       117002 |       117001 |       117003 |xxxxxxxxxxxxx |xxxxxxxxxxxxx |xxxxxxxxxxxxx |xxxxxxxxxxxxx |       256738 |       256731 |       256730 |xxxxxxxxxxxxx |xxxxxxxxxxxxx |xxxxxxxxxxxxx |xxxxxxxxxxxxx |       565596 |       565595 |       565596 |xxxxxxxxxxxxx |xxxxxxxxxxxxx |xxxxxxxxxxxxx |xxxxxxxxxxxxx |      1168405 |      1168403 |      1168403 |xxxxxxxxxxxxx |xxxxxxxxxxxxx |xxxxxxxxxxxxx |xxxxxxxxxxxxx |      2463067 |      2463065 |      2463067 |xxxxxxxxxxxxx |xxxxxxxxxxxxx |xxxxxxxxxxxxx |xxxxxxxxxxxxx |      5343697 |      5343694 |      5343694 |xxxxxxxxxxxxx |xxxxxxxxxxxxx |xxxxxxxxxxxxx |xxxxxxxxxxxxx |     11421390 |     11421389 |     11421391 |xxxxxxxxxxxxx |xxxxxxxxxxxxx |xxxxxxxxxxxxx |xxxxxxxxxxxxx |     24084855 |     24084855 |     24084855 |xxxxxxxxxxxxx |xxxxxxxxxxxxx |xxxxxxxxxxxxx |xxxxxxxxxxxxx |     49926961 |     49926961 |     49926961 |xxxxxxxxxxxxx |xxxxxxxxxxxxx |xxxxxxxxxxxxx |xxxxxxxxxxxxx |    108962281 |    108962281 |    108962281 |
bpred_bimod.misses                           22472 |        22470 |        22470 |xxxxxxxxxxxxx |xxxxxxxxxxxxx |xxxxxxxxxxxxx |xxxxxxxxxxxxx |        49048 |        49049 |        49047 |xxxxxxxxxxxxx |xxxxxxxxxxxxx |xxxxxxxxxxxxx |xxxxxxxxxxxxx |       103332 |       103339 |       103340 |xxxxxxxxxxxxx |xxxxxxxxxxxxx |xxxxxxxxxxxxx |xxxxxxxxxxxxx |       215205 |       215206 |       215205 |xxxxxxxxxxxxx |xxxxxxxxxxxxx |xxxxxxxxxxxxx |xxxxxxxxxxxxx |       471132 |       471134 |       471134 |xxxxxxxxxxxxx |xxxxxxxxxxxxx |xxxxxxxxxxxxx |xxxxxxxxxxxxx |      1006055 |      1006057 |      1006055 |xxxxxxxxxxxxx |xxxxxxxxxxxxx |xxxxxxxxxxxxx |xxxxxxxxxxxxx |      2099639 |      2099642 |      2099642 |xxxxxxxxxxxxx |xxxxxxxxxxxxx |xxxxxxxxxxxxx |xxxxxxxxxxxxx |      4411590 |      4411591 |      4411589 |xxxxxxxxxxxxx |xxxxxxxxxxxxx |xxxxxxxxxxxxx |xxxxxxxxxxxxx |      9248391 |      9248391 |      9248391 |xxxxxxxxxxxxx |xxxxxxxxxxxxx |xxxxxxxxxxxxx |xxxxxxxxxxxxx |     19641663 |     19641663 |     19641663 |xxxxxxxxxxxxx |xxxxxxxxxxxxx |xxxxxxxxxxxxx |xxxxxxxxxxxxx |     40233847 |     40233847 |     40233847 |
bpred_bimod.jr_hits                             64 |           64 |           64 |xxxxxxxxxxxxx |xxxxxxxxxxxxx |xxxxxxxxxxxxx |xxxxxxxxxxxxx |           64 |           64 |           64 |xxxxxxxxxxxxx |xxxxxxxxxxxxx |xxxxxxxxxxxxx |xxxxxxxxxxxxx |           64 |           64 |           64 |xxxxxxxxxxxxx |xxxxxxxxxxxxx |xxxxxxxxxxxxx |xxxxxxxxxxxxx |           64 |           64 |           64 |xxxxxxxxxxxxx |xxxxxxxxxxxxx |xxxxxxxxxxxxx |xxxxxxxxxxxxx |           64 |           64 |           64 |xxxxxxxxxxxxx |xxxxxxxxxxxxx |xxxxxxxxxxxxx |xxxxxxxxxxxxx |           64 |           64 |           64 |xxxxxxxxxxxxx |xxxxxxxxxxxxx |xxxxxxxxxxxxx |xxxxxxxxxxxxx |           64 |           64 |           64 |xxxxxxxxxxxxx |xxxxxxxxxxxxx |xxxxxxxxxxxxx |xxxxxxxxxxxxx |           64 |           64 |           64 |xxxxxxxxxxxxx |xxxxxxxxxxxxx |xxxxxxxxxxxxx |xxxxxxxxxxxxx |           64 |           64 |           64 |xxxxxxxxxxxxx |xxxxxxxxxxxxx |xxxxxxxxxxxxx |xxxxxxxxxxxxx |           64 |           64 |           64 |xxxxxxxxxxxxx |xxxxxxxxxxxxx |xxxxxxxxxxxxx |xxxxxxxxxxxxx |           64 |           64 |           64 |
bpred_bimod.jr_seen                             64 |           64 |           64 |xxxxxxxxxxxxx |xxxxxxxxxxxxx |xxxxxxxxxxxxx |xxxxxxxxxxxxx |           64 |           64 |           64 |xxxxxxxxxxxxx |xxxxxxxxxxxxx |xxxxxxxxxxxxx |xxxxxxxxxxxxx |           64 |           64 |           64 |xxxxxxxxxxxxx |xxxxxxxxxxxxx |xxxxxxxxxxxxx |xxxxxxxxxxxxx |           64 |           64 |           64 |xxxxxxxxxxxxx |xxxxxxxxxxxxx |xxxxxxxxxxxxx |xxxxxxxxxxxxx |           64 |           64 |           64 |xxxxxxxxxxxxx |xxxxxxxxxxxxx |xxxxxxxxxxxxx |xxxxxxxxxxxxx |           64 |           64 |           64 |xxxxxxxxxxxxx |xxxxxxxxxxxxx |xxxxxxxxxxxxx |xxxxxxxxxxxxx |           64 |           64 |           64 |xxxxxxxxxxxxx |xxxxxxxxxxxxx |xxxxxxxxxxxxx |xxxxxxxxxxxxx |           64 |           64 |           64 |xxxxxxxxxxxxx |xxxxxxxxxxxxx |xxxxxxxxxxxxx |xxxxxxxxxxxxx |           64 |           64 |           64 |xxxxxxxxxxxxx |xxxxxxxxxxxxx |xxxxxxxxxxxxx |xxxxxxxxxxxxx |           64 |           64 |           64 |xxxxxxxxxxxxx |xxxxxxxxxxxxx |xxxxxxxxxxxxx |xxxxxxxxxxxxx |           64 |           64 |           64 |
bpred_bimod.jr_non_ras_hits.PP                   0 |            0 |            0 |xxxxxxxxxxxxx |xxxxxxxxxxxxx |xxxxxxxxxxxxx |xxxxxxxxxxxxx |            0 |            0 |            0 |xxxxxxxxxxxxx |xxxxxxxxxxxxx |xxxxxxxxxxxxx |xxxxxxxxxxxxx |            0 |            0 |            0 |xxxxxxxxxxxxx |xxxxxxxxxxxxx |xxxxxxxxxxxxx |xxxxxxxxxxxxx |            0 |            0 |            0 |xxxxxxxxxxxxx |xxxxxxxxxxxxx |xxxxxxxxxxxxx |xxxxxxxxxxxxx |            0 |            0 |            0 |xxxxxxxxxxxxx |xxxxxxxxxxxxx |xxxxxxxxxxxxx |xxxxxxxxxxxxx |            0 |            0 |            0 |xxxxxxxxxxxxx |xxxxxxxxxxxxx |xxxxxxxxxxxxx |xxxxxxxxxxxxx |            0 |            0 |            0 |xxxxxxxxxxxxx |xxxxxxxxxxxxx |xxxxxxxxxxxxx |xxxxxxxxxxxxx |            0 |            0 |            0 |xxxxxxxxxxxxx |xxxxxxxxxxxxx |xxxxxxxxxxxxx |xxxxxxxxxxxxx |            0 |            0 |            0 |xxxxxxxxxxxxx |xxxxxxxxxxxxx |xxxxxxxxxxxxx |xxxxxxxxxxxxx |            0 |            0 |            0 |xxxxxxxxxxxxx |xxxxxxxxxxxxx |xxxxxxxxxxxxx |xxxxxxxxxxxxx |            0 |            0 |            0 |
bpred_bimod.jr_non_ras_seen.PP                   0 |            0 |            0 |xxxxxxxxxxxxx |xxxxxxxxxxxxx |xxxxxxxxxxxxx |xxxxxxxxxxxxx |            0 |            0 |            0 |xxxxxxxxxxxxx |xxxxxxxxxxxxx |xxxxxxxxxxxxx |xxxxxxxxxxxxx |            0 |            0 |            0 |xxxxxxxxxxxxx |xxxxxxxxxxxxx |xxxxxxxxxxxxx |xxxxxxxxxxxxx |            0 |            0 |            0 |xxxxxxxxxxxxx |xxxxxxxxxxxxx |xxxxxxxxxxxxx |xxxxxxxxxxxxx |            0 |            0 |            0 |xxxxxxxxxxxxx |xxxxxxxxxxxxx |xxxxxxxxxxxxx |xxxxxxxxxxxxx |            0 |            0 |            0 |xxxxxxxxxxxxx |xxxxxxxxxxxxx |xxxxxxxxxxxxx |xxxxxxxxxxxxx |            0 |            0 |            0 |xxxxxxxxxxxxx |xxxxxxxxxxxxx |xxxxxxxxxxxxx |xxxxxxxxxxxxx |            0 |            0 |            0 |xxxxxxxxxxxxx |xxxxxxxxxxxxx |xxxxxxxxxxxxx |xxxxxxxxxxxxx |            0 |            0 |            0 |xxxxxxxxxxxxx |xxxxxxxxxxxxx |xxxxxxxxxxxxx |xxxxxxxxxxxxx |            0 |            0 |            0 |xxxxxxxxxxxxx |xxxxxxxxxxxxx |xxxxxxxxxxxxx |xxxxxxxxxxxxx |            0 |            0 |            0 |
bpred_bimod.bpred_addr_rate                 0.7071 |       0.7071 |       0.7071 |xxxxxxxxxxxxx |xxxxxxxxxxxxx |xxxxxxxxxxxxx |xxxxxxxxxxxxx |       0.7040 |       0.7040 |       0.7040 |xxxxxxxxxxxxx |xxxxxxxxxxxxx |xxxxxxxxxxxxx |xxxxxxxxxxxxx |       0.7127 |       0.7127 |       0.7127 |xxxxxxxxxxxxx |xxxxxxxxxxxxx |xxxxxxxxxxxxx |xxxxxxxxxxxxx |       0.7242 |       0.7242 |       0.7242 |xxxxxxxxxxxxx |xxxxxxxxxxxxx |xxxxxxxxxxxxx |xxxxxxxxxxxxx |       0.7126 |       0.7126 |       0.7126 |xxxxxxxxxxxxx |xxxxxxxxxxxxx |xxxxxxxxxxxxx |xxxxxxxxxxxxx |       0.7100 |       0.7100 |       0.7100 |xxxxxxxxxxxxx |xxxxxxxxxxxxx |xxxxxxxxxxxxx |xxxxxxxxxxxxx |       0.7179 |       0.7179 |       0.7179 |xxxxxxxxxxxxx |xxxxxxxxxxxxx |xxxxxxxxxxxxx |xxxxxxxxxxxxx |       0.7214 |       0.7214 |       0.7214 |xxxxxxxxxxxxx |xxxxxxxxxxxxx |xxxxxxxxxxxxx |xxxxxxxxxxxxx |       0.7225 |       0.7225 |       0.7225 |xxxxxxxxxxxxx |xxxxxxxxxxxxx |xxxxxxxxxxxxx |xxxxxxxxxxxxx |       0.7177 |       0.7177 |       0.7177 |xxxxxxxxxxxxx |xxxxxxxxxxxxx |xxxxxxxxxxxxx |xxxxxxxxxxxxx |       0.7303 |       0.7303 |       0.7303 |
bpred_bimod.bpred_dir_rate                  0.7086 |       0.7086 |       0.7086 |xxxxxxxxxxxxx |xxxxxxxxxxxxx |xxxxxxxxxxxxx |xxxxxxxxxxxxx |       0.7046 |       0.7046 |       0.7046 |xxxxxxxxxxxxx |xxxxxxxxxxxxx |xxxxxxxxxxxxx |xxxxxxxxxxxxx |       0.7130 |       0.7130 |       0.7130 |xxxxxxxxxxxxx |xxxxxxxxxxxxx |xxxxxxxxxxxxx |xxxxxxxxxxxxx |       0.7244 |       0.7244 |       0.7244 |xxxxxxxxxxxxx |xxxxxxxxxxxxx |xxxxxxxxxxxxx |xxxxxxxxxxxxx |       0.7126 |       0.7126 |       0.7126 |xxxxxxxxxxxxx |xxxxxxxxxxxxx |xxxxxxxxxxxxx |xxxxxxxxxxxxx |       0.7100 |       0.7100 |       0.7100 |xxxxxxxxxxxxx |xxxxxxxxxxxxx |xxxxxxxxxxxxx |xxxxxxxxxxxxx |       0.7179 |       0.7179 |       0.7179 |xxxxxxxxxxxxx |xxxxxxxxxxxxx |xxxxxxxxxxxxx |xxxxxxxxxxxxx |       0.7214 |       0.7214 |       0.7214 |xxxxxxxxxxxxx |xxxxxxxxxxxxx |xxxxxxxxxxxxx |xxxxxxxxxxxxx |       0.7225 |       0.7225 |       0.7225 |xxxxxxxxxxxxx |xxxxxxxxxxxxx |xxxxxxxxxxxxx |xxxxxxxxxxxxx |       0.7177 |       0.7177 |       0.7177 |xxxxxxxxxxxxx |xxxxxxxxxxxxx |xxxxxxxxxxxxx |xxxxxxxxxxxxx |       0.7303 |       0.7303 |       0.7303 |
bpred_bimod.bpred_jr_rate                   1.0000 |       1.0000 |       1.0000 |xxxxxxxxxxxxx |xxxxxxxxxxxxx |xxxxxxxxxxxxx |xxxxxxxxxxxxx |       1.0000 |       1.0000 |       1.0000 |xxxxxxxxxxxxx |xxxxxxxxxxxxx |xxxxxxxxxxxxx |xxxxxxxxxxxxx |       1.0000 |       1.0000 |       1.0000 |xxxxxxxxxxxxx |xxxxxxxxxxxxx |xxxxxxxxxxxxx |xxxxxxxxxxxxx |       1.0000 |       1.0000 |       1.0000 |xxxxxxxxxxxxx |xxxxxxxxxxxxx |xxxxxxxxxxxxx |xxxxxxxxxxxxx |       1.0000 |       1.0000 |       1.0000 |xxxxxxxxxxxxx |xxxxxxxxxxxxx |xxxxxxxxxxxxx |xxxxxxxxxxxxx |       1.0000 |       1.0000 |       1.0000 |xxxxxxxxxxxxx |xxxxxxxxxxxxx |xxxxxxxxxxxxx |xxxxxxxxxxxxx |       1.0000 |       1.0000 |       1.0000 |xxxxxxxxxxxxx |xxxxxxxxxxxxx |xxxxxxxxxxxxx |xxxxxxxxxxxxx |       1.0000 |       1.0000 |       1.0000 |xxxxxxxxxxxxx |xxxxxxxxxxxxx |xxxxxxxxxxxxx |xxxxxxxxxxxxx |       1.0000 |       1.0000 |       1.0000 |xxxxxxxxxxxxx |xxxxxxxxxxxxx |xxxxxxxxxxxxx |xxxxxxxxxxxxx |       1.0000 |       1.0000 |       1.0000 |xxxxxxxxxxxxx |xxxxxxxxxxxxx |xxxxxxxxxxxxx |xxxxxxxxxxxxx |       1.0000 |       1.0000 |       1.0000 |
bpred_bimod.bpred_jr_non_ras_rate.PP       <error: |      <error: |      <error: |xxxxxxxxxxxxx |xxxxxxxxxxxxx |xxxxxxxxxxxxx |xxxxxxxxxxxxx |      <error: |      <error: |      <error: |xxxxxxxxxxxxx |xxxxxxxxxxxxx |xxxxxxxxxxxxx |xxxxxxxxxxxxx |      <error: |      <error: |      <error: |xxxxxxxxxxxxx |xxxxxxxxxxxxx |xxxxxxxxxxxxx |xxxxxxxxxxxxx |      <error: |      <error: |      <error: |xxxxxxxxxxxxx |xxxxxxxxxxxxx |xxxxxxxxxxxxx |xxxxxxxxxxxxx |      <error: |      <error: |      <error: |xxxxxxxxxxxxx |xxxxxxxxxxxxx |xxxxxxxxxxxxx |xxxxxxxxxxxxx |      <error: |      <error: |      <error: |xxxxxxxxxxxxx |xxxxxxxxxxxxx |xxxxxxxxxxxxx |xxxxxxxxxxxxx |      <error: |      <error: |      <error: |xxxxxxxxxxxxx |xxxxxxxxxxxxx |xxxxxxxxxxxxx |xxxxxxxxxxxxx |      <error: |      <error: |      <error: |xxxxxxxxxxxxx |xxxxxxxxxxxxx |xxxxxxxxxxxxx |xxxxxxxxxxxxx |      <error: |      <error: |      <error: |xxxxxxxxxxxxx |xxxxxxxxxxxxx |xxxxxxxxxxxxx |xxxxxxxxxxxxx |      <error: |      <error: |      <error: |xxxxxxxxxxxxx |xxxxxxxxxxxxx |xxxxxxxxxxxxx |xxxxxxxxxxxxx |      <error: |      <error: |      <error: |
bpred_bimod.retstack_pushes                     66 |           66 |           66 |xxxxxxxxxxxxx |xxxxxxxxxxxxx |xxxxxxxxxxxxx |xxxxxxxxxxxxx |           66 |           66 |           66 |xxxxxxxxxxxxx |xxxxxxxxxxxxx |xxxxxxxxxxxxx |xxxxxxxxxxxxx |           66 |           66 |           66 |xxxxxxxxxxxxx |xxxxxxxxxxxxx |xxxxxxxxxxxxx |xxxxxxxxxxxxx |           66 |           66 |           66 |xxxxxxxxxxxxx |xxxxxxxxxxxxx |xxxxxxxxxxxxx |xxxxxxxxxxxxx |           66 |           66 |           66 |xxxxxxxxxxxxx |xxxxxxxxxxxxx |xxxxxxxxxxxxx |xxxxxxxxxxxxx |           66 |           66 |           66 |xxxxxxxxxxxxx |xxxxxxxxxxxxx |xxxxxxxxxxxxx |xxxxxxxxxxxxx |           66 |           66 |           66 |xxxxxxxxxxxxx |xxxxxxxxxxxxx |xxxxxxxxxxxxx |xxxxxxxxxxxxx |           66 |           66 |           66 |xxxxxxxxxxxxx |xxxxxxxxxxxxx |xxxxxxxxxxxxx |xxxxxxxxxxxxx |           66 |           66 |           66 |xxxxxxxxxxxxx |xxxxxxxxxxxxx |xxxxxxxxxxxxx |xxxxxxxxxxxxx |           66 |           66 |           66 |xxxxxxxxxxxxx |xxxxxxxxxxxxx |xxxxxxxxxxxxx |xxxxxxxxxxxxx |           66 |           66 |           66 |
bpred_bimod.retstack_pops                       64 |           64 |           64 |xxxxxxxxxxxxx |xxxxxxxxxxxxx |xxxxxxxxxxxxx |xxxxxxxxxxxxx |           64 |           64 |           64 |xxxxxxxxxxxxx |xxxxxxxxxxxxx |xxxxxxxxxxxxx |xxxxxxxxxxxxx |           64 |           64 |           64 |xxxxxxxxxxxxx |xxxxxxxxxxxxx |xxxxxxxxxxxxx |xxxxxxxxxxxxx |           64 |           64 |           64 |xxxxxxxxxxxxx |xxxxxxxxxxxxx |xxxxxxxxxxxxx |xxxxxxxxxxxxx |           64 |           64 |           64 |xxxxxxxxxxxxx |xxxxxxxxxxxxx |xxxxxxxxxxxxx |xxxxxxxxxxxxx |           64 |           64 |           64 |xxxxxxxxxxxxx |xxxxxxxxxxxxx |xxxxxxxxxxxxx |xxxxxxxxxxxxx |           64 |           64 |           64 |xxxxxxxxxxxxx |xxxxxxxxxxxxx |xxxxxxxxxxxxx |xxxxxxxxxxxxx |           64 |           64 |           64 |xxxxxxxxxxxxx |xxxxxxxxxxxxx |xxxxxxxxxxxxx |xxxxxxxxxxxxx |           64 |           64 |           64 |xxxxxxxxxxxxx |xxxxxxxxxxxxx |xxxxxxxxxxxxx |xxxxxxxxxxxxx |           64 |           64 |           64 |xxxxxxxxxxxxx |xxxxxxxxxxxxx |xxxxxxxxxxxxx |xxxxxxxxxxxxx |           64 |           64 |           64 |
bpred_bimod.used_ras.PP                         64 |           64 |           64 |xxxxxxxxxxxxx |xxxxxxxxxxxxx |xxxxxxxxxxxxx |xxxxxxxxxxxxx |           64 |           64 |           64 |xxxxxxxxxxxxx |xxxxxxxxxxxxx |xxxxxxxxxxxxx |xxxxxxxxxxxxx |           64 |           64 |           64 |xxxxxxxxxxxxx |xxxxxxxxxxxxx |xxxxxxxxxxxxx |xxxxxxxxxxxxx |           64 |           64 |           64 |xxxxxxxxxxxxx |xxxxxxxxxxxxx |xxxxxxxxxxxxx |xxxxxxxxxxxxx |           64 |           64 |           64 |xxxxxxxxxxxxx |xxxxxxxxxxxxx |xxxxxxxxxxxxx |xxxxxxxxxxxxx |           64 |           64 |           64 |xxxxxxxxxxxxx |xxxxxxxxxxxxx |xxxxxxxxxxxxx |xxxxxxxxxxxxx |           64 |           64 |           64 |xxxxxxxxxxxxx |xxxxxxxxxxxxx |xxxxxxxxxxxxx |xxxxxxxxxxxxx |           64 |           64 |           64 |xxxxxxxxxxxxx |xxxxxxxxxxxxx |xxxxxxxxxxxxx |xxxxxxxxxxxxx |           64 |           64 |           64 |xxxxxxxxxxxxx |xxxxxxxxxxxxx |xxxxxxxxxxxxx |xxxxxxxxxxxxx |           64 |           64 |           64 |xxxxxxxxxxxxx |xxxxxxxxxxxxx |xxxxxxxxxxxxx |xxxxxxxxxxxxx |           64 |           64 |           64 |
bpred_bimod.ras_hits.PP                         64 |           64 |           64 |xxxxxxxxxxxxx |xxxxxxxxxxxxx |xxxxxxxxxxxxx |xxxxxxxxxxxxx |           64 |           64 |           64 |xxxxxxxxxxxxx |xxxxxxxxxxxxx |xxxxxxxxxxxxx |xxxxxxxxxxxxx |           64 |           64 |           64 |xxxxxxxxxxxxx |xxxxxxxxxxxxx |xxxxxxxxxxxxx |xxxxxxxxxxxxx |           64 |           64 |           64 |xxxxxxxxxxxxx |xxxxxxxxxxxxx |xxxxxxxxxxxxx |xxxxxxxxxxxxx |           64 |           64 |           64 |xxxxxxxxxxxxx |xxxxxxxxxxxxx |xxxxxxxxxxxxx |xxxxxxxxxxxxx |           64 |           64 |           64 |xxxxxxxxxxxxx |xxxxxxxxxxxxx |xxxxxxxxxxxxx |xxxxxxxxxxxxx |           64 |           64 |           64 |xxxxxxxxxxxxx |xxxxxxxxxxxxx |xxxxxxxxxxxxx |xxxxxxxxxxxxx |           64 |           64 |           64 |xxxxxxxxxxxxx |xxxxxxxxxxxxx |xxxxxxxxxxxxx |xxxxxxxxxxxxx |           64 |           64 |           64 |xxxxxxxxxxxxx |xxxxxxxxxxxxx |xxxxxxxxxxxxx |xxxxxxxxxxxxx |           64 |           64 |           64 |xxxxxxxxxxxxx |xxxxxxxxxxxxx |xxxxxxxxxxxxx |xxxxxxxxxxxxx |           64 |           64 |           64 |
bpred_bimod.ras_rate.PP                     1.0000 |       1.0000 |       1.0000 |xxxxxxxxxxxxx |xxxxxxxxxxxxx |xxxxxxxxxxxxx |xxxxxxxxxxxxx |       1.0000 |       1.0000 |       1.0000 |xxxxxxxxxxxxx |xxxxxxxxxxxxx |xxxxxxxxxxxxx |xxxxxxxxxxxxx |       1.0000 |       1.0000 |       1.0000 |xxxxxxxxxxxxx |xxxxxxxxxxxxx |xxxxxxxxxxxxx |xxxxxxxxxxxxx |       1.0000 |       1.0000 |       1.0000 |xxxxxxxxxxxxx |xxxxxxxxxxxxx |xxxxxxxxxxxxx |xxxxxxxxxxxxx |       1.0000 |       1.0000 |       1.0000 |xxxxxxxxxxxxx |xxxxxxxxxxxxx |xxxxxxxxxxxxx |xxxxxxxxxxxxx |       1.0000 |       1.0000 |       1.0000 |xxxxxxxxxxxxx |xxxxxxxxxxxxx |xxxxxxxxxxxxx |xxxxxxxxxxxxx |       1.0000 |       1.0000 |       1.0000 |xxxxxxxxxxxxx |xxxxxxxxxxxxx |xxxxxxxxxxxxx |xxxxxxxxxxxxx |       1.0000 |       1.0000 |       1.0000 |xxxxxxxxxxxxx |xxxxxxxxxxxxx |xxxxxxxxxxxxx |xxxxxxxxxxxxx |       1.0000 |       1.0000 |       1.0000 |xxxxxxxxxxxxx |xxxxxxxxxxxxx |xxxxxxxxxxxxx |xxxxxxxxxxxxx |       1.0000 |       1.0000 |       1.0000 |xxxxxxxxxxxxx |xxxxxxxxxxxxx |xxxxxxxxxxxxx |xxxxxxxxxxxxx |       1.0000 |       1.0000 |       1.0000 |
bpred_2lev.lookups                   xxxxxxxxxxxxx |xxxxxxxxxxxxx |xxxxxxxxxxxxx |        77110 |        77110 |        77110 |        77110 |xxxxxxxxxxxxx |xxxxxxxxxxxxx |xxxxxxxxxxxxx |       166050 |       166050 |       166050 |       166050 |xxxxxxxxxxxxx |xxxxxxxxxxxxx |xxxxxxxxxxxxx |       360070 |       360070 |       360070 |       360070 |xxxxxxxxxxxxx |xxxxxxxxxxxxx |xxxxxxxxxxxxx |       780801 |       780801 |       780801 |       780801 |xxxxxxxxxxxxx |xxxxxxxxxxxxx |xxxxxxxxxxxxx |      1639537 |      1639537 |      1639537 |      1639537 |xxxxxxxxxxxxx |xxxxxxxxxxxxx |xxxxxxxxxxxxx |      3469122 |      3469122 |      3469122 |      3469122 |xxxxxxxxxxxxx |xxxxxxxxxxxxx |xxxxxxxxxxxxx |      7443336 |      7443336 |      7443336 |      7443336 |xxxxxxxxxxxxx |xxxxxxxxxxxxx |xxxxxxxxxxxxx |     15832980 |     15832980 |     15832980 |     15832980 |xxxxxxxxxxxxx |xxxxxxxxxxxxx |xxxxxxxxxxxxx |     33333246 |     33333246 |     33333246 |     33333246 |xxxxxxxxxxxxx |xxxxxxxxxxxxx |xxxxxxxxxxxxx |     69568624 |     69568624 |     69568624 |     69568624 |xxxxxxxxxxxxx |xxxxxxxxxxxxx |xxxxxxxxxxxxx |    149196128 |    149196128 |    149196128 |    149196128 |
[...]
bpred_2lev.retstack_pushes           xxxxxxxxxxxxx |xxxxxxxxxxxxx |xxxxxxxxxxxxx |           66 |           66 |           66 |           66 |xxxxxxxxxxxxx |xxxxxxxxxxxxx |xxxxxxxxxxxxx |           66 |           66 |           66 |           66 |xxxxxxxxxxxxx |xxxxxxxxxxxxx |xxxxxxxxxxxxx |           66 |           66 |           66 |           66 |xxxxxxxxxxxxx |xxxxxxxxxxxxx |xxxxxxxxxxxxx |           66 |           66 |           66 |           66 |xxxxxxxxxxxxx |xxxxxxxxxxxxx |xxxxxxxxxxxxx |           66 |           66 |           66 |           66 |xxxxxxxxxxxxx |xxxxxxxxxxxxx |xxxxxxxxxxxxx |           66 |           66 |           66 |           66 |xxxxxxxxxxxxx |xxxxxxxxxxxxx |xxxxxxxxxxxxx |           66 |           66 |           66 |           66 |xxxxxxxxxxxxx |xxxxxxxxxxxxx |xxxxxxxxxxxxx |           66 |           66 |           66 |           66 |xxxxxxxxxxxxx |xxxxxxxxxxxxx |xxxxxxxxxxxxx |           66 |           66 |           66 |           66 |xxxxxxxxxxxxx |xxxxxxxxxxxxx |xxxxxxxxxxxxx |           66 |           66 |           66 |           66 |xxxxxxxxxxxxx |xxxxxxxxxxxxx |xxxxxxxxxxxxx |           66 |           66 |           66 |           66 |
bpred_2lev.retstack_pops             xxxxxxxxxxxxx |xxxxxxxxxxxxx |xxxxxxxxxxxxx |           64 |           64 |           64 |           64 |xxxxxxxxxxxxx |xxxxxxxxxxxxx |xxxxxxxxxxxxx |           64 |           64 |           64 |           64 |xxxxxxxxxxxxx |xxxxxxxxxxxxx |xxxxxxxxxxxxx |           64 |           64 |           64 |           64 |xxxxxxxxxxxxx |xxxxxxxxxxxxx |xxxxxxxxxxxxx |           64 |           64 |           64 |           64 |xxxxxxxxxxxxx |xxxxxxxxxxxxx |xxxxxxxxxxxxx |           64 |           64 |           64 |           64 |xxxxxxxxxxxxx |xxxxxxxxxxxxx |xxxxxxxxxxxxx |           64 |           64 |           64 |           64 |xxxxxxxxxxxxx |xxxxxxxxxxxxx |xxxxxxxxxxxxx |           64 |           64 |           64 |           64 |xxxxxxxxxxxxx |xxxxxxxxxxxxx |xxxxxxxxxxxxx |           64 |           64 |           64 |           64 |xxxxxxxxxxxxx |xxxxxxxxxxxxx |xxxxxxxxxxxxx |           64 |           64 |           64 |           64 |xxxxxxxxxxxxx |xxxxxxxxxxxxx |xxxxxxxxxxxxx |           64 |           64 |           64 |           64 |xxxxxxxxxxxxx |xxxxxxxxxxxxx |xxxxxxxxxxxxx |           64 |           64 |           64 |           64 |
bpred_2lev.used_ras.PP               xxxxxxxxxxxxx |xxxxxxxxxxxxx |xxxxxxxxxxxxx |           64 |           64 |           64 |           64 |xxxxxxxxxxxxx |xxxxxxxxxxxxx |xxxxxxxxxxxxx |           64 |           64 |           64 |           64 |xxxxxxxxxxxxx |xxxxxxxxxxxxx |xxxxxxxxxxxxx |           64 |           64 |           64 |           64 |xxxxxxxxxxxxx |xxxxxxxxxxxxx |xxxxxxxxxxxxx |           64 |           64 |           64 |           64 |xxxxxxxxxxxxx |xxxxxxxxxxxxx |xxxxxxxxxxxxx |           64 |           64 |           64 |           64 |xxxxxxxxxxxxx |xxxxxxxxxxxxx |xxxxxxxxxxxxx |           64 |           64 |           64 |           64 |xxxxxxxxxxxxx |xxxxxxxxxxxxx |xxxxxxxxxxxxx |           64 |           64 |           64 |           64 |xxxxxxxxxxxxx |xxxxxxxxxxxxx |xxxxxxxxxxxxx |           64 |           64 |           64 |           64 |xxxxxxxxxxxxx |xxxxxxxxxxxxx |xxxxxxxxxxxxx |           64 |           64 |           64 |           64 |xxxxxxxxxxxxx |xxxxxxxxxxxxx |xxxxxxxxxxxxx |           64 |           64 |           64 |           64 |xxxxxxxxxxxxx |xxxxxxxxxxxxx |xxxxxxxxxxxxx |           64 |           64 |           64 |           64 |
bpred_2lev.ras_hits.PP               xxxxxxxxxxxxx |xxxxxxxxxxxxx |xxxxxxxxxxxxx |           64 |           64 |           64 |           64 |xxxxxxxxxxxxx |xxxxxxxxxxxxx |xxxxxxxxxxxxx |           64 |           64 |           64 |           64 |xxxxxxxxxxxxx |xxxxxxxxxxxxx |xxxxxxxxxxxxx |           64 |           64 |           64 |           64 |xxxxxxxxxxxxx |xxxxxxxxxxxxx |xxxxxxxxxxxxx |           64 |           64 |           64 |           64 |xxxxxxxxxxxxx |xxxxxxxxxxxxx |xxxxxxxxxxxxx |           64 |           64 |           64 |           64 |xxxxxxxxxxxxx |xxxxxxxxxxxxx |xxxxxxxxxxxxx |           64 |           64 |           64 |           64 |xxxxxxxxxxxxx |xxxxxxxxxxxxx |xxxxxxxxxxxxx |           64 |           64 |           64 |           64 |xxxxxxxxxxxxx |xxxxxxxxxxxxx |xxxxxxxxxxxxx |           64 |           64 |           64 |           64 |xxxxxxxxxxxxx |xxxxxxxxxxxxx |xxxxxxxxxxxxx |           64 |           64 |           64 |           64 |xxxxxxxxxxxxx |xxxxxxxxxxxxx |xxxxxxxxxxxxx |           64 |           64 |           64 |           64 |xxxxxxxxxxxxx |xxxxxxxxxxxxx |xxxxxxxxxxxxx |           64 |           64 |           64 |           64 |
bpred_2lev.ras_rate.PP               xxxxxxxxxxxxx |xxxxxxxxxxxxx |xxxxxxxxxxxxx |       1.0000 |       1.0000 |       1.0000 |       1.0000 |xxxxxxxxxxxxx |xxxxxxxxxxxxx |xxxxxxxxxxxxx |       1.0000 |       1.0000 |       1.0000 |       1.0000 |xxxxxxxxxxxxx |xxxxxxxxxxxxx |xxxxxxxxxxxxx |       1.0000 |       1.0000 |       1.0000 |       1.0000 |xxxxxxxxxxxxx |xxxxxxxxxxxxx |xxxxxxxxxxxxx |       1.0000 |       1.0000 |       1.0000 |       1.0000 |xxxxxxxxxxxxx |xxxxxxxxxxxxx |xxxxxxxxxxxxx |       1.0000 |       1.0000 |       1.0000 |       1.0000 |xxxxxxxxxxxxx |xxxxxxxxxxxxx |xxxxxxxxxxxxx |       1.0000 |       1.0000 |       1.0000 |       1.0000 |xxxxxxxxxxxxx |xxxxxxxxxxxxx |xxxxxxxxxxxxx |       1.0000 |       1.0000 |       1.0000 |       1.0000 |xxxxxxxxxxxxx |xxxxxxxxxxxxx |xxxxxxxxxxxxx |       1.0000 |       1.0000 |       1.0000 |       1.0000 |xxxxxxxxxxxxx |xxxxxxxxxxxxx |xxxxxxxxxxxxx |       1.0000 |       1.0000 |       1.0000 |       1.0000 |xxxxxxxxxxxxx |xxxxxxxxxxxxx |xxxxxxxxxxxxx |       1.0000 |       1.0000 |       1.0000 |       1.0000 |xxxxxxxxxxxxx |xxxxxxxxxxxxx |xxxxxxxxxxxxx |       1.0000 |       1.0000 |       1.0000 |       1.0000 |

Command list: 
	sslittle-na-sstrix-gcc -Wall -O3 -funroll-loops -finline-functions  -DRANDOM_SIZE=4096 -DOFFSET=0 -DSORT=base_quicksort5 sorts/base_quicksort51433359774.c simpleMain.c -o base_quicksort51187172912
	sim-cache -cache:dl1 dl1:256:32:1:l -cache:dl2 dl2:131072:32:1:l -cache:il1 il1:256:32:1:l -cache:il2 dl2 base_quicksort51187172912
	sim-cache -cache:dl1 dl1:256:32:1:l -cache:dl2 dl2:65536:32:1:l -cache:il1 il1:256:32:1:l -cache:il2 dl2 base_quicksort51187172912
	sim-cache -cache:dl1 dl1:1:32:256:l -cache:dl2 dl2:1:32:131072:l -cache:il1 il1:1:32:256:l -cache:il2 dl2 base_quicksort51187172912
	sim-cache -cache:dl1 dl1:1:32:256:l -cache:dl2 dl2:1:32:65536:l -cache:il1 il1:1:32:256:l -cache:il2 dl2 base_quicksort51187172912
	sim-bpred -bpred bimod -bpred:bimod 512 base_quicksort51187172912
	sim-bpred -bpred bimod -bpred:bimod 1024 base_quicksort51187172912
	sim-bpred -bpred bimod -bpred:bimod 2048 base_quicksort51187172912
	sim-bpred -bpred 2lev -bpred:2lev 1 512 10 1 base_quicksort51187172912
	sim-bpred -bpred 2lev -bpred:2lev 1 1024 10 1 base_quicksort51187172912
	sim-bpred -bpred 2lev -bpred:2lev 1 2048 10 1 base_quicksort51187172912
	sim-bpred -bpred 2lev -bpred:2lev 1 4096 10 1 base_quicksort51187172912
	sslittle-na-sstrix-gcc -Wall -O3 -funroll-loops -finline-functions  -DRANDOM_SIZE=8192 -DOFFSET=0 -DSORT=base_quicksort5 sorts/base_quicksort51433359774.c simpleMain.c -o base_quicksort51187172912
	sim-cache -cache:dl1 dl1:256:32:1:l -cache:dl2 dl2:131072:32:1:l -cache:il1 il1:256:32:1:l -cache:il2 dl2 base_quicksort51187172912
	sim-cache -cache:dl1 dl1:256:32:1:l -cache:dl2 dl2:65536:32:1:l -cache:il1 il1:256:32:1:l -cache:il2 dl2 base_quicksort51187172912
	sim-cache -cache:dl1 dl1:1:32:256:l -cache:dl2 dl2:1:32:131072:l -cache:il1 il1:1:32:256:l -cache:il2 dl2 base_quicksort51187172912
	sim-cache -cache:dl1 dl1:1:32:256:l -cache:dl2 dl2:1:32:65536:l -cache:il1 il1:1:32:256:l -cache:il2 dl2 base_quicksort51187172912
	sim-bpred -bpred bimod -bpred:bimod 512 base_quicksort51187172912
	sim-bpred -bpred bimod -bpred:bimod 1024 base_quicksort51187172912
	sim-bpred -bpred bimod -bpred:bimod 2048 base_quicksort51187172912
	sim-bpred -bpred 2lev -bpred:2lev 1 512 10 1 base_quicksort51187172912
	sim-bpred -bpred 2lev -bpred:2lev 1 1024 10 1 base_quicksort51187172912
	sim-bpred -bpred 2lev -bpred:2lev 1 2048 10 1 base_quicksort51187172912
	sim-bpred -bpred 2lev -bpred:2lev 1 4096 10 1 base_quicksort51187172912
	sslittle-na-sstrix-gcc -Wall -O3 -funroll-loops -finline-functions  -DRANDOM_SIZE=16384 -DOFFSET=0 -DSORT=base_quicksort5 sorts/base_quicksort51433359774.c simpleMain.c -o base_quicksort51187172912
	sim-cache -cache:dl1 dl1:256:32:1:l -cache:dl2 dl2:131072:32:1:l -cache:il1 il1:256:32:1:l -cache:il2 dl2 base_quicksort51187172912
	sim-cache -cache:dl1 dl1:256:32:1:l -cache:dl2 dl2:65536:32:1:l -cache:il1 il1:256:32:1:l -cache:il2 dl2 base_quicksort51187172912
	sim-cache -cache:dl1 dl1:1:32:256:l -cache:dl2 dl2:1:32:131072:l -cache:il1 il1:1:32:256:l -cache:il2 dl2 base_quicksort51187172912
	sim-cache -cache:dl1 dl1:1:32:256:l -cache:dl2 dl2:1:32:65536:l -cache:il1 il1:1:32:256:l -cache:il2 dl2 base_quicksort51187172912
	sim-bpred -bpred bimod -bpred:bimod 512 base_quicksort51187172912
	sim-bpred -bpred bimod -bpred:bimod 1024 base_quicksort51187172912
	sim-bpred -bpred bimod -bpred:bimod 2048 base_quicksort51187172912
	sim-bpred -bpred 2lev -bpred:2lev 1 512 10 1 base_quicksort51187172912
	sim-bpred -bpred 2lev -bpred:2lev 1 1024 10 1 base_quicksort51187172912
	sim-bpred -bpred 2lev -bpred:2lev 1 2048 10 1 base_quicksort51187172912
	sim-bpred -bpred 2lev -bpred:2lev 1 4096 10 1 base_quicksort51187172912
	sslittle-na-sstrix-gcc -Wall -O3 -funroll-loops -finline-functions  -DRANDOM_SIZE=32768 -DOFFSET=0 -DSORT=base_quicksort5 sorts/base_quicksort51433359774.c simpleMain.c -o base_quicksort51187172912
	sim-cache -cache:dl1 dl1:256:32:1:l -cache:dl2 dl2:131072:32:1:l -cache:il1 il1:256:32:1:l -cache:il2 dl2 base_quicksort51187172912
	sim-cache -cache:dl1 dl1:256:32:1:l -cache:dl2 dl2:65536:32:1:l -cache:il1 il1:256:32:1:l -cache:il2 dl2 base_quicksort51187172912
	sim-cache -cache:dl1 dl1:1:32:256:l -cache:dl2 dl2:1:32:131072:l -cache:il1 il1:1:32:256:l -cache:il2 dl2 base_quicksort51187172912
	sim-cache -cache:dl1 dl1:1:32:256:l -cache:dl2 dl2:1:32:65536:l -cache:il1 il1:1:32:256:l -cache:il2 dl2 base_quicksort51187172912
	sim-bpred -bpred bimod -bpred:bimod 512 base_quicksort51187172912
	sim-bpred -bpred bimod -bpred:bimod 1024 base_quicksort51187172912
	sim-bpred -bpred bimod -bpred:bimod 2048 base_quicksort51187172912
	sim-bpred -bpred 2lev -bpred:2lev 1 512 10 1 base_quicksort51187172912
	sim-bpred -bpred 2lev -bpred:2lev 1 1024 10 1 base_quicksort51187172912
	sim-bpred -bpred 2lev -bpred:2lev 1 2048 10 1 base_quicksort51187172912
	sim-bpred -bpred 2lev -bpred:2lev 1 4096 10 1 base_quicksort51187172912
	sslittle-na-sstrix-gcc -Wall -O3 -funroll-loops -finline-functions  -DRANDOM_SIZE=65536 -DOFFSET=0 -DSORT=base_quicksort5 sorts/base_quicksort51433359774.c simpleMain.c -o base_quicksort51187172912
	sim-cache -cache:dl1 dl1:256:32:1:l -cache:dl2 dl2:131072:32:1:l -cache:il1 il1:256:32:1:l -cache:il2 dl2 base_quicksort51187172912
	sim-cache -cache:dl1 dl1:256:32:1:l -cache:dl2 dl2:65536:32:1:l -cache:il1 il1:256:32:1:l -cache:il2 dl2 base_quicksort51187172912
	sim-cache -cache:dl1 dl1:1:32:256:l -cache:dl2 dl2:1:32:131072:l -cache:il1 il1:1:32:256:l -cache:il2 dl2 base_quicksort51187172912
	sim-cache -cache:dl1 dl1:1:32:256:l -cache:dl2 dl2:1:32:65536:l -cache:il1 il1:1:32:256:l -cache:il2 dl2 base_quicksort51187172912
	sim-bpred -bpred bimod -bpred:bimod 512 base_quicksort51187172912
	sim-bpred -bpred bimod -bpred:bimod 1024 base_quicksort51187172912
	sim-bpred -bpred bimod -bpred:bimod 2048 base_quicksort51187172912
	sim-bpred -bpred 2lev -bpred:2lev 1 512 10 1 base_quicksort51187172912
	sim-bpred -bpred 2lev -bpred:2lev 1 1024 10 1 base_quicksort51187172912
	sim-bpred -bpred 2lev -bpred:2lev 1 2048 10 1 base_quicksort51187172912
	sim-bpred -bpred 2lev -bpred:2lev 1 4096 10 1 base_quicksort51187172912
	sslittle-na-sstrix-gcc -Wall -O3 -funroll-loops -finline-functions  -DRANDOM_SIZE=131072 -DOFFSET=0 -DSORT=base_quicksort5 sorts/base_quicksort51433359774.c simpleMain.c -o base_quicksort51187172912
	sim-cache -cache:dl1 dl1:256:32:1:l -cache:dl2 dl2:131072:32:1:l -cache:il1 il1:256:32:1:l -cache:il2 dl2 base_quicksort51187172912
	sim-cache -cache:dl1 dl1:256:32:1:l -cache:dl2 dl2:65536:32:1:l -cache:il1 il1:256:32:1:l -cache:il2 dl2 base_quicksort51187172912
	sim-cache -cache:dl1 dl1:1:32:256:l -cache:dl2 dl2:1:32:131072:l -cache:il1 il1:1:32:256:l -cache:il2 dl2 base_quicksort51187172912
	sim-cache -cache:dl1 dl1:1:32:256:l -cache:dl2 dl2:1:32:65536:l -cache:il1 il1:1:32:256:l -cache:il2 dl2 base_quicksort51187172912
	sim-bpred -bpred bimod -bpred:bimod 512 base_quicksort51187172912
	sim-bpred -bpred bimod -bpred:bimod 1024 base_quicksort51187172912
	sim-bpred -bpred bimod -bpred:bimod 2048 base_quicksort51187172912
	sim-bpred -bpred 2lev -bpred:2lev 1 512 10 1 base_quicksort51187172912
	sim-bpred -bpred 2lev -bpred:2lev 1 1024 10 1 base_quicksort51187172912
	sim-bpred -bpred 2lev -bpred:2lev 1 2048 10 1 base_quicksort51187172912
	sim-bpred -bpred 2lev -bpred:2lev 1 4096 10 1 base_quicksort51187172912
	sslittle-na-sstrix-gcc -Wall -O3 -funroll-loops -finline-functions  -DRANDOM_SIZE=262144 -DOFFSET=0 -DSORT=base_quicksort5 sorts/base_quicksort51433359774.c simpleMain.c -o base_quicksort51187172912
	sim-cache -cache:dl1 dl1:256:32:1:l -cache:dl2 dl2:131072:32:1:l -cache:il1 il1:256:32:1:l -cache:il2 dl2 base_quicksort51187172912
	sim-cache -cache:dl1 dl1:256:32:1:l -cache:dl2 dl2:65536:32:1:l -cache:il1 il1:256:32:1:l -cache:il2 dl2 base_quicksort51187172912
	sim-cache -cache:dl1 dl1:1:32:256:l -cache:dl2 dl2:1:32:131072:l -cache:il1 il1:1:32:256:l -cache:il2 dl2 base_quicksort51187172912
	sim-cache -cache:dl1 dl1:1:32:256:l -cache:dl2 dl2:1:32:65536:l -cache:il1 il1:1:32:256:l -cache:il2 dl2 base_quicksort51187172912
	sim-bpred -bpred bimod -bpred:bimod 512 base_quicksort51187172912
	sim-bpred -bpred bimod -bpred:bimod 1024 base_quicksort51187172912
	sim-bpred -bpred bimod -bpred:bimod 2048 base_quicksort51187172912
	sim-bpred -bpred 2lev -bpred:2lev 1 512 10 1 base_quicksort51187172912
	sim-bpred -bpred 2lev -bpred:2lev 1 1024 10 1 base_quicksort51187172912
	sim-bpred -bpred 2lev -bpred:2lev 1 2048 10 1 base_quicksort51187172912
	sim-bpred -bpred 2lev -bpred:2lev 1 4096 10 1 base_quicksort51187172912
	sslittle-na-sstrix-gcc -Wall -O3 -funroll-loops -finline-functions  -DRANDOM_SIZE=524288 -DOFFSET=0 -DSORT=base_quicksort5 sorts/base_quicksort51433359774.c simpleMain.c -o base_quicksort51187172912
	sim-cache -cache:dl1 dl1:256:32:1:l -cache:dl2 dl2:131072:32:1:l -cache:il1 il1:256:32:1:l -cache:il2 dl2 base_quicksort51187172912
	sim-cache -cache:dl1 dl1:256:32:1:l -cache:dl2 dl2:65536:32:1:l -cache:il1 il1:256:32:1:l -cache:il2 dl2 base_quicksort51187172912
	sim-cache -cache:dl1 dl1:1:32:256:l -cache:dl2 dl2:1:32:131072:l -cache:il1 il1:1:32:256:l -cache:il2 dl2 base_quicksort51187172912
	sim-cache -cache:dl1 dl1:1:32:256:l -cache:dl2 dl2:1:32:65536:l -cache:il1 il1:1:32:256:l -cache:il2 dl2 base_quicksort51187172912
	sim-bpred -bpred bimod -bpred:bimod 512 base_quicksort51187172912
	sim-bpred -bpred bimod -bpred:bimod 1024 base_quicksort51187172912
	sim-bpred -bpred bimod -bpred:bimod 2048 base_quicksort51187172912
	sim-bpred -bpred 2lev -bpred:2lev 1 512 10 1 base_quicksort51187172912
	sim-bpred -bpred 2lev -bpred:2lev 1 1024 10 1 base_quicksort51187172912
	sim-bpred -bpred 2lev -bpred:2lev 1 2048 10 1 base_quicksort51187172912
	sim-bpred -bpred 2lev -bpred:2lev 1 4096 10 1 base_quicksort51187172912
	sslittle-na-sstrix-gcc -Wall -O3 -funroll-loops -finline-functions  -DRANDOM_SIZE=1048576 -DOFFSET=0 -DSORT=base_quicksort5 sorts/base_quicksort51433359774.c simpleMain.c -o base_quicksort51187172912
	sim-cache -cache:dl1 dl1:256:32:1:l -cache:dl2 dl2:131072:32:1:l -cache:il1 il1:256:32:1:l -cache:il2 dl2 base_quicksort51187172912
	sim-cache -cache:dl1 dl1:256:32:1:l -cache:dl2 dl2:65536:32:1:l -cache:il1 il1:256:32:1:l -cache:il2 dl2 base_quicksort51187172912
	sim-cache -cache:dl1 dl1:1:32:256:l -cache:dl2 dl2:1:32:131072:l -cache:il1 il1:1:32:256:l -cache:il2 dl2 base_quicksort51187172912
	sim-cache -cache:dl1 dl1:1:32:256:l -cache:dl2 dl2:1:32:65536:l -cache:il1 il1:1:32:256:l -cache:il2 dl2 base_quicksort51187172912
	sim-bpred -bpred bimod -bpred:bimod 512 base_quicksort51187172912
	sim-bpred -bpred bimod -bpred:bimod 1024 base_quicksort51187172912
	sim-bpred -bpred bimod -bpred:bimod 2048 base_quicksort51187172912
	sim-bpred -bpred 2lev -bpred:2lev 1 512 10 1 base_quicksort51187172912
	sim-bpred -bpred 2lev -bpred:2lev 1 1024 10 1 base_quicksort51187172912
	sim-bpred -bpred 2lev -bpred:2lev 1 2048 10 1 base_quicksort51187172912
	sim-bpred -bpred 2lev -bpred:2lev 1 4096 10 1 base_quicksort51187172912
	sslittle-na-sstrix-gcc -Wall -O3 -funroll-loops -finline-functions  -DRANDOM_SIZE=2097152 -DOFFSET=0 -DSORT=base_quicksort5 sorts/base_quicksort51433359774.c simpleMain.c -o base_quicksort51187172912
	sim-cache -cache:dl1 dl1:256:32:1:l -cache:dl2 dl2:131072:32:1:l -cache:il1 il1:256:32:1:l -cache:il2 dl2 base_quicksort51187172912
	sim-cache -cache:dl1 dl1:256:32:1:l -cache:dl2 dl2:65536:32:1:l -cache:il1 il1:256:32:1:l -cache:il2 dl2 base_quicksort51187172912
	sim-cache -cache:dl1 dl1:1:32:256:l -cache:dl2 dl2:1:32:131072:l -cache:il1 il1:1:32:256:l -cache:il2 dl2 base_quicksort51187172912
	sim-cache -cache:dl1 dl1:1:32:256:l -cache:dl2 dl2:1:32:65536:l -cache:il1 il1:1:32:256:l -cache:il2 dl2 base_quicksort51187172912
	sim-bpred -bpred bimod -bpred:bimod 512 base_quicksort51187172912
	sim-bpred -bpred bimod -bpred:bimod 1024 base_quicksort51187172912
	sim-bpred -bpred bimod -bpred:bimod 2048 base_quicksort51187172912
	sim-bpred -bpred 2lev -bpred:2lev 1 512 10 1 base_quicksort51187172912
	sim-bpred -bpred 2lev -bpred:2lev 1 1024 10 1 base_quicksort51187172912
	sim-bpred -bpred 2lev -bpred:2lev 1 2048 10 1 base_quicksort51187172912
	sim-bpred -bpred 2lev -bpred:2lev 1 4096 10 1 base_quicksort51187172912
	sslittle-na-sstrix-gcc -Wall -O3 -funroll-loops -finline-functions  -DRANDOM_SIZE=4194304 -DOFFSET=0 -DSORT=base_quicksort5 sorts/base_quicksort51433359774.c simpleMain.c -o base_quicksort51187172912
	sim-cache -cache:dl1 dl1:256:32:1:l -cache:dl2 dl2:131072:32:1:l -cache:il1 il1:256:32:1:l -cache:il2 dl2 base_quicksort51187172912
	sim-cache -cache:dl1 dl1:256:32:1:l -cache:dl2 dl2:65536:32:1:l -cache:il1 il1:256:32:1:l -cache:il2 dl2 base_quicksort51187172912
	sim-cache -cache:dl1 dl1:1:32:256:l -cache:dl2 dl2:1:32:131072:l -cache:il1 il1:1:32:256:l -cache:il2 dl2 base_quicksort51187172912
	sim-cache -cache:dl1 dl1:1:32:256:l -cache:dl2 dl2:1:32:65536:l -cache:il1 il1:1:32:256:l -cache:il2 dl2 base_quicksort51187172912
	sim-bpred -bpred bimod -bpred:bimod 512 base_quicksort51187172912
	sim-bpred -bpred bimod -bpred:bimod 1024 base_quicksort51187172912
	sim-bpred -bpred bimod -bpred:bimod 2048 base_quicksort51187172912
	sim-bpred -bpred 2lev -bpred:2lev 1 512 10 1 base_quicksort51187172912
	sim-bpred -bpred 2lev -bpred:2lev 1 1024 10 1 base_quicksort51187172912
	sim-bpred -bpred 2lev -bpred:2lev 1 2048 10 1 base_quicksort51187172912
	sim-bpred -bpred 2lev -bpred:2lev 1 4096 10 1 base_quicksort51187172912
