Tue Jul 12 00:36:47 2005
Run as: "./do_simple -c random.org5 -o 5 base_quicksort1"
-------------------------------------------------------------------------------------------------
sim-cache                                     4096 |         4096 |         4096 |         4096 |         8192 |         8192 |         8192 |         8192 |        16384 |        16384 |        16384 |        16384 |        32768 |        32768 |        32768 |        32768 |        65536 |        65536 |        65536 |        65536 |       131072 |       131072 |       131072 |       131072 |       262144 |       262144 |       262144 |       262144 |       524288 |       524288 |       524288 |       524288 |      1048576 |      1048576 |      1048576 |      1048576 |      2097152 |      2097152 |      2097152 |      2097152 |      4194304 |      4194304 |      4194304 |      4194304 |
-cache:dl1 dl1:256:32:1:l -cache:dl2 dl2:131072:32:1:l -cache:il1 il1:256:32:1:l -cache:il2 dl2
-cache:dl1 dl1:256:32:1:l -cache:dl2 dl2:65536:32:1:l -cache:il1 il1:256:32:1:l -cache:il2 dl2
-cache:dl1 dl1:1:32:256:l -cache:dl2 dl2:1:32:131072:l -cache:il1 il1:1:32:256:l -cache:il2 dl2
-cache:dl1 dl1:1:32:256:l -cache:dl2 dl2:1:32:65536:l -cache:il1 il1:1:32:256:l -cache:il2 dl2
-------------------------------------------------------------------------------------------------
sim_num_insn                                516693 |       516693 |       516693 |       516693 |      1123797 |      1123797 |      1123797 |      1123797 |      2371318 |      2371318 |      2371318 |      2371318 |      5434733 |      5434733 |      5434733 |      5434733 |     10301905 |     10301905 |     10301905 |     10301905 |     23261157 |     23261157 |     23261157 |     23261157 |     47353212 |     47353212 |     47353212 |     47353212 |    102030374 |    102030374 |    102030374 |    102030374 |    216728910 |    216728910 |    216728910 |    216728910 |    452886064 |    452886064 |    452886064 |    452886064 |    935144521 |    935144521 |    935144521 |    935144521 |
sim_num_refs                                129749 |       129749 |       129749 |       129749 |       278769 |       278769 |       278769 |       278769 |       582108 |       582108 |       582108 |       582108 |      1291134 |      1291134 |      1291134 |      1291134 |      2554246 |      2554246 |      2554246 |      2554246 |      5580993 |      5580993 |      5580993 |      5580993 |     11519716 |     11519716 |     11519716 |     11519716 |     24438485 |     24438485 |     24438485 |     24438485 |     51515821 |     51515821 |     51515821 |     51515821 |    107746888 |    107746888 |    107746888 |    107746888 |    223571231 |    223571231 |    223571231 |    223571231 |
sim_elapsed_time                                 1 |            1 |            7 |            4 |            1 |            1 |           10 |            5 |            1 |            1 |           16 |            8 |            2 |            1 |           27 |           14 |            2 |            3 |           50 |           25 |            6 |            7 |           92 |           47 |           13 |           13 |          170 |           80 |           28 |           28 |          293 |          116 |           59 |           59 |          411 |          149 |          123 |          123 |          478 |          231 |          253 |          254 |          621 |          360 |
sim_inst_rate                          516693.0000 |  516693.0000 |   73813.2857 |  129173.2500 | 1123797.0000 | 1123797.0000 |  112379.7000 |  224759.4000 | 2371318.0000 | 2371318.0000 |  148207.3750 |  296414.7500 | 2717366.5000 | 5434733.0000 |  201286.4074 |  388195.2143 | 5150952.5000 | 3433968.3333 |  206038.1000 |  412076.2000 | 3876859.5000 | 3323022.4286 |  252838.6630 |  494918.2340 | 3642554.7692 | 3642554.7692 |  278548.3059 |  591915.1500 | 3643941.9286 | 3643941.9286 |  348226.5324 |  879572.1897 | 3673371.3559 | 3673371.3559 |  527320.9489 | 1454556.4430 | 3682000.5203 | 3682000.5203 |  947460.3849 | 1960545.7316 | 3696223.4032 | 3681671.3425 | 1505868.7939 | 2597623.6694 |
il1.accesses                                516693 |       516693 |       516693 |       516693 |      1123797 |      1123797 |      1123797 |      1123797 |      2371318 |      2371318 |      2371318 |      2371318 |      5434733 |      5434733 |      5434733 |      5434733 |     10301905 |     10301905 |     10301905 |     10301905 |     23261157 |     23261157 |     23261157 |     23261157 |     47353212 |     47353212 |     47353212 |     47353212 |    102030374 |    102030374 |    102030374 |    102030374 |    216728910 |    216728910 |    216728910 |    216728910 |    452886064 |    452886064 |    452886064 |    452886064 |    935144521 |    935144521 |    935144521 |    935144521 |
il1.hits                                    516255 |       516255 |       516296 |       516296 |      1123360 |      1123360 |      1123398 |      1123398 |      2370871 |      2370871 |      2370915 |      2370915 |      5434295 |      5434295 |      5434333 |      5434333 |     10301467 |     10301467 |     10301505 |     10301505 |     23260720 |     23260720 |     23260758 |     23260758 |     47352775 |     47352775 |     47352813 |     47352813 |    102029937 |    102029937 |    102029975 |    102029975 |    216728473 |    216728473 |    216728511 |    216728511 |    452885627 |    452885627 |    452885665 |    452885665 |    935144084 |    935144084 |    935144122 |    935144122 |
il1.misses                                     438 |          438 |          397 |          397 |          437 |          437 |          399 |          399 |          447 |          447 |          403 |          403 |          438 |          438 |          400 |          400 |          438 |          438 |          400 |          400 |          437 |          437 |          399 |          399 |          437 |          437 |          399 |          399 |          437 |          437 |          399 |          399 |          437 |          437 |          399 |          399 |          437 |          437 |          399 |          399 |          437 |          437 |          399 |          399 |
il1.replacements                               199 |          199 |          141 |          141 |          198 |          198 |          143 |          143 |          209 |          209 |          147 |          147 |          200 |          200 |          144 |          144 |          200 |          200 |          144 |          144 |          200 |          200 |          143 |          143 |          200 |          200 |          143 |          143 |          200 |          200 |          143 |          143 |          200 |          200 |          143 |          143 |          200 |          200 |          143 |          143 |          200 |          200 |          143 |          143 |
il1.writebacks                                   0 |            0 |            0 |            0 |            0 |            0 |            0 |            0 |            0 |            0 |            0 |            0 |            0 |            0 |            0 |            0 |            0 |            0 |            0 |            0 |            0 |            0 |            0 |            0 |            0 |            0 |            0 |            0 |            0 |            0 |            0 |            0 |            0 |            0 |            0 |            0 |            0 |            0 |            0 |            0 |            0 |            0 |            0 |            0 |
il1.invalidations                                0 |            0 |            0 |            0 |            0 |            0 |            0 |            0 |            0 |            0 |            0 |            0 |            0 |            0 |            0 |            0 |            0 |            0 |            0 |            0 |            0 |            0 |            0 |            0 |            0 |            0 |            0 |            0 |            0 |            0 |            0 |            0 |            0 |            0 |            0 |            0 |            0 |            0 |            0 |            0 |            0 |            0 |            0 |            0 |
il1.miss_rate                               0.0008 |       0.0008 |       0.0008 |       0.0008 |       0.0004 |       0.0004 |       0.0004 |       0.0004 |       0.0002 |       0.0002 |       0.0002 |       0.0002 |       0.0001 |       0.0001 |       0.0001 |       0.0001 |       0.0000 |       0.0000 |       0.0000 |       0.0000 |       0.0000 |       0.0000 |       0.0000 |       0.0000 |       0.0000 |       0.0000 |       0.0000 |       0.0000 |       0.0000 |       0.0000 |       0.0000 |       0.0000 |       0.0000 |       0.0000 |       0.0000 |       0.0000 |       0.0000 |       0.0000 |       0.0000 |       0.0000 |       0.0000 |       0.0000 |       0.0000 |       0.0000 |
il1.repl_rate                               0.0004 |       0.0004 |       0.0003 |       0.0003 |       0.0002 |       0.0002 |       0.0001 |       0.0001 |       0.0001 |       0.0001 |       0.0001 |       0.0001 |       0.0000 |       0.0000 |       0.0000 |       0.0000 |       0.0000 |       0.0000 |       0.0000 |       0.0000 |       0.0000 |       0.0000 |       0.0000 |       0.0000 |       0.0000 |       0.0000 |       0.0000 |       0.0000 |       0.0000 |       0.0000 |       0.0000 |       0.0000 |       0.0000 |       0.0000 |       0.0000 |       0.0000 |       0.0000 |       0.0000 |       0.0000 |       0.0000 |       0.0000 |       0.0000 |       0.0000 |       0.0000 |
il1.wb_rate                                 0.0000 |       0.0000 |       0.0000 |       0.0000 |       0.0000 |       0.0000 |       0.0000 |       0.0000 |       0.0000 |       0.0000 |       0.0000 |       0.0000 |       0.0000 |       0.0000 |       0.0000 |       0.0000 |       0.0000 |       0.0000 |       0.0000 |       0.0000 |       0.0000 |       0.0000 |       0.0000 |       0.0000 |       0.0000 |       0.0000 |       0.0000 |       0.0000 |       0.0000 |       0.0000 |       0.0000 |       0.0000 |       0.0000 |       0.0000 |       0.0000 |       0.0000 |       0.0000 |       0.0000 |       0.0000 |       0.0000 |       0.0000 |       0.0000 |       0.0000 |       0.0000 |
il1.inv_rate                                0.0000 |       0.0000 |       0.0000 |       0.0000 |       0.0000 |       0.0000 |       0.0000 |       0.0000 |       0.0000 |       0.0000 |       0.0000 |       0.0000 |       0.0000 |       0.0000 |       0.0000 |       0.0000 |       0.0000 |       0.0000 |       0.0000 |       0.0000 |       0.0000 |       0.0000 |       0.0000 |       0.0000 |       0.0000 |       0.0000 |       0.0000 |       0.0000 |       0.0000 |       0.0000 |       0.0000 |       0.0000 |       0.0000 |       0.0000 |       0.0000 |       0.0000 |       0.0000 |       0.0000 |       0.0000 |       0.0000 |       0.0000 |       0.0000 |       0.0000 |       0.0000 |
dl1.accesses                                146215 |       146215 |       146215 |       146215 |       311619 |       311619 |       311619 |       311619 |       647726 |       647726 |       647726 |       647726 |      1422288 |      1422288 |      1422288 |      1422288 |      2816472 |      2816472 |      2816472 |      2816472 |      6105363 |      6105363 |      6105363 |      6105363 |     12568374 |     12568374 |     12568374 |     12568374 |     26535719 |     26535719 |     26535719 |     26535719 |     55710207 |     55710207 |     55710207 |     55710207 |    116135578 |    116135578 |    116135578 |    116135578 |    240348529 |    240348529 |    240348529 |    240348529 |
dl1.hits                                    143419 |       143419 |       143257 |       143257 |       304218 |       304218 |       303888 |       303888 |       631795 |       631795 |       631786 |       631786 |      1378205 |      1378205 |      1378223 |      1378223 |      2739397 |      2739397 |      2739500 |      2739500 |      5907336 |      5907336 |      5906927 |      5906927 |     12154717 |     12154717 |     12157475 |     12157475 |     25605821 |     25605821 |     25610342 |     25610342 |     53627437 |     53627437 |     53639328 |     53639328 |    111619322 |    111619322 |    111654206 |    111654206 |    230832955 |    230832955 |    230909769 |    230909769 |
dl1.misses                                    2796 |         2796 |         2958 |         2958 |         7401 |         7401 |         7731 |         7731 |        15931 |        15931 |        15940 |        15940 |        44083 |        44083 |        44065 |        44065 |        77075 |        77075 |        76972 |        76972 |       198027 |       198027 |       198436 |       198436 |       413657 |       413657 |       410899 |       410899 |       929898 |       929898 |       925377 |       925377 |      2082770 |      2082770 |      2070879 |      2070879 |      4516256 |      4516256 |      4481372 |      4481372 |      9515574 |      9515574 |      9438760 |      9438760 |
dl1.replacements                              2540 |         2540 |         2702 |         2702 |         7145 |         7145 |         7475 |         7475 |        15675 |        15675 |        15684 |        15684 |        43827 |        43827 |        43809 |        43809 |        76819 |        76819 |        76716 |        76716 |       197771 |       197771 |       198180 |       198180 |       413401 |       413401 |       410643 |       410643 |       929642 |       929642 |       925121 |       925121 |      2082514 |      2082514 |      2070623 |      2070623 |      4516000 |      4516000 |      4481116 |      4481116 |      9515318 |      9515318 |      9438504 |      9438504 |
dl1.writebacks                                2253 |         2253 |         2436 |         2436 |         5986 |         5986 |         6211 |         6211 |        13605 |        13605 |        13701 |        13701 |        32355 |        32355 |        32637 |        32637 |        71050 |        71050 |        71238 |        71238 |       161957 |       161957 |       163414 |       163414 |       360861 |       360861 |       361273 |       361273 |       791236 |       791236 |       792619 |       792619 |      1724554 |      1724554 |      1725956 |      1725956 |      3746515 |      3746515 |      3744703 |      3744703 |      8014181 |      8014181 |      8007791 |      8007791 |
dl1.invalidations                                0 |            0 |            0 |            0 |            0 |            0 |            0 |            0 |            0 |            0 |            0 |            0 |            0 |            0 |            0 |            0 |            0 |            0 |            0 |            0 |            0 |            0 |            0 |            0 |            0 |            0 |            0 |            0 |            0 |            0 |            0 |            0 |            0 |            0 |            0 |            0 |            0 |            0 |            0 |            0 |            0 |            0 |            0 |            0 |
dl1.miss_rate                               0.0191 |       0.0191 |       0.0202 |       0.0202 |       0.0238 |       0.0238 |       0.0248 |       0.0248 |       0.0246 |       0.0246 |       0.0246 |       0.0246 |       0.0310 |       0.0310 |       0.0310 |       0.0310 |       0.0274 |       0.0274 |       0.0273 |       0.0273 |       0.0324 |       0.0324 |       0.0325 |       0.0325 |       0.0329 |       0.0329 |       0.0327 |       0.0327 |       0.0350 |       0.0350 |       0.0349 |       0.0349 |       0.0374 |       0.0374 |       0.0372 |       0.0372 |       0.0389 |       0.0389 |       0.0386 |       0.0386 |       0.0396 |       0.0396 |       0.0393 |       0.0393 |
dl1.repl_rate                               0.0174 |       0.0174 |       0.0185 |       0.0185 |       0.0229 |       0.0229 |       0.0240 |       0.0240 |       0.0242 |       0.0242 |       0.0242 |       0.0242 |       0.0308 |       0.0308 |       0.0308 |       0.0308 |       0.0273 |       0.0273 |       0.0272 |       0.0272 |       0.0324 |       0.0324 |       0.0325 |       0.0325 |       0.0329 |       0.0329 |       0.0327 |       0.0327 |       0.0350 |       0.0350 |       0.0349 |       0.0349 |       0.0374 |       0.0374 |       0.0372 |       0.0372 |       0.0389 |       0.0389 |       0.0386 |       0.0386 |       0.0396 |       0.0396 |       0.0393 |       0.0393 |
dl1.wb_rate                                 0.0154 |       0.0154 |       0.0167 |       0.0167 |       0.0192 |       0.0192 |       0.0199 |       0.0199 |       0.0210 |       0.0210 |       0.0212 |       0.0212 |       0.0227 |       0.0227 |       0.0229 |       0.0229 |       0.0252 |       0.0252 |       0.0253 |       0.0253 |       0.0265 |       0.0265 |       0.0268 |       0.0268 |       0.0287 |       0.0287 |       0.0287 |       0.0287 |       0.0298 |       0.0298 |       0.0299 |       0.0299 |       0.0310 |       0.0310 |       0.0310 |       0.0310 |       0.0323 |       0.0323 |       0.0322 |       0.0322 |       0.0333 |       0.0333 |       0.0333 |       0.0333 |
dl1.inv_rate                                0.0000 |       0.0000 |       0.0000 |       0.0000 |       0.0000 |       0.0000 |       0.0000 |       0.0000 |       0.0000 |       0.0000 |       0.0000 |       0.0000 |       0.0000 |       0.0000 |       0.0000 |       0.0000 |       0.0000 |       0.0000 |       0.0000 |       0.0000 |       0.0000 |       0.0000 |       0.0000 |       0.0000 |       0.0000 |       0.0000 |       0.0000 |       0.0000 |       0.0000 |       0.0000 |       0.0000 |       0.0000 |       0.0000 |       0.0000 |       0.0000 |       0.0000 |       0.0000 |       0.0000 |       0.0000 |       0.0000 |       0.0000 |       0.0000 |       0.0000 |       0.0000 |
dl2.accesses                                  5487 |         5487 |         5791 |         5791 |        13824 |        13824 |        14341 |        14341 |        29983 |        29983 |        30044 |        30044 |        76876 |        76876 |        77102 |        77102 |       148563 |       148563 |       148610 |       148610 |       360421 |       360421 |       362249 |       362249 |       774955 |       774955 |       772571 |       772571 |      1721571 |      1721571 |      1718395 |      1718395 |      3807761 |      3807761 |      3797234 |      3797234 |      8263208 |      8263208 |      8226474 |      8226474 |     17530192 |     17530192 |     17446950 |     17446950 |
dl2.hits                                      4133 |         4133 |         4450 |         4450 |        11957 |        11957 |        12486 |        12486 |        27095 |        27095 |        27171 |        27171 |        71943 |        71943 |        72182 |        72182 |       139533 |       139533 |       139593 |       139593 |       343200 |       343200 |       345041 |       345041 |       741350 |       741350 |       738979 |       738979 |      1655198 |      1654450 |      1652035 |      1587854 |      3675108 |      3356447 |      3627609 |      3298247 |      7387514 |      6888417 |      7241834 |      6756520 |     14979817 |     14172558 |     14607981 |     13919472 |
dl2.misses                                    1354 |         1354 |         1341 |         1341 |         1867 |         1867 |         1855 |         1855 |         2888 |         2888 |         2873 |         2873 |         4933 |         4933 |         4920 |         4920 |         9030 |         9030 |         9017 |         9017 |        17221 |        17221 |        17208 |        17208 |        33605 |        33605 |        33592 |        33592 |        66373 |        67121 |        66360 |       130541 |       132653 |       451314 |       169625 |       498987 |       875694 |      1374791 |       984640 |      1469954 |      2550375 |      3357634 |      2838969 |      3527478 |
dl2.replacements                               146 |          146 |            0 |            0 |          145 |          145 |            0 |            0 |          148 |          148 |            0 |            0 |          147 |          147 |            0 |            0 |          147 |          147 |            0 |            0 |          147 |          147 |            0 |            0 |          147 |          147 |            0 |            0 |          147 |         1585 |            0 |        65005 |         1581 |       385778 |        38553 |       433451 |       744622 |      1309255 |       853568 |      1404418 |      2419303 |      3292098 |      2707897 |      3461942 |
dl2.writebacks                                  83 |           83 |            0 |            0 |           84 |           84 |            0 |            0 |           85 |           85 |            0 |            0 |           85 |           85 |            0 |            0 |           85 |           85 |            0 |            0 |           85 |           85 |            0 |            0 |           85 |           85 |            0 |            0 |           85 |         1293 |            0 |        64553 |         1285 |       381355 |        38275 |       428973 |       739497 |      1223974 |       838576 |      1315187 |      2390548 |      3099308 |      2659758 |      3237011 |
dl2.invalidations                                0 |            0 |            0 |            0 |            0 |            0 |            0 |            0 |            0 |            0 |            0 |            0 |            0 |            0 |            0 |            0 |            0 |            0 |            0 |            0 |            0 |            0 |            0 |            0 |            0 |            0 |            0 |            0 |            0 |            0 |            0 |            0 |            0 |            0 |            0 |            0 |            0 |            0 |            0 |            0 |            0 |            0 |            0 |            0 |
dl2.miss_rate                               0.2468 |       0.2468 |       0.2316 |       0.2316 |       0.1351 |       0.1351 |       0.1293 |       0.1293 |       0.0963 |       0.0963 |       0.0956 |       0.0956 |       0.0642 |       0.0642 |       0.0638 |       0.0638 |       0.0608 |       0.0608 |       0.0607 |       0.0607 |       0.0478 |       0.0478 |       0.0475 |       0.0475 |       0.0434 |       0.0434 |       0.0435 |       0.0435 |       0.0386 |       0.0390 |       0.0386 |       0.0760 |       0.0348 |       0.1185 |       0.0447 |       0.1314 |       0.1060 |       0.1664 |       0.1197 |       0.1787 |       0.1455 |       0.1915 |       0.1627 |       0.2022 |
dl2.repl_rate                               0.0266 |       0.0266 |       0.0000 |       0.0000 |       0.0105 |       0.0105 |       0.0000 |       0.0000 |       0.0049 |       0.0049 |       0.0000 |       0.0000 |       0.0019 |       0.0019 |       0.0000 |       0.0000 |       0.0010 |       0.0010 |       0.0000 |       0.0000 |       0.0004 |       0.0004 |       0.0000 |       0.0000 |       0.0002 |       0.0002 |       0.0000 |       0.0000 |       0.0001 |       0.0009 |       0.0000 |       0.0378 |       0.0004 |       0.1013 |       0.0102 |       0.1141 |       0.0901 |       0.1584 |       0.1038 |       0.1707 |       0.1380 |       0.1878 |       0.1552 |       0.1984 |
dl2.wb_rate                                 0.0151 |       0.0151 |       0.0000 |       0.0000 |       0.0061 |       0.0061 |       0.0000 |       0.0000 |       0.0028 |       0.0028 |       0.0000 |       0.0000 |       0.0011 |       0.0011 |       0.0000 |       0.0000 |       0.0006 |       0.0006 |       0.0000 |       0.0000 |       0.0002 |       0.0002 |       0.0000 |       0.0000 |       0.0001 |       0.0001 |       0.0000 |       0.0000 |       0.0000 |       0.0008 |       0.0000 |       0.0376 |       0.0003 |       0.1002 |       0.0101 |       0.1130 |       0.0895 |       0.1481 |       0.1019 |       0.1599 |       0.1364 |       0.1768 |       0.1524 |       0.1855 |
dl2.inv_rate                                0.0000 |       0.0000 |       0.0000 |       0.0000 |       0.0000 |       0.0000 |       0.0000 |       0.0000 |       0.0000 |       0.0000 |       0.0000 |       0.0000 |       0.0000 |       0.0000 |       0.0000 |       0.0000 |       0.0000 |       0.0000 |       0.0000 |       0.0000 |       0.0000 |       0.0000 |       0.0000 |       0.0000 |       0.0000 |       0.0000 |       0.0000 |       0.0000 |       0.0000 |       0.0000 |       0.0000 |       0.0000 |       0.0000 |       0.0000 |       0.0000 |       0.0000 |       0.0000 |       0.0000 |       0.0000 |       0.0000 |       0.0000 |       0.0000 |       0.0000 |       0.0000 |
itlb.accesses                               516693 |       516693 |       516693 |       516693 |      1123797 |      1123797 |      1123797 |      1123797 |      2371318 |      2371318 |      2371318 |      2371318 |      5434733 |      5434733 |      5434733 |      5434733 |     10301905 |     10301905 |     10301905 |     10301905 |     23261157 |     23261157 |     23261157 |     23261157 |     47353212 |     47353212 |     47353212 |     47353212 |    102030374 |    102030374 |    102030374 |    102030374 |    216728910 |    216728910 |    216728910 |    216728910 |    452886064 |    452886064 |    452886064 |    452886064 |    935144521 |    935144521 |    935144521 |    935144521 |
itlb.hits                                   516682 |       516682 |       516682 |       516682 |      1123787 |      1123787 |      1123787 |      1123787 |      2371308 |      2371308 |      2371308 |      2371308 |      5434723 |      5434723 |      5434723 |      5434723 |     10301895 |     10301895 |     10301895 |     10301895 |     23261147 |     23261147 |     23261147 |     23261147 |     47353202 |     47353202 |     47353202 |     47353202 |    102030364 |    102030364 |    102030364 |    102030364 |    216728900 |    216728900 |    216728900 |    216728900 |    452886054 |    452886054 |    452886054 |    452886054 |    935144511 |    935144511 |    935144511 |    935144511 |
itlb.misses                                     11 |           11 |           11 |           11 |           10 |           10 |           10 |           10 |           10 |           10 |           10 |           10 |           10 |           10 |           10 |           10 |           10 |           10 |           10 |           10 |           10 |           10 |           10 |           10 |           10 |           10 |           10 |           10 |           10 |           10 |           10 |           10 |           10 |           10 |           10 |           10 |           10 |           10 |           10 |           10 |           10 |           10 |           10 |           10 |
itlb.replacements                                0 |            0 |            0 |            0 |            0 |            0 |            0 |            0 |            0 |            0 |            0 |            0 |            0 |            0 |            0 |            0 |            0 |            0 |            0 |            0 |            0 |            0 |            0 |            0 |            0 |            0 |            0 |            0 |            0 |            0 |            0 |            0 |            0 |            0 |            0 |            0 |            0 |            0 |            0 |            0 |            0 |            0 |            0 |            0 |
itlb.writebacks                                  0 |            0 |            0 |            0 |            0 |            0 |            0 |            0 |            0 |            0 |            0 |            0 |            0 |            0 |            0 |            0 |            0 |            0 |            0 |            0 |            0 |            0 |            0 |            0 |            0 |            0 |            0 |            0 |            0 |            0 |            0 |            0 |            0 |            0 |            0 |            0 |            0 |            0 |            0 |            0 |            0 |            0 |            0 |            0 |
itlb.invalidations                               0 |            0 |            0 |            0 |            0 |            0 |            0 |            0 |            0 |            0 |            0 |            0 |            0 |            0 |            0 |            0 |            0 |            0 |            0 |            0 |            0 |            0 |            0 |            0 |            0 |            0 |            0 |            0 |            0 |            0 |            0 |            0 |            0 |            0 |            0 |            0 |            0 |            0 |            0 |            0 |            0 |            0 |            0 |            0 |
itlb.miss_rate                              0.0000 |       0.0000 |       0.0000 |       0.0000 |       0.0000 |       0.0000 |       0.0000 |       0.0000 |       0.0000 |       0.0000 |       0.0000 |       0.0000 |       0.0000 |       0.0000 |       0.0000 |       0.0000 |       0.0000 |       0.0000 |       0.0000 |       0.0000 |       0.0000 |       0.0000 |       0.0000 |       0.0000 |       0.0000 |       0.0000 |       0.0000 |       0.0000 |       0.0000 |       0.0000 |       0.0000 |       0.0000 |       0.0000 |       0.0000 |       0.0000 |       0.0000 |       0.0000 |       0.0000 |       0.0000 |       0.0000 |       0.0000 |       0.0000 |       0.0000 |       0.0000 |
itlb.repl_rate                              0.0000 |       0.0000 |       0.0000 |       0.0000 |       0.0000 |       0.0000 |       0.0000 |       0.0000 |       0.0000 |       0.0000 |       0.0000 |       0.0000 |       0.0000 |       0.0000 |       0.0000 |       0.0000 |       0.0000 |       0.0000 |       0.0000 |       0.0000 |       0.0000 |       0.0000 |       0.0000 |       0.0000 |       0.0000 |       0.0000 |       0.0000 |       0.0000 |       0.0000 |       0.0000 |       0.0000 |       0.0000 |       0.0000 |       0.0000 |       0.0000 |       0.0000 |       0.0000 |       0.0000 |       0.0000 |       0.0000 |       0.0000 |       0.0000 |       0.0000 |       0.0000 |
itlb.wb_rate                                0.0000 |       0.0000 |       0.0000 |       0.0000 |       0.0000 |       0.0000 |       0.0000 |       0.0000 |       0.0000 |       0.0000 |       0.0000 |       0.0000 |       0.0000 |       0.0000 |       0.0000 |       0.0000 |       0.0000 |       0.0000 |       0.0000 |       0.0000 |       0.0000 |       0.0000 |       0.0000 |       0.0000 |       0.0000 |       0.0000 |       0.0000 |       0.0000 |       0.0000 |       0.0000 |       0.0000 |       0.0000 |       0.0000 |       0.0000 |       0.0000 |       0.0000 |       0.0000 |       0.0000 |       0.0000 |       0.0000 |       0.0000 |       0.0000 |       0.0000 |       0.0000 |
itlb.inv_rate                               0.0000 |       0.0000 |       0.0000 |       0.0000 |       0.0000 |       0.0000 |       0.0000 |       0.0000 |       0.0000 |       0.0000 |       0.0000 |       0.0000 |       0.0000 |       0.0000 |       0.0000 |       0.0000 |       0.0000 |       0.0000 |       0.0000 |       0.0000 |       0.0000 |       0.0000 |       0.0000 |       0.0000 |       0.0000 |       0.0000 |       0.0000 |       0.0000 |       0.0000 |       0.0000 |       0.0000 |       0.0000 |       0.0000 |       0.0000 |       0.0000 |       0.0000 |       0.0000 |       0.0000 |       0.0000 |       0.0000 |       0.0000 |       0.0000 |       0.0000 |       0.0000 |
dtlb.accesses                               146215 |       146215 |       146215 |       146215 |       311619 |       311619 |       311619 |       311619 |       647726 |       647726 |       647726 |       647726 |      1422288 |      1422288 |      1422288 |      1422288 |      2816472 |      2816472 |      2816472 |      2816472 |      6105363 |      6105363 |      6105363 |      6105363 |     12568374 |     12568374 |     12568374 |     12568374 |     26535719 |     26535719 |     26535719 |     26535719 |     55710207 |     55710207 |     55710207 |     55710207 |    116135578 |    116135578 |    116135578 |    116135578 |    240348529 |    240348529 |    240348529 |    240348529 |
dtlb.hits                                   146203 |       146203 |       146203 |       146203 |       311603 |       311603 |       311603 |       311603 |       647702 |       647702 |       647702 |       647702 |      1422248 |      1422248 |      1422248 |      1422248 |      2816400 |      2816400 |      2816400 |      2816400 |      6105187 |      6105187 |      6105187 |      6105187 |     12567286 |     12567286 |     12567286 |     12567286 |     26532719 |     26532719 |     26532719 |     26532719 |     55702520 |     55702520 |     55702520 |     55702520 |    116117715 |    116117715 |    116117715 |    116117715 |    240308920 |    240308920 |    240308920 |    240308920 |
dtlb.misses                                     12 |           12 |           12 |           12 |           16 |           16 |           16 |           16 |           24 |           24 |           24 |           24 |           40 |           40 |           40 |           40 |           72 |           72 |           72 |           72 |          176 |          176 |          176 |          176 |         1088 |         1088 |         1088 |         1088 |         3000 |         3000 |         3000 |         3000 |         7687 |         7687 |         7687 |         7687 |        17863 |        17863 |        17863 |        17863 |        39609 |        39609 |        39609 |        39609 |
dtlb.replacements                                0 |            0 |            0 |            0 |            0 |            0 |            0 |            0 |            0 |            0 |            0 |            0 |            0 |            0 |            0 |            0 |            0 |            0 |            0 |            0 |           48 |           48 |           48 |           48 |          960 |          960 |          960 |          960 |         2872 |         2872 |         2872 |         2872 |         7559 |         7559 |         7559 |         7559 |        17735 |        17735 |        17735 |        17735 |        39481 |        39481 |        39481 |        39481 |
dtlb.writebacks                                  0 |            0 |            0 |            0 |            0 |            0 |            0 |            0 |            0 |            0 |            0 |            0 |            0 |            0 |            0 |            0 |            0 |            0 |            0 |            0 |           46 |           46 |           46 |           46 |          958 |          958 |          958 |          958 |         2870 |         2870 |         2870 |         2870 |         7557 |         7557 |         7557 |         7557 |        17733 |        17733 |        17733 |        17733 |        38999 |        38999 |        38999 |        38999 |
dtlb.invalidations                               0 |            0 |            0 |            0 |            0 |            0 |            0 |            0 |            0 |            0 |            0 |            0 |            0 |            0 |            0 |            0 |            0 |            0 |            0 |            0 |            0 |            0 |            0 |            0 |            0 |            0 |            0 |            0 |            0 |            0 |            0 |            0 |            0 |            0 |            0 |            0 |            0 |            0 |            0 |            0 |            0 |            0 |            0 |            0 |
dtlb.miss_rate                              0.0001 |       0.0001 |       0.0001 |       0.0001 |       0.0001 |       0.0001 |       0.0001 |       0.0001 |       0.0000 |       0.0000 |       0.0000 |       0.0000 |       0.0000 |       0.0000 |       0.0000 |       0.0000 |       0.0000 |       0.0000 |       0.0000 |       0.0000 |       0.0000 |       0.0000 |       0.0000 |       0.0000 |       0.0001 |       0.0001 |       0.0001 |       0.0001 |       0.0001 |       0.0001 |       0.0001 |       0.0001 |       0.0001 |       0.0001 |       0.0001 |       0.0001 |       0.0002 |       0.0002 |       0.0002 |       0.0002 |       0.0002 |       0.0002 |       0.0002 |       0.0002 |
dtlb.repl_rate                              0.0000 |       0.0000 |       0.0000 |       0.0000 |       0.0000 |       0.0000 |       0.0000 |       0.0000 |       0.0000 |       0.0000 |       0.0000 |       0.0000 |       0.0000 |       0.0000 |       0.0000 |       0.0000 |       0.0000 |       0.0000 |       0.0000 |       0.0000 |       0.0000 |       0.0000 |       0.0000 |       0.0000 |       0.0001 |       0.0001 |       0.0001 |       0.0001 |       0.0001 |       0.0001 |       0.0001 |       0.0001 |       0.0001 |       0.0001 |       0.0001 |       0.0001 |       0.0002 |       0.0002 |       0.0002 |       0.0002 |       0.0002 |       0.0002 |       0.0002 |       0.0002 |
dtlb.wb_rate                                0.0000 |       0.0000 |       0.0000 |       0.0000 |       0.0000 |       0.0000 |       0.0000 |       0.0000 |       0.0000 |       0.0000 |       0.0000 |       0.0000 |       0.0000 |       0.0000 |       0.0000 |       0.0000 |       0.0000 |       0.0000 |       0.0000 |       0.0000 |       0.0000 |       0.0000 |       0.0000 |       0.0000 |       0.0001 |       0.0001 |       0.0001 |       0.0001 |       0.0001 |       0.0001 |       0.0001 |       0.0001 |       0.0001 |       0.0001 |       0.0001 |       0.0001 |       0.0002 |       0.0002 |       0.0002 |       0.0002 |       0.0002 |       0.0002 |       0.0002 |       0.0002 |
dtlb.inv_rate                               0.0000 |       0.0000 |       0.0000 |       0.0000 |       0.0000 |       0.0000 |       0.0000 |       0.0000 |       0.0000 |       0.0000 |       0.0000 |       0.0000 |       0.0000 |       0.0000 |       0.0000 |       0.0000 |       0.0000 |       0.0000 |       0.0000 |       0.0000 |       0.0000 |       0.0000 |       0.0000 |       0.0000 |       0.0000 |       0.0000 |       0.0000 |       0.0000 |       0.0000 |       0.0000 |       0.0000 |       0.0000 |       0.0000 |       0.0000 |       0.0000 |       0.0000 |       0.0000 |       0.0000 |       0.0000 |       0.0000 |       0.0000 |       0.0000 |       0.0000 |       0.0000 |
ld_text_base                            0x00400000 |   0x00400000 |   0x00400000 |   0x00400000 |   0x00400000 |   0x00400000 |   0x00400000 |   0x00400000 |   0x00400000 |   0x00400000 |   0x00400000 |   0x00400000 |   0x00400000 |   0x00400000 |   0x00400000 |   0x00400000 |   0x00400000 |   0x00400000 |   0x00400000 |   0x00400000 |   0x00400000 |   0x00400000 |   0x00400000 |   0x00400000 |   0x00400000 |   0x00400000 |   0x00400000 |   0x00400000 |   0x00400000 |   0x00400000 |   0x00400000 |   0x00400000 |   0x00400000 |   0x00400000 |   0x00400000 |   0x00400000 |   0x00400000 |   0x00400000 |   0x00400000 |   0x00400000 |   0x00400000 |   0x00400000 |   0x00400000 |   0x00400000 |
ld_text_size                                 73136 |        73136 |        73136 |        73136 |        73168 |        73168 |        73168 |        73168 |        73184 |        73184 |        73184 |        73184 |        73200 |        73200 |        73200 |        73200 |        73200 |        73200 |        73200 |        73200 |        73200 |        73200 |        73200 |        73200 |        73200 |        73200 |        73200 |        73200 |        73200 |        73200 |        73200 |        73200 |        73200 |        73200 |        73200 |        73200 |        73200 |        73200 |        73200 |        73200 |        73200 |        73200 |        73200 |        73200 |
ld_data_base                            0x10000000 |   0x10000000 |   0x10000000 |   0x10000000 |   0x10000000 |   0x10000000 |   0x10000000 |   0x10000000 |   0x10000000 |   0x10000000 |   0x10000000 |   0x10000000 |   0x10000000 |   0x10000000 |   0x10000000 |   0x10000000 |   0x10000000 |   0x10000000 |   0x10000000 |   0x10000000 |   0x10000000 |   0x10000000 |   0x10000000 |   0x10000000 |   0x10000000 |   0x10000000 |   0x10000000 |   0x10000000 |   0x10000000 |   0x10000000 |   0x10000000 |   0x10000000 |   0x10000000 |   0x10000000 |   0x10000000 |   0x10000000 |   0x10000000 |   0x10000000 |   0x10000000 |   0x10000000 |   0x10000000 |   0x10000000 |   0x10000000 |   0x10000000 |
ld_data_size                                  8192 |         8192 |         8192 |         8192 |         8192 |         8192 |         8192 |         8192 |         8192 |         8192 |         8192 |         8192 |         8192 |         8192 |         8192 |         8192 |         8192 |         8192 |         8192 |         8192 |         8192 |         8192 |         8192 |         8192 |         8192 |         8192 |         8192 |         8192 |         8192 |         8192 |         8192 |         8192 |         8192 |         8192 |         8192 |         8192 |         8192 |         8192 |         8192 |         8192 |         8192 |         8192 |         8192 |         8192 |
ld_stack_base                           0x7fffc000 |   0x7fffc000 |   0x7fffc000 |   0x7fffc000 |   0x7fffc000 |   0x7fffc000 |   0x7fffc000 |   0x7fffc000 |   0x7fffc000 |   0x7fffc000 |   0x7fffc000 |   0x7fffc000 |   0x7fffc000 |   0x7fffc000 |   0x7fffc000 |   0x7fffc000 |   0x7fffc000 |   0x7fffc000 |   0x7fffc000 |   0x7fffc000 |   0x7fffc000 |   0x7fffc000 |   0x7fffc000 |   0x7fffc000 |   0x7fffc000 |   0x7fffc000 |   0x7fffc000 |   0x7fffc000 |   0x7fffc000 |   0x7fffc000 |   0x7fffc000 |   0x7fffc000 |   0x7fffc000 |   0x7fffc000 |   0x7fffc000 |   0x7fffc000 |   0x7fffc000 |   0x7fffc000 |   0x7fffc000 |   0x7fffc000 |   0x7fffc000 |   0x7fffc000 |   0x7fffc000 |   0x7fffc000 |
ld_stack_size                                16384 |        16384 |        16384 |        16384 |        16384 |        16384 |        16384 |        16384 |        16384 |        16384 |        16384 |        16384 |        16384 |        16384 |        16384 |        16384 |        16384 |        16384 |        16384 |        16384 |        16384 |        16384 |        16384 |        16384 |        16384 |        16384 |        16384 |        16384 |        16384 |        16384 |        16384 |        16384 |        16384 |        16384 |        16384 |        16384 |        16384 |        16384 |        16384 |        16384 |        16384 |        16384 |        16384 |        16384 |
ld_prog_entry                           0x00400140 |   0x00400140 |   0x00400140 |   0x00400140 |   0x00400140 |   0x00400140 |   0x00400140 |   0x00400140 |   0x00400140 |   0x00400140 |   0x00400140 |   0x00400140 |   0x00400140 |   0x00400140 |   0x00400140 |   0x00400140 |   0x00400140 |   0x00400140 |   0x00400140 |   0x00400140 |   0x00400140 |   0x00400140 |   0x00400140 |   0x00400140 |   0x00400140 |   0x00400140 |   0x00400140 |   0x00400140 |   0x00400140 |   0x00400140 |   0x00400140 |   0x00400140 |   0x00400140 |   0x00400140 |   0x00400140 |   0x00400140 |   0x00400140 |   0x00400140 |   0x00400140 |   0x00400140 |   0x00400140 |   0x00400140 |   0x00400140 |   0x00400140 |
ld_environ_base                         0x7fff8000 |   0x7fff8000 |   0x7fff8000 |   0x7fff8000 |   0x7fff8000 |   0x7fff8000 |   0x7fff8000 |   0x7fff8000 |   0x7fff8000 |   0x7fff8000 |   0x7fff8000 |   0x7fff8000 |   0x7fff8000 |   0x7fff8000 |   0x7fff8000 |   0x7fff8000 |   0x7fff8000 |   0x7fff8000 |   0x7fff8000 |   0x7fff8000 |   0x7fff8000 |   0x7fff8000 |   0x7fff8000 |   0x7fff8000 |   0x7fff8000 |   0x7fff8000 |   0x7fff8000 |   0x7fff8000 |   0x7fff8000 |   0x7fff8000 |   0x7fff8000 |   0x7fff8000 |   0x7fff8000 |   0x7fff8000 |   0x7fff8000 |   0x7fff8000 |   0x7fff8000 |   0x7fff8000 |   0x7fff8000 |   0x7fff8000 |   0x7fff8000 |   0x7fff8000 |   0x7fff8000 |   0x7fff8000 |
ld_target_big_endian                             0 |            0 |            0 |            0 |            0 |            0 |            0 |            0 |            0 |            0 |            0 |            0 |            0 |            0 |            0 |            0 |            0 |            0 |            0 |            0 |            0 |            0 |            0 |            0 |            0 |            0 |            0 |            0 |            0 |            0 |            0 |            0 |            0 |            0 |            0 |            0 |            0 |            0 |            0 |            0 |            0 |            0 |            0 |            0 |
mem.page_count                                  30 |           30 |           30 |           30 |           34 |           34 |           34 |           34 |           42 |           42 |           42 |           42 |           58 |           58 |           58 |           58 |           90 |           90 |           90 |           90 |          154 |          154 |          154 |          154 |          282 |          282 |          282 |          282 |          538 |          538 |          538 |          538 |         1050 |         1050 |         1050 |         1050 |         2074 |         2074 |         2074 |         2074 |         4122 |         4122 |         4122 |         4122 |
mem.page_mem                                  120k |         120k |         120k |         120k |         136k |         136k |         136k |         136k |         168k |         168k |         168k |         168k |         232k |         232k |         232k |         232k |         360k |         360k |         360k |         360k |         616k |         616k |         616k |         616k |        1128k |        1128k |        1128k |        1128k |        2152k |        2152k |        2152k |        2152k |        4200k |        4200k |        4200k |        4200k |        8296k |        8296k |        8296k |        8296k |       16488k |       16488k |       16488k |       16488k |
mem.ptab_misses                                 30 |           30 |           30 |           30 |           34 |           34 |           34 |           34 |           42 |           42 |           42 |           42 |           58 |           58 |           58 |           58 |           90 |           90 |           90 |           90 |          154 |          154 |          154 |          154 |          282 |          282 |          282 |          282 |          538 |          538 |          538 |          538 |         1050 |         1050 |         1050 |         1050 |         2074 |         2074 |         2074 |         2074 |         4122 |         4122 |         4122 |         4122 |
mem.ptab_accesses                          2812640 |      2812640 |      2812640 |      2812640 |      5572056 |      5572056 |      5572056 |      5572056 |     11234450 |     11234450 |     11234450 |     11234450 |     25037330 |     25037330 |     25037330 |     25037330 |     47294386 |     47294386 |     47294386 |     47294386 |    105709176 |    105709176 |    105709176 |    105709176 |    215003418 |    215003418 |    215003418 |    215003418 |    461646756 |    461646756 |    461646756 |    461646756 |    978789876 |    978789876 |    978789876 |    978789876 |   2044269234 |   2044269234 |   2044269234 |   2044269234 |   4221728964 |   4221728964 |   4221728964 |   4221728964 |
mem.ptab_miss_rate                          0.0000 |       0.0000 |       0.0000 |       0.0000 |       0.0000 |       0.0000 |       0.0000 |       0.0000 |       0.0000 |       0.0000 |       0.0000 |       0.0000 |       0.0000 |       0.0000 |       0.0000 |       0.0000 |       0.0000 |       0.0000 |       0.0000 |       0.0000 |       0.0000 |       0.0000 |       0.0000 |       0.0000 |       0.0000 |       0.0000 |       0.0000 |       0.0000 |       0.0000 |       0.0000 |       0.0000 |       0.0000 |       0.0000 |       0.0000 |       0.0000 |       0.0000 |       0.0000 |       0.0000 |       0.0000 |       0.0000 |       0.0000 |       0.0000 |       0.0000 |       0.0000 |
-------------------------------------------------------------------------------------------------
sim-bpred                                     4096 |         4096 |         4096 |         4096 |         4096 |         4096 |         4096 |         8192 |         8192 |         8192 |         8192 |         8192 |         8192 |         8192 |        16384 |        16384 |        16384 |        16384 |        16384 |        16384 |        16384 |        32768 |        32768 |        32768 |        32768 |        32768 |        32768 |        32768 |        65536 |        65536 |        65536 |        65536 |        65536 |        65536 |        65536 |       131072 |       131072 |       131072 |       131072 |       131072 |       131072 |       131072 |       262144 |       262144 |       262144 |       262144 |       262144 |       262144 |       262144 |       524288 |       524288 |       524288 |       524288 |       524288 |       524288 |       524288 |      1048576 |      1048576 |      1048576 |      1048576 |      1048576 |      1048576 |      1048576 |      2097152 |      2097152 |      2097152 |      2097152 |      2097152 |      2097152 |      2097152 |      4194304 |      4194304 |      4194304 |      4194304 |      4194304 |      4194304 |      4194304 |
-bpred bimod -bpred:bimod 512
-bpred bimod -bpred:bimod 1024
-bpred bimod -bpred:bimod 2048
-bpred 2lev -bpred:2lev 1 512 10 1
-bpred 2lev -bpred:2lev 1 1024 10 1
-bpred 2lev -bpred:2lev 1 2048 10 1
-bpred 2lev -bpred:2lev 1 4096 10 1
-------------------------------------------------------------------------------------------------
sim_num_insn                                516693 |       516693 |       516693 |       516693 |       516693 |       516693 |       516693 |      1123797 |      1123797 |      1123797 |      1123797 |      1123797 |      1123797 |      1123797 |      2371318 |      2371318 |      2371318 |      2371318 |      2371318 |      2371318 |      2371318 |      5434733 |      5434733 |      5434733 |      5434733 |      5434733 |      5434733 |      5434733 |     10301905 |     10301905 |     10301905 |     10301905 |     10301905 |     10301905 |     10301905 |     23261157 |     23261157 |     23261157 |     23261157 |     23261157 |     23261157 |     23261157 |     47353212 |     47353212 |     47353212 |     47353212 |     47353212 |     47353212 |     47353212 |    102030374 |    102030374 |    102030374 |    102030374 |    102030374 |    102030374 |    102030374 |    216728910 |    216728910 |    216728910 |    216728910 |    216728910 |    216728910 |    216728910 |    452886064 |    452886064 |    452886064 |    452886064 |    452886064 |    452886064 |    452886064 |    935144521 |    935144521 |    935144521 |    935144521 |    935144521 |    935144521 |    935144521 |
sim_num_refs                                129749 |       129749 |       129749 |       129749 |       129749 |       129749 |       129749 |       278769 |       278769 |       278769 |       278769 |       278769 |       278769 |       278769 |       582108 |       582108 |       582108 |       582108 |       582108 |       582108 |       582108 |      1291134 |      1291134 |      1291134 |      1291134 |      1291134 |      1291134 |      1291134 |      2554246 |      2554246 |      2554246 |      2554246 |      2554246 |      2554246 |      2554246 |      5580993 |      5580993 |      5580993 |      5580993 |      5580993 |      5580993 |      5580993 |     11519716 |     11519716 |     11519716 |     11519716 |     11519716 |     11519716 |     11519716 |     24438485 |     24438485 |     24438485 |     24438485 |     24438485 |     24438485 |     24438485 |     51515821 |     51515821 |     51515821 |     51515821 |     51515821 |     51515821 |     51515821 |    107746888 |    107746888 |    107746888 |    107746888 |    107746888 |    107746888 |    107746888 |    223571231 |    223571231 |    223571231 |    223571231 |    223571231 |    223571231 |    223571231 |
sim_elapsed_time                                 1 |            1 |            1 |            1 |            1 |            1 |            1 |            1 |            1 |            1 |            1 |            1 |            1 |            1 |            1 |            1 |            1 |            1 |            1 |            1 |            1 |            1 |            1 |            1 |            1 |            1 |            1 |            1 |            2 |            1 |            1 |            2 |            1 |            1 |            1 |            3 |            3 |            3 |            3 |            3 |            3 |            3 |            7 |            6 |            6 |            6 |            6 |            7 |            6 |           13 |           14 |           13 |           13 |           13 |           14 |           13 |           28 |           28 |           29 |           28 |           29 |           29 |           29 |           58 |           59 |           59 |           60 |           59 |           60 |           60 |          121 |          121 |          121 |          123 |          122 |          124 |          123 |
sim_inst_rate                          516693.0000 |  516693.0000 |  516693.0000 |  516693.0000 |  516693.0000 |  516693.0000 |  516693.0000 | 1123797.0000 | 1123797.0000 | 1123797.0000 | 1123797.0000 | 1123797.0000 | 1123797.0000 | 1123797.0000 | 2371318.0000 | 2371318.0000 | 2371318.0000 | 2371318.0000 | 2371318.0000 | 2371318.0000 | 2371318.0000 | 5434733.0000 | 5434733.0000 | 5434733.0000 | 5434733.0000 | 5434733.0000 | 5434733.0000 | 5434733.0000 | 5150952.5000 |10301905.0000 |10301905.0000 | 5150952.5000 |10301905.0000 |10301905.0000 |10301905.0000 | 7753719.0000 | 7753719.0000 | 7753719.0000 | 7753719.0000 | 7753719.0000 | 7753719.0000 | 7753719.0000 | 6764744.5714 | 7892202.0000 | 7892202.0000 | 7892202.0000 | 7892202.0000 | 6764744.5714 | 7892202.0000 | 7848490.3077 | 7287883.8571 | 7848490.3077 | 7848490.3077 | 7848490.3077 | 7287883.8571 | 7848490.3077 | 7740318.2143 | 7740318.2143 | 7473410.6897 | 7740318.2143 | 7473410.6897 | 7473410.6897 | 7473410.6897 | 7808380.4138 | 7676034.9831 | 7676034.9831 | 7548101.0667 | 7676034.9831 | 7548101.0667 | 7548101.0667 | 7728467.1157 | 7728467.1157 | 7728467.1157 | 7602800.9837 | 7665119.0246 | 7541488.0726 | 7602800.9837 |
sim_num_branches                            103903 |       103903 |       103903 |       103903 |       103903 |       103903 |       103903 |       218843 |       218843 |       218843 |       218843 |       218843 |       218843 |       218843 |       480772 |       480772 |       480772 |       480772 |       480772 |       480772 |       480772 |      1109805 |      1109805 |      1109805 |      1109805 |      1109805 |      1109805 |      1109805 |      2065486 |      2065486 |      2065486 |      2065486 |      2065486 |      2065486 |      2065486 |      4771093 |      4771093 |      4771093 |      4771093 |      4771093 |      4771093 |      4771093 |      9546768 |      9546768 |      9546768 |      9546768 |      9546768 |      9546768 |      9546768 |     21202761 |     21202761 |     21202761 |     21202761 |     21202761 |     21202761 |     21202761 |     45518346 |     45518346 |     45518346 |     45518346 |     45518346 |     45518346 |     45518346 |     94201213 |     94201213 |     94201213 |     94201213 |     94201213 |     94201213 |     94201213 |    193708472 |    193708472 |    193708472 |    193708472 |    193708472 |    193708472 |    193708472 |
sim_IPB                                     4.9728 |       4.9728 |       4.9728 |       4.9728 |       4.9728 |       4.9728 |       4.9728 |       5.1352 |       5.1352 |       5.1352 |       5.1352 |       5.1352 |       5.1352 |       5.1352 |       4.9323 |       4.9323 |       4.9323 |       4.9323 |       4.9323 |       4.9323 |       4.9323 |       4.8970 |       4.8970 |       4.8970 |       4.8970 |       4.8970 |       4.8970 |       4.8970 |       4.9876 |       4.9876 |       4.9876 |       4.9876 |       4.9876 |       4.9876 |       4.9876 |       4.8754 |       4.8754 |       4.8754 |       4.8754 |       4.8754 |       4.8754 |       4.8754 |       4.9601 |       4.9601 |       4.9601 |       4.9601 |       4.9601 |       4.9601 |       4.9601 |       4.8121 |       4.8121 |       4.8121 |       4.8121 |       4.8121 |       4.8121 |       4.8121 |       4.7614 |       4.7614 |       4.7614 |       4.7614 |       4.7614 |       4.7614 |       4.7614 |       4.8076 |       4.8076 |       4.8076 |       4.8076 |       4.8076 |       4.8076 |       4.8076 |       4.8276 |       4.8276 |       4.8276 |       4.8276 |       4.8276 |       4.8276 |       4.8276 |
bpred_bimod.lookups                         103903 |       103903 |       103903 |xxxxxxxxxxxxx |xxxxxxxxxxxxx |xxxxxxxxxxxxx |xxxxxxxxxxxxx |       218843 |       218843 |       218843 |xxxxxxxxxxxxx |xxxxxxxxxxxxx |xxxxxxxxxxxxx |xxxxxxxxxxxxx |       480772 |       480772 |       480772 |xxxxxxxxxxxxx |xxxxxxxxxxxxx |xxxxxxxxxxxxx |xxxxxxxxxxxxx |      1109805 |      1109805 |      1109805 |xxxxxxxxxxxxx |xxxxxxxxxxxxx |xxxxxxxxxxxxx |xxxxxxxxxxxxx |      2065486 |      2065486 |      2065486 |xxxxxxxxxxxxx |xxxxxxxxxxxxx |xxxxxxxxxxxxx |xxxxxxxxxxxxx |      4771093 |      4771093 |      4771093 |xxxxxxxxxxxxx |xxxxxxxxxxxxx |xxxxxxxxxxxxx |xxxxxxxxxxxxx |      9546768 |      9546768 |      9546768 |xxxxxxxxxxxxx |xxxxxxxxxxxxx |xxxxxxxxxxxxx |xxxxxxxxxxxxx |     21202761 |     21202761 |     21202761 |xxxxxxxxxxxxx |xxxxxxxxxxxxx |xxxxxxxxxxxxx |xxxxxxxxxxxxx |     45518346 |     45518346 |     45518346 |xxxxxxxxxxxxx |xxxxxxxxxxxxx |xxxxxxxxxxxxx |xxxxxxxxxxxxx |     94201213 |     94201213 |     94201213 |xxxxxxxxxxxxx |xxxxxxxxxxxxx |xxxxxxxxxxxxx |xxxxxxxxxxxxx |    193708472 |    193708472 |    193708472 |
bpred_bimod.updates                         103903 |       103903 |       103903 |xxxxxxxxxxxxx |xxxxxxxxxxxxx |xxxxxxxxxxxxx |xxxxxxxxxxxxx |       218843 |       218843 |       218843 |xxxxxxxxxxxxx |xxxxxxxxxxxxx |xxxxxxxxxxxxx |xxxxxxxxxxxxx |       480772 |       480772 |       480772 |xxxxxxxxxxxxx |xxxxxxxxxxxxx |xxxxxxxxxxxxx |xxxxxxxxxxxxx |      1109805 |      1109805 |      1109805 |xxxxxxxxxxxxx |xxxxxxxxxxxxx |xxxxxxxxxxxxx |xxxxxxxxxxxxx |      2065486 |      2065486 |      2065486 |xxxxxxxxxxxxx |xxxxxxxxxxxxx |xxxxxxxxxxxxx |xxxxxxxxxxxxx |      4771093 |      4771093 |      4771093 |xxxxxxxxxxxxx |xxxxxxxxxxxxx |xxxxxxxxxxxxx |xxxxxxxxxxxxx |      9546768 |      9546768 |      9546768 |xxxxxxxxxxxxx |xxxxxxxxxxxxx |xxxxxxxxxxxxx |xxxxxxxxxxxxx |     21202761 |     21202761 |     21202761 |xxxxxxxxxxxxx |xxxxxxxxxxxxx |xxxxxxxxxxxxx |xxxxxxxxxxxxx |     45518346 |     45518346 |     45518346 |xxxxxxxxxxxxx |xxxxxxxxxxxxx |xxxxxxxxxxxxx |xxxxxxxxxxxxx |     94201213 |     94201213 |     94201213 |xxxxxxxxxxxxx |xxxxxxxxxxxxx |xxxxxxxxxxxxx |xxxxxxxxxxxxx |    193708472 |    193708472 |    193708472 |
bpred_bimod.addr_hits                        82469 |        82471 |        82473 |xxxxxxxxxxxxx |xxxxxxxxxxxxx |xxxxxxxxxxxxx |xxxxxxxxxxxxx |       173016 |       173015 |       173016 |xxxxxxxxxxxxx |xxxxxxxxxxxxx |xxxxxxxxxxxxx |xxxxxxxxxxxxx |       383971 |       383974 |       383974 |xxxxxxxxxxxxx |xxxxxxxxxxxxx |xxxxxxxxxxxxx |xxxxxxxxxxxxx |       907463 |       907464 |       907465 |xxxxxxxxxxxxx |xxxxxxxxxxxxx |xxxxxxxxxxxxx |xxxxxxxxxxxxx |      1615382 |      1615383 |      1615384 |xxxxxxxxxxxxx |xxxxxxxxxxxxx |xxxxxxxxxxxxx |xxxxxxxxxxxxx |      3841279 |      3841280 |      3841281 |xxxxxxxxxxxxx |xxxxxxxxxxxxx |xxxxxxxxxxxxx |xxxxxxxxxxxxx |      7569541 |      7569542 |      7569545 |xxxxxxxxxxxxx |xxxxxxxxxxxxx |xxxxxxxxxxxxx |xxxxxxxxxxxxx |     17028242 |     17028243 |     17028247 |xxxxxxxxxxxxx |xxxxxxxxxxxxx |xxxxxxxxxxxxx |xxxxxxxxxxxxx |     36770860 |     36770861 |     36770864 |xxxxxxxxxxxxx |xxxxxxxxxxxxx |xxxxxxxxxxxxx |xxxxxxxxxxxxx |     75878302 |     75878303 |     75878304 |xxxxxxxxxxxxx |xxxxxxxxxxxxx |xxxxxxxxxxxxx |xxxxxxxxxxxxx |    154824676 |    154824677 |    154824681 |
bpred_bimod.dir_hits                         82581 |        82581 |        82583 |xxxxxxxxxxxxx |xxxxxxxxxxxxx |xxxxxxxxxxxxx |xxxxxxxxxxxxx |       173128 |       173125 |       173127 |xxxxxxxxxxxxx |xxxxxxxxxxxxx |xxxxxxxxxxxxx |xxxxxxxxxxxxx |       384083 |       384083 |       384083 |xxxxxxxxxxxxx |xxxxxxxxxxxxx |xxxxxxxxxxxxx |xxxxxxxxxxxxx |       907576 |       907575 |       907575 |xxxxxxxxxxxxx |xxxxxxxxxxxxx |xxxxxxxxxxxxx |xxxxxxxxxxxxx |      1615493 |      1615492 |      1615492 |xxxxxxxxxxxxx |xxxxxxxxxxxxx |xxxxxxxxxxxxx |xxxxxxxxxxxxx |      3841394 |      3841393 |      3841393 |xxxxxxxxxxxxx |xxxxxxxxxxxxx |xxxxxxxxxxxxx |xxxxxxxxxxxxx |      7569652 |      7569651 |      7569654 |xxxxxxxxxxxxx |xxxxxxxxxxxxx |xxxxxxxxxxxxx |xxxxxxxxxxxxx |     17028354 |     17028353 |     17028356 |xxxxxxxxxxxxx |xxxxxxxxxxxxx |xxxxxxxxxxxxx |xxxxxxxxxxxxx |     36770972 |     36770971 |     36770974 |xxxxxxxxxxxxx |xxxxxxxxxxxxx |xxxxxxxxxxxxx |xxxxxxxxxxxxx |     75878416 |     75878415 |     75878415 |xxxxxxxxxxxxx |xxxxxxxxxxxxx |xxxxxxxxxxxxx |xxxxxxxxxxxxx |    154824790 |    154824789 |    154824792 |
bpred_bimod.misses                           21322 |        21322 |        21320 |xxxxxxxxxxxxx |xxxxxxxxxxxxx |xxxxxxxxxxxxx |xxxxxxxxxxxxx |        45715 |        45718 |        45716 |xxxxxxxxxxxxx |xxxxxxxxxxxxx |xxxxxxxxxxxxx |xxxxxxxxxxxxx |        96689 |        96689 |        96689 |xxxxxxxxxxxxx |xxxxxxxxxxxxx |xxxxxxxxxxxxx |xxxxxxxxxxxxx |       202229 |       202230 |       202230 |xxxxxxxxxxxxx |xxxxxxxxxxxxx |xxxxxxxxxxxxx |xxxxxxxxxxxxx |       449993 |       449994 |       449994 |xxxxxxxxxxxxx |xxxxxxxxxxxxx |xxxxxxxxxxxxx |xxxxxxxxxxxxx |       929699 |       929700 |       929700 |xxxxxxxxxxxxx |xxxxxxxxxxxxx |xxxxxxxxxxxxx |xxxxxxxxxxxxx |      1977116 |      1977117 |      1977114 |xxxxxxxxxxxxx |xxxxxxxxxxxxx |xxxxxxxxxxxxx |xxxxxxxxxxxxx |      4174407 |      4174408 |      4174405 |xxxxxxxxxxxxx |xxxxxxxxxxxxx |xxxxxxxxxxxxx |xxxxxxxxxxxxx |      8747374 |      8747375 |      8747372 |xxxxxxxxxxxxx |xxxxxxxxxxxxx |xxxxxxxxxxxxx |xxxxxxxxxxxxx |     18322797 |     18322798 |     18322798 |xxxxxxxxxxxxx |xxxxxxxxxxxxx |xxxxxxxxxxxxx |xxxxxxxxxxxxx |     38883682 |     38883683 |     38883680 |
bpred_bimod.jr_hits                             64 |           64 |           64 |xxxxxxxxxxxxx |xxxxxxxxxxxxx |xxxxxxxxxxxxx |xxxxxxxxxxxxx |           64 |           64 |           64 |xxxxxxxxxxxxx |xxxxxxxxxxxxx |xxxxxxxxxxxxx |xxxxxxxxxxxxx |           64 |           64 |           64 |xxxxxxxxxxxxx |xxxxxxxxxxxxx |xxxxxxxxxxxxx |xxxxxxxxxxxxx |           64 |           64 |           64 |xxxxxxxxxxxxx |xxxxxxxxxxxxx |xxxxxxxxxxxxx |xxxxxxxxxxxxx |           64 |           64 |           64 |xxxxxxxxxxxxx |xxxxxxxxxxxxx |xxxxxxxxxxxxx |xxxxxxxxxxxxx |           64 |           64 |           64 |xxxxxxxxxxxxx |xxxxxxxxxxxxx |xxxxxxxxxxxxx |xxxxxxxxxxxxx |           64 |           64 |           64 |xxxxxxxxxxxxx |xxxxxxxxxxxxx |xxxxxxxxxxxxx |xxxxxxxxxxxxx |           64 |           64 |           64 |xxxxxxxxxxxxx |xxxxxxxxxxxxx |xxxxxxxxxxxxx |xxxxxxxxxxxxx |           64 |           64 |           64 |xxxxxxxxxxxxx |xxxxxxxxxxxxx |xxxxxxxxxxxxx |xxxxxxxxxxxxx |           64 |           64 |           64 |xxxxxxxxxxxxx |xxxxxxxxxxxxx |xxxxxxxxxxxxx |xxxxxxxxxxxxx |           64 |           64 |           64 |
bpred_bimod.jr_seen                             64 |           64 |           64 |xxxxxxxxxxxxx |xxxxxxxxxxxxx |xxxxxxxxxxxxx |xxxxxxxxxxxxx |           64 |           64 |           64 |xxxxxxxxxxxxx |xxxxxxxxxxxxx |xxxxxxxxxxxxx |xxxxxxxxxxxxx |           64 |           64 |           64 |xxxxxxxxxxxxx |xxxxxxxxxxxxx |xxxxxxxxxxxxx |xxxxxxxxxxxxx |           64 |           64 |           64 |xxxxxxxxxxxxx |xxxxxxxxxxxxx |xxxxxxxxxxxxx |xxxxxxxxxxxxx |           64 |           64 |           64 |xxxxxxxxxxxxx |xxxxxxxxxxxxx |xxxxxxxxxxxxx |xxxxxxxxxxxxx |           64 |           64 |           64 |xxxxxxxxxxxxx |xxxxxxxxxxxxx |xxxxxxxxxxxxx |xxxxxxxxxxxxx |           64 |           64 |           64 |xxxxxxxxxxxxx |xxxxxxxxxxxxx |xxxxxxxxxxxxx |xxxxxxxxxxxxx |           64 |           64 |           64 |xxxxxxxxxxxxx |xxxxxxxxxxxxx |xxxxxxxxxxxxx |xxxxxxxxxxxxx |           64 |           64 |           64 |xxxxxxxxxxxxx |xxxxxxxxxxxxx |xxxxxxxxxxxxx |xxxxxxxxxxxxx |           64 |           64 |           64 |xxxxxxxxxxxxx |xxxxxxxxxxxxx |xxxxxxxxxxxxx |xxxxxxxxxxxxx |           64 |           64 |           64 |
bpred_bimod.jr_non_ras_hits.PP                   0 |            0 |            0 |xxxxxxxxxxxxx |xxxxxxxxxxxxx |xxxxxxxxxxxxx |xxxxxxxxxxxxx |            0 |            0 |            0 |xxxxxxxxxxxxx |xxxxxxxxxxxxx |xxxxxxxxxxxxx |xxxxxxxxxxxxx |            0 |            0 |            0 |xxxxxxxxxxxxx |xxxxxxxxxxxxx |xxxxxxxxxxxxx |xxxxxxxxxxxxx |            0 |            0 |            0 |xxxxxxxxxxxxx |xxxxxxxxxxxxx |xxxxxxxxxxxxx |xxxxxxxxxxxxx |            0 |            0 |            0 |xxxxxxxxxxxxx |xxxxxxxxxxxxx |xxxxxxxxxxxxx |xxxxxxxxxxxxx |            0 |            0 |            0 |xxxxxxxxxxxxx |xxxxxxxxxxxxx |xxxxxxxxxxxxx |xxxxxxxxxxxxx |            0 |            0 |            0 |xxxxxxxxxxxxx |xxxxxxxxxxxxx |xxxxxxxxxxxxx |xxxxxxxxxxxxx |            0 |            0 |            0 |xxxxxxxxxxxxx |xxxxxxxxxxxxx |xxxxxxxxxxxxx |xxxxxxxxxxxxx |            0 |            0 |            0 |xxxxxxxxxxxxx |xxxxxxxxxxxxx |xxxxxxxxxxxxx |xxxxxxxxxxxxx |            0 |            0 |            0 |xxxxxxxxxxxxx |xxxxxxxxxxxxx |xxxxxxxxxxxxx |xxxxxxxxxxxxx |            0 |            0 |            0 |
bpred_bimod.jr_non_ras_seen.PP                   0 |            0 |            0 |xxxxxxxxxxxxx |xxxxxxxxxxxxx |xxxxxxxxxxxxx |xxxxxxxxxxxxx |            0 |            0 |            0 |xxxxxxxxxxxxx |xxxxxxxxxxxxx |xxxxxxxxxxxxx |xxxxxxxxxxxxx |            0 |            0 |            0 |xxxxxxxxxxxxx |xxxxxxxxxxxxx |xxxxxxxxxxxxx |xxxxxxxxxxxxx |            0 |            0 |            0 |xxxxxxxxxxxxx |xxxxxxxxxxxxx |xxxxxxxxxxxxx |xxxxxxxxxxxxx |            0 |            0 |            0 |xxxxxxxxxxxxx |xxxxxxxxxxxxx |xxxxxxxxxxxxx |xxxxxxxxxxxxx |            0 |            0 |            0 |xxxxxxxxxxxxx |xxxxxxxxxxxxx |xxxxxxxxxxxxx |xxxxxxxxxxxxx |            0 |            0 |            0 |xxxxxxxxxxxxx |xxxxxxxxxxxxx |xxxxxxxxxxxxx |xxxxxxxxxxxxx |            0 |            0 |            0 |xxxxxxxxxxxxx |xxxxxxxxxxxxx |xxxxxxxxxxxxx |xxxxxxxxxxxxx |            0 |            0 |            0 |xxxxxxxxxxxxx |xxxxxxxxxxxxx |xxxxxxxxxxxxx |xxxxxxxxxxxxx |            0 |            0 |            0 |xxxxxxxxxxxxx |xxxxxxxxxxxxx |xxxxxxxxxxxxx |xxxxxxxxxxxxx |            0 |            0 |            0 |
bpred_bimod.bpred_addr_rate                 0.7937 |       0.7937 |       0.7937 |xxxxxxxxxxxxx |xxxxxxxxxxxxx |xxxxxxxxxxxxx |xxxxxxxxxxxxx |       0.7906 |       0.7906 |       0.7906 |xxxxxxxxxxxxx |xxxxxxxxxxxxx |xxxxxxxxxxxxx |xxxxxxxxxxxxx |       0.7987 |       0.7987 |       0.7987 |xxxxxxxxxxxxx |xxxxxxxxxxxxx |xxxxxxxxxxxxx |xxxxxxxxxxxxx |       0.8177 |       0.8177 |       0.8177 |xxxxxxxxxxxxx |xxxxxxxxxxxxx |xxxxxxxxxxxxx |xxxxxxxxxxxxx |       0.7821 |       0.7821 |       0.7821 |xxxxxxxxxxxxx |xxxxxxxxxxxxx |xxxxxxxxxxxxx |xxxxxxxxxxxxx |       0.8051 |       0.8051 |       0.8051 |xxxxxxxxxxxxx |xxxxxxxxxxxxx |xxxxxxxxxxxxx |xxxxxxxxxxxxx |       0.7929 |       0.7929 |       0.7929 |xxxxxxxxxxxxx |xxxxxxxxxxxxx |xxxxxxxxxxxxx |xxxxxxxxxxxxx |       0.8031 |       0.8031 |       0.8031 |xxxxxxxxxxxxx |xxxxxxxxxxxxx |xxxxxxxxxxxxx |xxxxxxxxxxxxx |       0.8078 |       0.8078 |       0.8078 |xxxxxxxxxxxxx |xxxxxxxxxxxxx |xxxxxxxxxxxxx |xxxxxxxxxxxxx |       0.8055 |       0.8055 |       0.8055 |xxxxxxxxxxxxx |xxxxxxxxxxxxx |xxxxxxxxxxxxx |xxxxxxxxxxxxx |       0.7993 |       0.7993 |       0.7993 |
bpred_bimod.bpred_dir_rate                  0.7948 |       0.7948 |       0.7948 |xxxxxxxxxxxxx |xxxxxxxxxxxxx |xxxxxxxxxxxxx |xxxxxxxxxxxxx |       0.7911 |       0.7911 |       0.7911 |xxxxxxxxxxxxx |xxxxxxxxxxxxx |xxxxxxxxxxxxx |xxxxxxxxxxxxx |       0.7989 |       0.7989 |       0.7989 |xxxxxxxxxxxxx |xxxxxxxxxxxxx |xxxxxxxxxxxxx |xxxxxxxxxxxxx |       0.8178 |       0.8178 |       0.8178 |xxxxxxxxxxxxx |xxxxxxxxxxxxx |xxxxxxxxxxxxx |xxxxxxxxxxxxx |       0.7821 |       0.7821 |       0.7821 |xxxxxxxxxxxxx |xxxxxxxxxxxxx |xxxxxxxxxxxxx |xxxxxxxxxxxxx |       0.8051 |       0.8051 |       0.8051 |xxxxxxxxxxxxx |xxxxxxxxxxxxx |xxxxxxxxxxxxx |xxxxxxxxxxxxx |       0.7929 |       0.7929 |       0.7929 |xxxxxxxxxxxxx |xxxxxxxxxxxxx |xxxxxxxxxxxxx |xxxxxxxxxxxxx |       0.8031 |       0.8031 |       0.8031 |xxxxxxxxxxxxx |xxxxxxxxxxxxx |xxxxxxxxxxxxx |xxxxxxxxxxxxx |       0.8078 |       0.8078 |       0.8078 |xxxxxxxxxxxxx |xxxxxxxxxxxxx |xxxxxxxxxxxxx |xxxxxxxxxxxxx |       0.8055 |       0.8055 |       0.8055 |xxxxxxxxxxxxx |xxxxxxxxxxxxx |xxxxxxxxxxxxx |xxxxxxxxxxxxx |       0.7993 |       0.7993 |       0.7993 |
bpred_bimod.bpred_jr_rate                   1.0000 |       1.0000 |       1.0000 |xxxxxxxxxxxxx |xxxxxxxxxxxxx |xxxxxxxxxxxxx |xxxxxxxxxxxxx |       1.0000 |       1.0000 |       1.0000 |xxxxxxxxxxxxx |xxxxxxxxxxxxx |xxxxxxxxxxxxx |xxxxxxxxxxxxx |       1.0000 |       1.0000 |       1.0000 |xxxxxxxxxxxxx |xxxxxxxxxxxxx |xxxxxxxxxxxxx |xxxxxxxxxxxxx |       1.0000 |       1.0000 |       1.0000 |xxxxxxxxxxxxx |xxxxxxxxxxxxx |xxxxxxxxxxxxx |xxxxxxxxxxxxx |       1.0000 |       1.0000 |       1.0000 |xxxxxxxxxxxxx |xxxxxxxxxxxxx |xxxxxxxxxxxxx |xxxxxxxxxxxxx |       1.0000 |       1.0000 |       1.0000 |xxxxxxxxxxxxx |xxxxxxxxxxxxx |xxxxxxxxxxxxx |xxxxxxxxxxxxx |       1.0000 |       1.0000 |       1.0000 |xxxxxxxxxxxxx |xxxxxxxxxxxxx |xxxxxxxxxxxxx |xxxxxxxxxxxxx |       1.0000 |       1.0000 |       1.0000 |xxxxxxxxxxxxx |xxxxxxxxxxxxx |xxxxxxxxxxxxx |xxxxxxxxxxxxx |       1.0000 |       1.0000 |       1.0000 |xxxxxxxxxxxxx |xxxxxxxxxxxxx |xxxxxxxxxxxxx |xxxxxxxxxxxxx |       1.0000 |       1.0000 |       1.0000 |xxxxxxxxxxxxx |xxxxxxxxxxxxx |xxxxxxxxxxxxx |xxxxxxxxxxxxx |       1.0000 |       1.0000 |       1.0000 |
bpred_bimod.bpred_jr_non_ras_rate.PP       <error: |      <error: |      <error: |xxxxxxxxxxxxx |xxxxxxxxxxxxx |xxxxxxxxxxxxx |xxxxxxxxxxxxx |      <error: |      <error: |      <error: |xxxxxxxxxxxxx |xxxxxxxxxxxxx |xxxxxxxxxxxxx |xxxxxxxxxxxxx |      <error: |      <error: |      <error: |xxxxxxxxxxxxx |xxxxxxxxxxxxx |xxxxxxxxxxxxx |xxxxxxxxxxxxx |      <error: |      <error: |      <error: |xxxxxxxxxxxxx |xxxxxxxxxxxxx |xxxxxxxxxxxxx |xxxxxxxxxxxxx |      <error: |      <error: |      <error: |xxxxxxxxxxxxx |xxxxxxxxxxxxx |xxxxxxxxxxxxx |xxxxxxxxxxxxx |      <error: |      <error: |      <error: |xxxxxxxxxxxxx |xxxxxxxxxxxxx |xxxxxxxxxxxxx |xxxxxxxxxxxxx |      <error: |      <error: |      <error: |xxxxxxxxxxxxx |xxxxxxxxxxxxx |xxxxxxxxxxxxx |xxxxxxxxxxxxx |      <error: |      <error: |      <error: |xxxxxxxxxxxxx |xxxxxxxxxxxxx |xxxxxxxxxxxxx |xxxxxxxxxxxxx |      <error: |      <error: |      <error: |xxxxxxxxxxxxx |xxxxxxxxxxxxx |xxxxxxxxxxxxx |xxxxxxxxxxxxx |      <error: |      <error: |      <error: |xxxxxxxxxxxxx |xxxxxxxxxxxxx |xxxxxxxxxxxxx |xxxxxxxxxxxxx |      <error: |      <error: |      <error: |
bpred_bimod.retstack_pushes                     66 |           66 |           66 |xxxxxxxxxxxxx |xxxxxxxxxxxxx |xxxxxxxxxxxxx |xxxxxxxxxxxxx |           66 |           66 |           66 |xxxxxxxxxxxxx |xxxxxxxxxxxxx |xxxxxxxxxxxxx |xxxxxxxxxxxxx |           66 |           66 |           66 |xxxxxxxxxxxxx |xxxxxxxxxxxxx |xxxxxxxxxxxxx |xxxxxxxxxxxxx |           66 |           66 |           66 |xxxxxxxxxxxxx |xxxxxxxxxxxxx |xxxxxxxxxxxxx |xxxxxxxxxxxxx |           66 |           66 |           66 |xxxxxxxxxxxxx |xxxxxxxxxxxxx |xxxxxxxxxxxxx |xxxxxxxxxxxxx |           66 |           66 |           66 |xxxxxxxxxxxxx |xxxxxxxxxxxxx |xxxxxxxxxxxxx |xxxxxxxxxxxxx |           66 |           66 |           66 |xxxxxxxxxxxxx |xxxxxxxxxxxxx |xxxxxxxxxxxxx |xxxxxxxxxxxxx |           66 |           66 |           66 |xxxxxxxxxxxxx |xxxxxxxxxxxxx |xxxxxxxxxxxxx |xxxxxxxxxxxxx |           66 |           66 |           66 |xxxxxxxxxxxxx |xxxxxxxxxxxxx |xxxxxxxxxxxxx |xxxxxxxxxxxxx |           66 |           66 |           66 |xxxxxxxxxxxxx |xxxxxxxxxxxxx |xxxxxxxxxxxxx |xxxxxxxxxxxxx |           66 |           66 |           66 |
bpred_bimod.retstack_pops                       64 |           64 |           64 |xxxxxxxxxxxxx |xxxxxxxxxxxxx |xxxxxxxxxxxxx |xxxxxxxxxxxxx |           64 |           64 |           64 |xxxxxxxxxxxxx |xxxxxxxxxxxxx |xxxxxxxxxxxxx |xxxxxxxxxxxxx |           64 |           64 |           64 |xxxxxxxxxxxxx |xxxxxxxxxxxxx |xxxxxxxxxxxxx |xxxxxxxxxxxxx |           64 |           64 |           64 |xxxxxxxxxxxxx |xxxxxxxxxxxxx |xxxxxxxxxxxxx |xxxxxxxxxxxxx |           64 |           64 |           64 |xxxxxxxxxxxxx |xxxxxxxxxxxxx |xxxxxxxxxxxxx |xxxxxxxxxxxxx |           64 |           64 |           64 |xxxxxxxxxxxxx |xxxxxxxxxxxxx |xxxxxxxxxxxxx |xxxxxxxxxxxxx |           64 |           64 |           64 |xxxxxxxxxxxxx |xxxxxxxxxxxxx |xxxxxxxxxxxxx |xxxxxxxxxxxxx |           64 |           64 |           64 |xxxxxxxxxxxxx |xxxxxxxxxxxxx |xxxxxxxxxxxxx |xxxxxxxxxxxxx |           64 |           64 |           64 |xxxxxxxxxxxxx |xxxxxxxxxxxxx |xxxxxxxxxxxxx |xxxxxxxxxxxxx |           64 |           64 |           64 |xxxxxxxxxxxxx |xxxxxxxxxxxxx |xxxxxxxxxxxxx |xxxxxxxxxxxxx |           64 |           64 |           64 |
bpred_bimod.used_ras.PP                         64 |           64 |           64 |xxxxxxxxxxxxx |xxxxxxxxxxxxx |xxxxxxxxxxxxx |xxxxxxxxxxxxx |           64 |           64 |           64 |xxxxxxxxxxxxx |xxxxxxxxxxxxx |xxxxxxxxxxxxx |xxxxxxxxxxxxx |           64 |           64 |           64 |xxxxxxxxxxxxx |xxxxxxxxxxxxx |xxxxxxxxxxxxx |xxxxxxxxxxxxx |           64 |           64 |           64 |xxxxxxxxxxxxx |xxxxxxxxxxxxx |xxxxxxxxxxxxx |xxxxxxxxxxxxx |           64 |           64 |           64 |xxxxxxxxxxxxx |xxxxxxxxxxxxx |xxxxxxxxxxxxx |xxxxxxxxxxxxx |           64 |           64 |           64 |xxxxxxxxxxxxx |xxxxxxxxxxxxx |xxxxxxxxxxxxx |xxxxxxxxxxxxx |           64 |           64 |           64 |xxxxxxxxxxxxx |xxxxxxxxxxxxx |xxxxxxxxxxxxx |xxxxxxxxxxxxx |           64 |           64 |           64 |xxxxxxxxxxxxx |xxxxxxxxxxxxx |xxxxxxxxxxxxx |xxxxxxxxxxxxx |           64 |           64 |           64 |xxxxxxxxxxxxx |xxxxxxxxxxxxx |xxxxxxxxxxxxx |xxxxxxxxxxxxx |           64 |           64 |           64 |xxxxxxxxxxxxx |xxxxxxxxxxxxx |xxxxxxxxxxxxx |xxxxxxxxxxxxx |           64 |           64 |           64 |
bpred_bimod.ras_hits.PP                         64 |           64 |           64 |xxxxxxxxxxxxx |xxxxxxxxxxxxx |xxxxxxxxxxxxx |xxxxxxxxxxxxx |           64 |           64 |           64 |xxxxxxxxxxxxx |xxxxxxxxxxxxx |xxxxxxxxxxxxx |xxxxxxxxxxxxx |           64 |           64 |           64 |xxxxxxxxxxxxx |xxxxxxxxxxxxx |xxxxxxxxxxxxx |xxxxxxxxxxxxx |           64 |           64 |           64 |xxxxxxxxxxxxx |xxxxxxxxxxxxx |xxxxxxxxxxxxx |xxxxxxxxxxxxx |           64 |           64 |           64 |xxxxxxxxxxxxx |xxxxxxxxxxxxx |xxxxxxxxxxxxx |xxxxxxxxxxxxx |           64 |           64 |           64 |xxxxxxxxxxxxx |xxxxxxxxxxxxx |xxxxxxxxxxxxx |xxxxxxxxxxxxx |           64 |           64 |           64 |xxxxxxxxxxxxx |xxxxxxxxxxxxx |xxxxxxxxxxxxx |xxxxxxxxxxxxx |           64 |           64 |           64 |xxxxxxxxxxxxx |xxxxxxxxxxxxx |xxxxxxxxxxxxx |xxxxxxxxxxxxx |           64 |           64 |           64 |xxxxxxxxxxxxx |xxxxxxxxxxxxx |xxxxxxxxxxxxx |xxxxxxxxxxxxx |           64 |           64 |           64 |xxxxxxxxxxxxx |xxxxxxxxxxxxx |xxxxxxxxxxxxx |xxxxxxxxxxxxx |           64 |           64 |           64 |
bpred_bimod.ras_rate.PP                     1.0000 |       1.0000 |       1.0000 |xxxxxxxxxxxxx |xxxxxxxxxxxxx |xxxxxxxxxxxxx |xxxxxxxxxxxxx |       1.0000 |       1.0000 |       1.0000 |xxxxxxxxxxxxx |xxxxxxxxxxxxx |xxxxxxxxxxxxx |xxxxxxxxxxxxx |       1.0000 |       1.0000 |       1.0000 |xxxxxxxxxxxxx |xxxxxxxxxxxxx |xxxxxxxxxxxxx |xxxxxxxxxxxxx |       1.0000 |       1.0000 |       1.0000 |xxxxxxxxxxxxx |xxxxxxxxxxxxx |xxxxxxxxxxxxx |xxxxxxxxxxxxx |       1.0000 |       1.0000 |       1.0000 |xxxxxxxxxxxxx |xxxxxxxxxxxxx |xxxxxxxxxxxxx |xxxxxxxxxxxxx |       1.0000 |       1.0000 |       1.0000 |xxxxxxxxxxxxx |xxxxxxxxxxxxx |xxxxxxxxxxxxx |xxxxxxxxxxxxx |       1.0000 |       1.0000 |       1.0000 |xxxxxxxxxxxxx |xxxxxxxxxxxxx |xxxxxxxxxxxxx |xxxxxxxxxxxxx |       1.0000 |       1.0000 |       1.0000 |xxxxxxxxxxxxx |xxxxxxxxxxxxx |xxxxxxxxxxxxx |xxxxxxxxxxxxx |       1.0000 |       1.0000 |       1.0000 |xxxxxxxxxxxxx |xxxxxxxxxxxxx |xxxxxxxxxxxxx |xxxxxxxxxxxxx |       1.0000 |       1.0000 |       1.0000 |xxxxxxxxxxxxx |xxxxxxxxxxxxx |xxxxxxxxxxxxx |xxxxxxxxxxxxx |       1.0000 |       1.0000 |       1.0000 |
bpred_2lev.lookups                   xxxxxxxxxxxxx |xxxxxxxxxxxxx |xxxxxxxxxxxxx |       103903 |       103903 |       103903 |       103903 |xxxxxxxxxxxxx |xxxxxxxxxxxxx |xxxxxxxxxxxxx |       218843 |       218843 |       218843 |       218843 |xxxxxxxxxxxxx |xxxxxxxxxxxxx |xxxxxxxxxxxxx |       480772 |       480772 |       480772 |       480772 |xxxxxxxxxxxxx |xxxxxxxxxxxxx |xxxxxxxxxxxxx |      1109805 |      1109805 |      1109805 |      1109805 |xxxxxxxxxxxxx |xxxxxxxxxxxxx |xxxxxxxxxxxxx |      2065486 |      2065486 |      2065486 |      2065486 |xxxxxxxxxxxxx |xxxxxxxxxxxxx |xxxxxxxxxxxxx |      4771093 |      4771093 |      4771093 |      4771093 |xxxxxxxxxxxxx |xxxxxxxxxxxxx |xxxxxxxxxxxxx |      9546768 |      9546768 |      9546768 |      9546768 |xxxxxxxxxxxxx |xxxxxxxxxxxxx |xxxxxxxxxxxxx |     21202761 |     21202761 |     21202761 |     21202761 |xxxxxxxxxxxxx |xxxxxxxxxxxxx |xxxxxxxxxxxxx |     45518346 |     45518346 |     45518346 |     45518346 |xxxxxxxxxxxxx |xxxxxxxxxxxxx |xxxxxxxxxxxxx |     94201213 |     94201213 |     94201213 |     94201213 |xxxxxxxxxxxxx |xxxxxxxxxxxxx |xxxxxxxxxxxxx |    193708472 |    193708472 |    193708472 |    193708472 |
[...]
bpred_2lev.retstack_pushes           xxxxxxxxxxxxx |xxxxxxxxxxxxx |xxxxxxxxxxxxx |           66 |           66 |           66 |           66 |xxxxxxxxxxxxx |xxxxxxxxxxxxx |xxxxxxxxxxxxx |           66 |           66 |           66 |           66 |xxxxxxxxxxxxx |xxxxxxxxxxxxx |xxxxxxxxxxxxx |           66 |           66 |           66 |           66 |xxxxxxxxxxxxx |xxxxxxxxxxxxx |xxxxxxxxxxxxx |           66 |           66 |           66 |           66 |xxxxxxxxxxxxx |xxxxxxxxxxxxx |xxxxxxxxxxxxx |           66 |           66 |           66 |           66 |xxxxxxxxxxxxx |xxxxxxxxxxxxx |xxxxxxxxxxxxx |           66 |           66 |           66 |           66 |xxxxxxxxxxxxx |xxxxxxxxxxxxx |xxxxxxxxxxxxx |           66 |           66 |           66 |           66 |xxxxxxxxxxxxx |xxxxxxxxxxxxx |xxxxxxxxxxxxx |           66 |           66 |           66 |           66 |xxxxxxxxxxxxx |xxxxxxxxxxxxx |xxxxxxxxxxxxx |           66 |           66 |           66 |           66 |xxxxxxxxxxxxx |xxxxxxxxxxxxx |xxxxxxxxxxxxx |           66 |           66 |           66 |           66 |xxxxxxxxxxxxx |xxxxxxxxxxxxx |xxxxxxxxxxxxx |           66 |           66 |           66 |           66 |
bpred_2lev.retstack_pops             xxxxxxxxxxxxx |xxxxxxxxxxxxx |xxxxxxxxxxxxx |           64 |           64 |           64 |           64 |xxxxxxxxxxxxx |xxxxxxxxxxxxx |xxxxxxxxxxxxx |           64 |           64 |           64 |           64 |xxxxxxxxxxxxx |xxxxxxxxxxxxx |xxxxxxxxxxxxx |           64 |           64 |           64 |           64 |xxxxxxxxxxxxx |xxxxxxxxxxxxx |xxxxxxxxxxxxx |           64 |           64 |           64 |           64 |xxxxxxxxxxxxx |xxxxxxxxxxxxx |xxxxxxxxxxxxx |           64 |           64 |           64 |           64 |xxxxxxxxxxxxx |xxxxxxxxxxxxx |xxxxxxxxxxxxx |           64 |           64 |           64 |           64 |xxxxxxxxxxxxx |xxxxxxxxxxxxx |xxxxxxxxxxxxx |           64 |           64 |           64 |           64 |xxxxxxxxxxxxx |xxxxxxxxxxxxx |xxxxxxxxxxxxx |           64 |           64 |           64 |           64 |xxxxxxxxxxxxx |xxxxxxxxxxxxx |xxxxxxxxxxxxx |           64 |           64 |           64 |           64 |xxxxxxxxxxxxx |xxxxxxxxxxxxx |xxxxxxxxxxxxx |           64 |           64 |           64 |           64 |xxxxxxxxxxxxx |xxxxxxxxxxxxx |xxxxxxxxxxxxx |           64 |           64 |           64 |           64 |
bpred_2lev.used_ras.PP               xxxxxxxxxxxxx |xxxxxxxxxxxxx |xxxxxxxxxxxxx |           64 |           64 |           64 |           64 |xxxxxxxxxxxxx |xxxxxxxxxxxxx |xxxxxxxxxxxxx |           64 |           64 |           64 |           64 |xxxxxxxxxxxxx |xxxxxxxxxxxxx |xxxxxxxxxxxxx |           64 |           64 |           64 |           64 |xxxxxxxxxxxxx |xxxxxxxxxxxxx |xxxxxxxxxxxxx |           64 |           64 |           64 |           64 |xxxxxxxxxxxxx |xxxxxxxxxxxxx |xxxxxxxxxxxxx |           64 |           64 |           64 |           64 |xxxxxxxxxxxxx |xxxxxxxxxxxxx |xxxxxxxxxxxxx |           64 |           64 |           64 |           64 |xxxxxxxxxxxxx |xxxxxxxxxxxxx |xxxxxxxxxxxxx |           64 |           64 |           64 |           64 |xxxxxxxxxxxxx |xxxxxxxxxxxxx |xxxxxxxxxxxxx |           64 |           64 |           64 |           64 |xxxxxxxxxxxxx |xxxxxxxxxxxxx |xxxxxxxxxxxxx |           64 |           64 |           64 |           64 |xxxxxxxxxxxxx |xxxxxxxxxxxxx |xxxxxxxxxxxxx |           64 |           64 |           64 |           64 |xxxxxxxxxxxxx |xxxxxxxxxxxxx |xxxxxxxxxxxxx |           64 |           64 |           64 |           64 |
bpred_2lev.ras_hits.PP               xxxxxxxxxxxxx |xxxxxxxxxxxxx |xxxxxxxxxxxxx |           64 |           64 |           64 |           64 |xxxxxxxxxxxxx |xxxxxxxxxxxxx |xxxxxxxxxxxxx |           64 |           64 |           64 |           64 |xxxxxxxxxxxxx |xxxxxxxxxxxxx |xxxxxxxxxxxxx |           64 |           64 |           64 |           64 |xxxxxxxxxxxxx |xxxxxxxxxxxxx |xxxxxxxxxxxxx |           64 |           64 |           64 |           64 |xxxxxxxxxxxxx |xxxxxxxxxxxxx |xxxxxxxxxxxxx |           64 |           64 |           64 |           64 |xxxxxxxxxxxxx |xxxxxxxxxxxxx |xxxxxxxxxxxxx |           64 |           64 |           64 |           64 |xxxxxxxxxxxxx |xxxxxxxxxxxxx |xxxxxxxxxxxxx |           64 |           64 |           64 |           64 |xxxxxxxxxxxxx |xxxxxxxxxxxxx |xxxxxxxxxxxxx |           64 |           64 |           64 |           64 |xxxxxxxxxxxxx |xxxxxxxxxxxxx |xxxxxxxxxxxxx |           64 |           64 |           64 |           64 |xxxxxxxxxxxxx |xxxxxxxxxxxxx |xxxxxxxxxxxxx |           64 |           64 |           64 |           64 |xxxxxxxxxxxxx |xxxxxxxxxxxxx |xxxxxxxxxxxxx |           64 |           64 |           64 |           64 |
bpred_2lev.ras_rate.PP               xxxxxxxxxxxxx |xxxxxxxxxxxxx |xxxxxxxxxxxxx |       1.0000 |       1.0000 |       1.0000 |       1.0000 |xxxxxxxxxxxxx |xxxxxxxxxxxxx |xxxxxxxxxxxxx |       1.0000 |       1.0000 |       1.0000 |       1.0000 |xxxxxxxxxxxxx |xxxxxxxxxxxxx |xxxxxxxxxxxxx |       1.0000 |       1.0000 |       1.0000 |       1.0000 |xxxxxxxxxxxxx |xxxxxxxxxxxxx |xxxxxxxxxxxxx |       1.0000 |       1.0000 |       1.0000 |       1.0000 |xxxxxxxxxxxxx |xxxxxxxxxxxxx |xxxxxxxxxxxxx |       1.0000 |       1.0000 |       1.0000 |       1.0000 |xxxxxxxxxxxxx |xxxxxxxxxxxxx |xxxxxxxxxxxxx |       1.0000 |       1.0000 |       1.0000 |       1.0000 |xxxxxxxxxxxxx |xxxxxxxxxxxxx |xxxxxxxxxxxxx |       1.0000 |       1.0000 |       1.0000 |       1.0000 |xxxxxxxxxxxxx |xxxxxxxxxxxxx |xxxxxxxxxxxxx |       1.0000 |       1.0000 |       1.0000 |       1.0000 |xxxxxxxxxxxxx |xxxxxxxxxxxxx |xxxxxxxxxxxxx |       1.0000 |       1.0000 |       1.0000 |       1.0000 |xxxxxxxxxxxxx |xxxxxxxxxxxxx |xxxxxxxxxxxxx |       1.0000 |       1.0000 |       1.0000 |       1.0000 |xxxxxxxxxxxxx |xxxxxxxxxxxxx |xxxxxxxxxxxxx |       1.0000 |       1.0000 |       1.0000 |       1.0000 |

Command list: 
	sslittle-na-sstrix-gcc -Wall -O3 -funroll-loops -finline-functions  -DRANDOM_SIZE=4096 -DOFFSET=5 -DSORT=base_quicksort1 sorts/base_quicksort11030537457.c simpleMain.c -o base_quicksort1370182590
	sim-cache -cache:dl1 dl1:256:32:1:l -cache:dl2 dl2:131072:32:1:l -cache:il1 il1:256:32:1:l -cache:il2 dl2 base_quicksort1370182590
	sim-cache -cache:dl1 dl1:256:32:1:l -cache:dl2 dl2:65536:32:1:l -cache:il1 il1:256:32:1:l -cache:il2 dl2 base_quicksort1370182590
	sim-cache -cache:dl1 dl1:1:32:256:l -cache:dl2 dl2:1:32:131072:l -cache:il1 il1:1:32:256:l -cache:il2 dl2 base_quicksort1370182590
	sim-cache -cache:dl1 dl1:1:32:256:l -cache:dl2 dl2:1:32:65536:l -cache:il1 il1:1:32:256:l -cache:il2 dl2 base_quicksort1370182590
	sim-bpred -bpred bimod -bpred:bimod 512 base_quicksort1370182590
	sim-bpred -bpred bimod -bpred:bimod 1024 base_quicksort1370182590
	sim-bpred -bpred bimod -bpred:bimod 2048 base_quicksort1370182590
	sim-bpred -bpred 2lev -bpred:2lev 1 512 10 1 base_quicksort1370182590
	sim-bpred -bpred 2lev -bpred:2lev 1 1024 10 1 base_quicksort1370182590
	sim-bpred -bpred 2lev -bpred:2lev 1 2048 10 1 base_quicksort1370182590
	sim-bpred -bpred 2lev -bpred:2lev 1 4096 10 1 base_quicksort1370182590
	sslittle-na-sstrix-gcc -Wall -O3 -funroll-loops -finline-functions  -DRANDOM_SIZE=8192 -DOFFSET=5 -DSORT=base_quicksort1 sorts/base_quicksort11030537457.c simpleMain.c -o base_quicksort1370182590
	sim-cache -cache:dl1 dl1:256:32:1:l -cache:dl2 dl2:131072:32:1:l -cache:il1 il1:256:32:1:l -cache:il2 dl2 base_quicksort1370182590
	sim-cache -cache:dl1 dl1:256:32:1:l -cache:dl2 dl2:65536:32:1:l -cache:il1 il1:256:32:1:l -cache:il2 dl2 base_quicksort1370182590
	sim-cache -cache:dl1 dl1:1:32:256:l -cache:dl2 dl2:1:32:131072:l -cache:il1 il1:1:32:256:l -cache:il2 dl2 base_quicksort1370182590
	sim-cache -cache:dl1 dl1:1:32:256:l -cache:dl2 dl2:1:32:65536:l -cache:il1 il1:1:32:256:l -cache:il2 dl2 base_quicksort1370182590
	sim-bpred -bpred bimod -bpred:bimod 512 base_quicksort1370182590
	sim-bpred -bpred bimod -bpred:bimod 1024 base_quicksort1370182590
	sim-bpred -bpred bimod -bpred:bimod 2048 base_quicksort1370182590
	sim-bpred -bpred 2lev -bpred:2lev 1 512 10 1 base_quicksort1370182590
	sim-bpred -bpred 2lev -bpred:2lev 1 1024 10 1 base_quicksort1370182590
	sim-bpred -bpred 2lev -bpred:2lev 1 2048 10 1 base_quicksort1370182590
	sim-bpred -bpred 2lev -bpred:2lev 1 4096 10 1 base_quicksort1370182590
	sslittle-na-sstrix-gcc -Wall -O3 -funroll-loops -finline-functions  -DRANDOM_SIZE=16384 -DOFFSET=5 -DSORT=base_quicksort1 sorts/base_quicksort11030537457.c simpleMain.c -o base_quicksort1370182590
	sim-cache -cache:dl1 dl1:256:32:1:l -cache:dl2 dl2:131072:32:1:l -cache:il1 il1:256:32:1:l -cache:il2 dl2 base_quicksort1370182590
	sim-cache -cache:dl1 dl1:256:32:1:l -cache:dl2 dl2:65536:32:1:l -cache:il1 il1:256:32:1:l -cache:il2 dl2 base_quicksort1370182590
	sim-cache -cache:dl1 dl1:1:32:256:l -cache:dl2 dl2:1:32:131072:l -cache:il1 il1:1:32:256:l -cache:il2 dl2 base_quicksort1370182590
	sim-cache -cache:dl1 dl1:1:32:256:l -cache:dl2 dl2:1:32:65536:l -cache:il1 il1:1:32:256:l -cache:il2 dl2 base_quicksort1370182590
	sim-bpred -bpred bimod -bpred:bimod 512 base_quicksort1370182590
	sim-bpred -bpred bimod -bpred:bimod 1024 base_quicksort1370182590
	sim-bpred -bpred bimod -bpred:bimod 2048 base_quicksort1370182590
	sim-bpred -bpred 2lev -bpred:2lev 1 512 10 1 base_quicksort1370182590
	sim-bpred -bpred 2lev -bpred:2lev 1 1024 10 1 base_quicksort1370182590
	sim-bpred -bpred 2lev -bpred:2lev 1 2048 10 1 base_quicksort1370182590
	sim-bpred -bpred 2lev -bpred:2lev 1 4096 10 1 base_quicksort1370182590
	sslittle-na-sstrix-gcc -Wall -O3 -funroll-loops -finline-functions  -DRANDOM_SIZE=32768 -DOFFSET=5 -DSORT=base_quicksort1 sorts/base_quicksort11030537457.c simpleMain.c -o base_quicksort1370182590
	sim-cache -cache:dl1 dl1:256:32:1:l -cache:dl2 dl2:131072:32:1:l -cache:il1 il1:256:32:1:l -cache:il2 dl2 base_quicksort1370182590
	sim-cache -cache:dl1 dl1:256:32:1:l -cache:dl2 dl2:65536:32:1:l -cache:il1 il1:256:32:1:l -cache:il2 dl2 base_quicksort1370182590
	sim-cache -cache:dl1 dl1:1:32:256:l -cache:dl2 dl2:1:32:131072:l -cache:il1 il1:1:32:256:l -cache:il2 dl2 base_quicksort1370182590
	sim-cache -cache:dl1 dl1:1:32:256:l -cache:dl2 dl2:1:32:65536:l -cache:il1 il1:1:32:256:l -cache:il2 dl2 base_quicksort1370182590
	sim-bpred -bpred bimod -bpred:bimod 512 base_quicksort1370182590
	sim-bpred -bpred bimod -bpred:bimod 1024 base_quicksort1370182590
	sim-bpred -bpred bimod -bpred:bimod 2048 base_quicksort1370182590
	sim-bpred -bpred 2lev -bpred:2lev 1 512 10 1 base_quicksort1370182590
	sim-bpred -bpred 2lev -bpred:2lev 1 1024 10 1 base_quicksort1370182590
	sim-bpred -bpred 2lev -bpred:2lev 1 2048 10 1 base_quicksort1370182590
	sim-bpred -bpred 2lev -bpred:2lev 1 4096 10 1 base_quicksort1370182590
	sslittle-na-sstrix-gcc -Wall -O3 -funroll-loops -finline-functions  -DRANDOM_SIZE=65536 -DOFFSET=5 -DSORT=base_quicksort1 sorts/base_quicksort11030537457.c simpleMain.c -o base_quicksort1370182590
	sim-cache -cache:dl1 dl1:256:32:1:l -cache:dl2 dl2:131072:32:1:l -cache:il1 il1:256:32:1:l -cache:il2 dl2 base_quicksort1370182590
	sim-cache -cache:dl1 dl1:256:32:1:l -cache:dl2 dl2:65536:32:1:l -cache:il1 il1:256:32:1:l -cache:il2 dl2 base_quicksort1370182590
	sim-cache -cache:dl1 dl1:1:32:256:l -cache:dl2 dl2:1:32:131072:l -cache:il1 il1:1:32:256:l -cache:il2 dl2 base_quicksort1370182590
	sim-cache -cache:dl1 dl1:1:32:256:l -cache:dl2 dl2:1:32:65536:l -cache:il1 il1:1:32:256:l -cache:il2 dl2 base_quicksort1370182590
	sim-bpred -bpred bimod -bpred:bimod 512 base_quicksort1370182590
	sim-bpred -bpred bimod -bpred:bimod 1024 base_quicksort1370182590
	sim-bpred -bpred bimod -bpred:bimod 2048 base_quicksort1370182590
	sim-bpred -bpred 2lev -bpred:2lev 1 512 10 1 base_quicksort1370182590
	sim-bpred -bpred 2lev -bpred:2lev 1 1024 10 1 base_quicksort1370182590
	sim-bpred -bpred 2lev -bpred:2lev 1 2048 10 1 base_quicksort1370182590
	sim-bpred -bpred 2lev -bpred:2lev 1 4096 10 1 base_quicksort1370182590
	sslittle-na-sstrix-gcc -Wall -O3 -funroll-loops -finline-functions  -DRANDOM_SIZE=131072 -DOFFSET=5 -DSORT=base_quicksort1 sorts/base_quicksort11030537457.c simpleMain.c -o base_quicksort1370182590
	sim-cache -cache:dl1 dl1:256:32:1:l -cache:dl2 dl2:131072:32:1:l -cache:il1 il1:256:32:1:l -cache:il2 dl2 base_quicksort1370182590
	sim-cache -cache:dl1 dl1:256:32:1:l -cache:dl2 dl2:65536:32:1:l -cache:il1 il1:256:32:1:l -cache:il2 dl2 base_quicksort1370182590
	sim-cache -cache:dl1 dl1:1:32:256:l -cache:dl2 dl2:1:32:131072:l -cache:il1 il1:1:32:256:l -cache:il2 dl2 base_quicksort1370182590
	sim-cache -cache:dl1 dl1:1:32:256:l -cache:dl2 dl2:1:32:65536:l -cache:il1 il1:1:32:256:l -cache:il2 dl2 base_quicksort1370182590
	sim-bpred -bpred bimod -bpred:bimod 512 base_quicksort1370182590
	sim-bpred -bpred bimod -bpred:bimod 1024 base_quicksort1370182590
	sim-bpred -bpred bimod -bpred:bimod 2048 base_quicksort1370182590
	sim-bpred -bpred 2lev -bpred:2lev 1 512 10 1 base_quicksort1370182590
	sim-bpred -bpred 2lev -bpred:2lev 1 1024 10 1 base_quicksort1370182590
	sim-bpred -bpred 2lev -bpred:2lev 1 2048 10 1 base_quicksort1370182590
	sim-bpred -bpred 2lev -bpred:2lev 1 4096 10 1 base_quicksort1370182590
	sslittle-na-sstrix-gcc -Wall -O3 -funroll-loops -finline-functions  -DRANDOM_SIZE=262144 -DOFFSET=5 -DSORT=base_quicksort1 sorts/base_quicksort11030537457.c simpleMain.c -o base_quicksort1370182590
	sim-cache -cache:dl1 dl1:256:32:1:l -cache:dl2 dl2:131072:32:1:l -cache:il1 il1:256:32:1:l -cache:il2 dl2 base_quicksort1370182590
	sim-cache -cache:dl1 dl1:256:32:1:l -cache:dl2 dl2:65536:32:1:l -cache:il1 il1:256:32:1:l -cache:il2 dl2 base_quicksort1370182590
	sim-cache -cache:dl1 dl1:1:32:256:l -cache:dl2 dl2:1:32:131072:l -cache:il1 il1:1:32:256:l -cache:il2 dl2 base_quicksort1370182590
	sim-cache -cache:dl1 dl1:1:32:256:l -cache:dl2 dl2:1:32:65536:l -cache:il1 il1:1:32:256:l -cache:il2 dl2 base_quicksort1370182590
	sim-bpred -bpred bimod -bpred:bimod 512 base_quicksort1370182590
	sim-bpred -bpred bimod -bpred:bimod 1024 base_quicksort1370182590
	sim-bpred -bpred bimod -bpred:bimod 2048 base_quicksort1370182590
	sim-bpred -bpred 2lev -bpred:2lev 1 512 10 1 base_quicksort1370182590
	sim-bpred -bpred 2lev -bpred:2lev 1 1024 10 1 base_quicksort1370182590
	sim-bpred -bpred 2lev -bpred:2lev 1 2048 10 1 base_quicksort1370182590
	sim-bpred -bpred 2lev -bpred:2lev 1 4096 10 1 base_quicksort1370182590
	sslittle-na-sstrix-gcc -Wall -O3 -funroll-loops -finline-functions  -DRANDOM_SIZE=524288 -DOFFSET=5 -DSORT=base_quicksort1 sorts/base_quicksort11030537457.c simpleMain.c -o base_quicksort1370182590
	sim-cache -cache:dl1 dl1:256:32:1:l -cache:dl2 dl2:131072:32:1:l -cache:il1 il1:256:32:1:l -cache:il2 dl2 base_quicksort1370182590
	sim-cache -cache:dl1 dl1:256:32:1:l -cache:dl2 dl2:65536:32:1:l -cache:il1 il1:256:32:1:l -cache:il2 dl2 base_quicksort1370182590
	sim-cache -cache:dl1 dl1:1:32:256:l -cache:dl2 dl2:1:32:131072:l -cache:il1 il1:1:32:256:l -cache:il2 dl2 base_quicksort1370182590
	sim-cache -cache:dl1 dl1:1:32:256:l -cache:dl2 dl2:1:32:65536:l -cache:il1 il1:1:32:256:l -cache:il2 dl2 base_quicksort1370182590
	sim-bpred -bpred bimod -bpred:bimod 512 base_quicksort1370182590
	sim-bpred -bpred bimod -bpred:bimod 1024 base_quicksort1370182590
	sim-bpred -bpred bimod -bpred:bimod 2048 base_quicksort1370182590
	sim-bpred -bpred 2lev -bpred:2lev 1 512 10 1 base_quicksort1370182590
	sim-bpred -bpred 2lev -bpred:2lev 1 1024 10 1 base_quicksort1370182590
	sim-bpred -bpred 2lev -bpred:2lev 1 2048 10 1 base_quicksort1370182590
	sim-bpred -bpred 2lev -bpred:2lev 1 4096 10 1 base_quicksort1370182590
	sslittle-na-sstrix-gcc -Wall -O3 -funroll-loops -finline-functions  -DRANDOM_SIZE=1048576 -DOFFSET=5 -DSORT=base_quicksort1 sorts/base_quicksort11030537457.c simpleMain.c -o base_quicksort1370182590
	sim-cache -cache:dl1 dl1:256:32:1:l -cache:dl2 dl2:131072:32:1:l -cache:il1 il1:256:32:1:l -cache:il2 dl2 base_quicksort1370182590
	sim-cache -cache:dl1 dl1:256:32:1:l -cache:dl2 dl2:65536:32:1:l -cache:il1 il1:256:32:1:l -cache:il2 dl2 base_quicksort1370182590
	sim-cache -cache:dl1 dl1:1:32:256:l -cache:dl2 dl2:1:32:131072:l -cache:il1 il1:1:32:256:l -cache:il2 dl2 base_quicksort1370182590
	sim-cache -cache:dl1 dl1:1:32:256:l -cache:dl2 dl2:1:32:65536:l -cache:il1 il1:1:32:256:l -cache:il2 dl2 base_quicksort1370182590
	sim-bpred -bpred bimod -bpred:bimod 512 base_quicksort1370182590
	sim-bpred -bpred bimod -bpred:bimod 1024 base_quicksort1370182590
	sim-bpred -bpred bimod -bpred:bimod 2048 base_quicksort1370182590
	sim-bpred -bpred 2lev -bpred:2lev 1 512 10 1 base_quicksort1370182590
	sim-bpred -bpred 2lev -bpred:2lev 1 1024 10 1 base_quicksort1370182590
	sim-bpred -bpred 2lev -bpred:2lev 1 2048 10 1 base_quicksort1370182590
	sim-bpred -bpred 2lev -bpred:2lev 1 4096 10 1 base_quicksort1370182590
	sslittle-na-sstrix-gcc -Wall -O3 -funroll-loops -finline-functions  -DRANDOM_SIZE=2097152 -DOFFSET=5 -DSORT=base_quicksort1 sorts/base_quicksort11030537457.c simpleMain.c -o base_quicksort1370182590
	sim-cache -cache:dl1 dl1:256:32:1:l -cache:dl2 dl2:131072:32:1:l -cache:il1 il1:256:32:1:l -cache:il2 dl2 base_quicksort1370182590
	sim-cache -cache:dl1 dl1:256:32:1:l -cache:dl2 dl2:65536:32:1:l -cache:il1 il1:256:32:1:l -cache:il2 dl2 base_quicksort1370182590
	sim-cache -cache:dl1 dl1:1:32:256:l -cache:dl2 dl2:1:32:131072:l -cache:il1 il1:1:32:256:l -cache:il2 dl2 base_quicksort1370182590
	sim-cache -cache:dl1 dl1:1:32:256:l -cache:dl2 dl2:1:32:65536:l -cache:il1 il1:1:32:256:l -cache:il2 dl2 base_quicksort1370182590
	sim-bpred -bpred bimod -bpred:bimod 512 base_quicksort1370182590
	sim-bpred -bpred bimod -bpred:bimod 1024 base_quicksort1370182590
	sim-bpred -bpred bimod -bpred:bimod 2048 base_quicksort1370182590
	sim-bpred -bpred 2lev -bpred:2lev 1 512 10 1 base_quicksort1370182590
	sim-bpred -bpred 2lev -bpred:2lev 1 1024 10 1 base_quicksort1370182590
	sim-bpred -bpred 2lev -bpred:2lev 1 2048 10 1 base_quicksort1370182590
	sim-bpred -bpred 2lev -bpred:2lev 1 4096 10 1 base_quicksort1370182590
	sslittle-na-sstrix-gcc -Wall -O3 -funroll-loops -finline-functions  -DRANDOM_SIZE=4194304 -DOFFSET=5 -DSORT=base_quicksort1 sorts/base_quicksort11030537457.c simpleMain.c -o base_quicksort1370182590
	sim-cache -cache:dl1 dl1:256:32:1:l -cache:dl2 dl2:131072:32:1:l -cache:il1 il1:256:32:1:l -cache:il2 dl2 base_quicksort1370182590
	sim-cache -cache:dl1 dl1:256:32:1:l -cache:dl2 dl2:65536:32:1:l -cache:il1 il1:256:32:1:l -cache:il2 dl2 base_quicksort1370182590
	sim-cache -cache:dl1 dl1:1:32:256:l -cache:dl2 dl2:1:32:131072:l -cache:il1 il1:1:32:256:l -cache:il2 dl2 base_quicksort1370182590
	sim-cache -cache:dl1 dl1:1:32:256:l -cache:dl2 dl2:1:32:65536:l -cache:il1 il1:1:32:256:l -cache:il2 dl2 base_quicksort1370182590
	sim-bpred -bpred bimod -bpred:bimod 512 base_quicksort1370182590
	sim-bpred -bpred bimod -bpred:bimod 1024 base_quicksort1370182590
	sim-bpred -bpred bimod -bpred:bimod 2048 base_quicksort1370182590
	sim-bpred -bpred 2lev -bpred:2lev 1 512 10 1 base_quicksort1370182590
	sim-bpred -bpred 2lev -bpred:2lev 1 1024 10 1 base_quicksort1370182590
	sim-bpred -bpred 2lev -bpred:2lev 1 2048 10 1 base_quicksort1370182590
	sim-bpred -bpred 2lev -bpred:2lev 1 4096 10 1 base_quicksort1370182590
