Sat Jul  2 09:48:10 2005
Run as: "./do_simple -c random.org3 -o 3 base_quicksort5"
-------------------------------------------------------------------------------------------------
sim-cache                                     4096 |         4096 |         4096 |         4096 |         8192 |         8192 |         8192 |         8192 |        16384 |        16384 |        16384 |        16384 |        32768 |        32768 |        32768 |        32768 |        65536 |        65536 |        65536 |        65536 |       131072 |       131072 |       131072 |       131072 |       262144 |       262144 |       262144 |       262144 |       524288 |       524288 |       524288 |       524288 |      1048576 |      1048576 |      1048576 |      1048576 |      2097152 |      2097152 |      2097152 |      2097152 |      4194304 |      4194304 |      4194304 |      4194304 |
-cache:dl1 dl1:256:32:1:l -cache:dl2 dl2:131072:32:1:l -cache:il1 il1:256:32:1:l -cache:il2 dl2
-cache:dl1 dl1:256:32:1:l -cache:dl2 dl2:65536:32:1:l -cache:il1 il1:256:32:1:l -cache:il2 dl2
-cache:dl1 dl1:1:32:256:l -cache:dl2 dl2:1:32:131072:l -cache:il1 il1:1:32:256:l -cache:il2 dl2
-cache:dl1 dl1:1:32:256:l -cache:dl2 dl2:1:32:65536:l -cache:il1 il1:1:32:256:l -cache:il2 dl2
-------------------------------------------------------------------------------------------------
sim_num_insn                                470369 |       470369 |       470369 |       470369 |      1002985 |      1002985 |      1002985 |      1002985 |      2148123 |      2148123 |      2148123 |      2148123 |      4630525 |      4630525 |      4630525 |      4630525 |      9705615 |      9705615 |      9705615 |      9705615 |     20679985 |     20679985 |     20679985 |     20679985 |     43535662 |     43535662 |     43535662 |     43535662 |     92031471 |     92031471 |     92031471 |     92031471 |    190988785 |    190988785 |    190988785 |    190988785 |    403709182 |    403709182 |    403709182 |    403709182 |    857757635 |    857757635 |    857757635 |    857757635 |
sim_num_refs                                125559 |       125559 |       125559 |       125559 |       263151 |       263151 |       263151 |       263151 |       555895 |       555895 |       555895 |       555895 |      1183764 |      1183764 |      1183764 |      1183764 |      2484796 |      2484796 |      2484796 |      2484796 |      5251223 |      5251223 |      5251223 |      5251223 |     11023771 |     11023771 |     11023771 |     11023771 |     23170332 |     23170332 |     23170332 |     23170332 |     48209407 |     48209407 |     48209407 |     48209407 |    101182918 |    101182918 |    101182918 |    101182918 |    213152050 |    213152050 |    213152050 |    213152050 |
sim_elapsed_time                                 1 |            1 |            7 |            4 |            1 |            1 |           10 |            5 |            1 |            1 |           15 |            8 |            1 |            1 |           26 |           14 |            3 |            2 |           48 |           24 |            5 |            6 |           88 |           44 |           12 |           12 |          162 |           77 |           25 |           24 |          280 |          110 |           50 |           51 |          389 |          138 |          106 |          107 |          451 |          199 |          226 |          225 |          581 |          331 |
sim_inst_rate                          470369.0000 |  470369.0000 |   67195.5714 |  117592.2500 | 1002985.0000 | 1002985.0000 |  100298.5000 |  200597.0000 | 2148123.0000 | 2148123.0000 |  143208.2000 |  268515.3750 | 4630525.0000 | 4630525.0000 |  178097.1154 |  330751.7857 | 3235205.0000 | 4852807.5000 |  202200.3125 |  404400.6250 | 4135997.0000 | 3446664.1667 |  234999.8295 |  469999.6591 | 3627971.8333 | 3627971.8333 |  268738.6543 |  565398.2078 | 3681258.8400 | 3834644.6250 |  328683.8250 |  836649.7364 | 3819775.7000 | 3744878.1373 |  490973.7404 | 1383976.7029 | 3808577.1887 | 3772983.0093 |  895142.3104 | 2028689.3568 | 3795387.7655 | 3812256.1556 | 1476347.0482 | 2591412.7946 |
il1.accesses                                470369 |       470369 |       470369 |       470369 |      1002985 |      1002985 |      1002985 |      1002985 |      2148123 |      2148123 |      2148123 |      2148123 |      4630525 |      4630525 |      4630525 |      4630525 |      9705615 |      9705615 |      9705615 |      9705615 |     20679985 |     20679985 |     20679985 |     20679985 |     43535662 |     43535662 |     43535662 |     43535662 |     92031471 |     92031471 |     92031471 |     92031471 |    190988785 |    190988785 |    190988785 |    190988785 |    403709182 |    403709182 |    403709182 |    403709182 |    857757635 |    857757635 |    857757635 |    857757635 |
il1.hits                                    469905 |       469905 |       469941 |       469941 |      1002524 |      1002524 |      1002557 |      1002557 |      2147672 |      2147672 |      2147698 |      2147698 |      4630061 |      4630061 |      4630095 |      4630095 |      9705151 |      9705151 |      9705185 |      9705185 |     20679521 |     20679521 |     20679555 |     20679555 |     43535198 |     43535198 |     43535232 |     43535232 |     92031007 |     92031007 |     92031041 |     92031041 |    190988321 |    190988321 |    190988355 |    190988355 |    403708718 |    403708718 |    403708752 |    403708752 |    857757171 |    857757171 |    857757205 |    857757205 |
il1.misses                                     464 |          464 |          428 |          428 |          461 |          461 |          428 |          428 |          451 |          451 |          425 |          425 |          464 |          464 |          430 |          430 |          464 |          464 |          430 |          430 |          464 |          464 |          430 |          430 |          464 |          464 |          430 |          430 |          464 |          464 |          430 |          430 |          464 |          464 |          430 |          430 |          464 |          464 |          430 |          430 |          464 |          464 |          430 |          430 |
il1.replacements                               224 |          224 |          172 |          172 |          222 |          222 |          172 |          172 |          213 |          213 |          169 |          169 |          226 |          226 |          174 |          174 |          226 |          226 |          174 |          174 |          226 |          226 |          174 |          174 |          226 |          226 |          174 |          174 |          226 |          226 |          174 |          174 |          226 |          226 |          174 |          174 |          226 |          226 |          174 |          174 |          226 |          226 |          174 |          174 |
il1.writebacks                                   0 |            0 |            0 |            0 |            0 |            0 |            0 |            0 |            0 |            0 |            0 |            0 |            0 |            0 |            0 |            0 |            0 |            0 |            0 |            0 |            0 |            0 |            0 |            0 |            0 |            0 |            0 |            0 |            0 |            0 |            0 |            0 |            0 |            0 |            0 |            0 |            0 |            0 |            0 |            0 |            0 |            0 |            0 |            0 |
il1.invalidations                                0 |            0 |            0 |            0 |            0 |            0 |            0 |            0 |            0 |            0 |            0 |            0 |            0 |            0 |            0 |            0 |            0 |            0 |            0 |            0 |            0 |            0 |            0 |            0 |            0 |            0 |            0 |            0 |            0 |            0 |            0 |            0 |            0 |            0 |            0 |            0 |            0 |            0 |            0 |            0 |            0 |            0 |            0 |            0 |
il1.miss_rate                               0.0010 |       0.0010 |       0.0009 |       0.0009 |       0.0005 |       0.0005 |       0.0004 |       0.0004 |       0.0002 |       0.0002 |       0.0002 |       0.0002 |       0.0001 |       0.0001 |       0.0001 |       0.0001 |       0.0000 |       0.0000 |       0.0000 |       0.0000 |       0.0000 |       0.0000 |       0.0000 |       0.0000 |       0.0000 |       0.0000 |       0.0000 |       0.0000 |       0.0000 |       0.0000 |       0.0000 |       0.0000 |       0.0000 |       0.0000 |       0.0000 |       0.0000 |       0.0000 |       0.0000 |       0.0000 |       0.0000 |       0.0000 |       0.0000 |       0.0000 |       0.0000 |
il1.repl_rate                               0.0005 |       0.0005 |       0.0004 |       0.0004 |       0.0002 |       0.0002 |       0.0002 |       0.0002 |       0.0001 |       0.0001 |       0.0001 |       0.0001 |       0.0000 |       0.0000 |       0.0000 |       0.0000 |       0.0000 |       0.0000 |       0.0000 |       0.0000 |       0.0000 |       0.0000 |       0.0000 |       0.0000 |       0.0000 |       0.0000 |       0.0000 |       0.0000 |       0.0000 |       0.0000 |       0.0000 |       0.0000 |       0.0000 |       0.0000 |       0.0000 |       0.0000 |       0.0000 |       0.0000 |       0.0000 |       0.0000 |       0.0000 |       0.0000 |       0.0000 |       0.0000 |
il1.wb_rate                                 0.0000 |       0.0000 |       0.0000 |       0.0000 |       0.0000 |       0.0000 |       0.0000 |       0.0000 |       0.0000 |       0.0000 |       0.0000 |       0.0000 |       0.0000 |       0.0000 |       0.0000 |       0.0000 |       0.0000 |       0.0000 |       0.0000 |       0.0000 |       0.0000 |       0.0000 |       0.0000 |       0.0000 |       0.0000 |       0.0000 |       0.0000 |       0.0000 |       0.0000 |       0.0000 |       0.0000 |       0.0000 |       0.0000 |       0.0000 |       0.0000 |       0.0000 |       0.0000 |       0.0000 |       0.0000 |       0.0000 |       0.0000 |       0.0000 |       0.0000 |       0.0000 |
il1.inv_rate                                0.0000 |       0.0000 |       0.0000 |       0.0000 |       0.0000 |       0.0000 |       0.0000 |       0.0000 |       0.0000 |       0.0000 |       0.0000 |       0.0000 |       0.0000 |       0.0000 |       0.0000 |       0.0000 |       0.0000 |       0.0000 |       0.0000 |       0.0000 |       0.0000 |       0.0000 |       0.0000 |       0.0000 |       0.0000 |       0.0000 |       0.0000 |       0.0000 |       0.0000 |       0.0000 |       0.0000 |       0.0000 |       0.0000 |       0.0000 |       0.0000 |       0.0000 |       0.0000 |       0.0000 |       0.0000 |       0.0000 |       0.0000 |       0.0000 |       0.0000 |       0.0000 |
dl1.accesses                                142025 |       142025 |       142025 |       142025 |       296001 |       296001 |       296001 |       296001 |       621513 |       621513 |       621513 |       621513 |      1314918 |      1314918 |      1314918 |      1314918 |      2747022 |      2747022 |      2747022 |      2747022 |      5775593 |      5775593 |      5775593 |      5775593 |     12072429 |     12072429 |     12072429 |     12072429 |     25267566 |     25267566 |     25267566 |     25267566 |     52403793 |     52403793 |     52403793 |     52403793 |    109571608 |    109571608 |    109571608 |    109571608 |    229929348 |    229929348 |    229929348 |    229929348 |
dl1.hits                                    139615 |       139615 |       139507 |       139507 |       289990 |       289990 |       289977 |       289977 |       607843 |       607843 |       607782 |       607782 |      1282181 |      1282181 |      1282290 |      1282290 |      2675313 |      2675313 |      2675139 |      2675139 |      5611217 |      5611217 |      5611152 |      5611152 |     11708781 |     11708781 |     11710426 |     11710426 |     24455118 |     24455118 |     24462032 |     24462032 |     50691528 |     50691528 |     50707575 |     50707575 |    105777662 |    105777662 |    105817150 |    105817150 |    221442713 |    221442713 |    221539918 |    221539918 |
dl1.misses                                    2410 |         2410 |         2518 |         2518 |         6011 |         6011 |         6024 |         6024 |        13670 |        13670 |        13731 |        13731 |        32737 |        32737 |        32628 |        32628 |        71709 |        71709 |        71883 |        71883 |       164376 |       164376 |       164441 |       164441 |       363648 |       363648 |       362003 |       362003 |       812448 |       812448 |       805534 |       805534 |      1712265 |      1712265 |      1696218 |      1696218 |      3793946 |      3793946 |      3754458 |      3754458 |      8486635 |      8486635 |      8389430 |      8389430 |
dl1.replacements                              2154 |         2154 |         2262 |         2262 |         5755 |         5755 |         5768 |         5768 |        13414 |        13414 |        13475 |        13475 |        32481 |        32481 |        32372 |        32372 |        71453 |        71453 |        71627 |        71627 |       164120 |       164120 |       164185 |       164185 |       363392 |       363392 |       361747 |       361747 |       812192 |       812192 |       805278 |       805278 |      1712009 |      1712009 |      1695962 |      1695962 |      3793690 |      3793690 |      3754202 |      3754202 |      8486379 |      8486379 |      8389174 |      8389174 |
dl1.writebacks                                2091 |         2091 |         2196 |         2196 |         5473 |         5473 |         5506 |         5506 |        12908 |        12908 |        13069 |        13069 |        30393 |        30393 |        30554 |        30554 |        67856 |        67856 |        68547 |        68547 |       155108 |       155108 |       156412 |       156412 |       343160 |       343160 |       344788 |       344788 |       761262 |       761262 |       762561 |       762561 |      1636704 |      1636704 |      1638506 |      1638506 |      3575849 |      3575849 |      3577332 |      3577332 |      7763229 |      7763229 |      7755643 |      7755643 |
dl1.invalidations                                0 |            0 |            0 |            0 |            0 |            0 |            0 |            0 |            0 |            0 |            0 |            0 |            0 |            0 |            0 |            0 |            0 |            0 |            0 |            0 |            0 |            0 |            0 |            0 |            0 |            0 |            0 |            0 |            0 |            0 |            0 |            0 |            0 |            0 |            0 |            0 |            0 |            0 |            0 |            0 |            0 |            0 |            0 |            0 |
dl1.miss_rate                               0.0170 |       0.0170 |       0.0177 |       0.0177 |       0.0203 |       0.0203 |       0.0204 |       0.0204 |       0.0220 |       0.0220 |       0.0221 |       0.0221 |       0.0249 |       0.0249 |       0.0248 |       0.0248 |       0.0261 |       0.0261 |       0.0262 |       0.0262 |       0.0285 |       0.0285 |       0.0285 |       0.0285 |       0.0301 |       0.0301 |       0.0300 |       0.0300 |       0.0322 |       0.0322 |       0.0319 |       0.0319 |       0.0327 |       0.0327 |       0.0324 |       0.0324 |       0.0346 |       0.0346 |       0.0343 |       0.0343 |       0.0369 |       0.0369 |       0.0365 |       0.0365 |
dl1.repl_rate                               0.0152 |       0.0152 |       0.0159 |       0.0159 |       0.0194 |       0.0194 |       0.0195 |       0.0195 |       0.0216 |       0.0216 |       0.0217 |       0.0217 |       0.0247 |       0.0247 |       0.0246 |       0.0246 |       0.0260 |       0.0260 |       0.0261 |       0.0261 |       0.0284 |       0.0284 |       0.0284 |       0.0284 |       0.0301 |       0.0301 |       0.0300 |       0.0300 |       0.0321 |       0.0321 |       0.0319 |       0.0319 |       0.0327 |       0.0327 |       0.0324 |       0.0324 |       0.0346 |       0.0346 |       0.0343 |       0.0343 |       0.0369 |       0.0369 |       0.0365 |       0.0365 |
dl1.wb_rate                                 0.0147 |       0.0147 |       0.0155 |       0.0155 |       0.0185 |       0.0185 |       0.0186 |       0.0186 |       0.0208 |       0.0208 |       0.0210 |       0.0210 |       0.0231 |       0.0231 |       0.0232 |       0.0232 |       0.0247 |       0.0247 |       0.0250 |       0.0250 |       0.0269 |       0.0269 |       0.0271 |       0.0271 |       0.0284 |       0.0284 |       0.0286 |       0.0286 |       0.0301 |       0.0301 |       0.0302 |       0.0302 |       0.0312 |       0.0312 |       0.0313 |       0.0313 |       0.0326 |       0.0326 |       0.0326 |       0.0326 |       0.0338 |       0.0338 |       0.0337 |       0.0337 |
dl1.inv_rate                                0.0000 |       0.0000 |       0.0000 |       0.0000 |       0.0000 |       0.0000 |       0.0000 |       0.0000 |       0.0000 |       0.0000 |       0.0000 |       0.0000 |       0.0000 |       0.0000 |       0.0000 |       0.0000 |       0.0000 |       0.0000 |       0.0000 |       0.0000 |       0.0000 |       0.0000 |       0.0000 |       0.0000 |       0.0000 |       0.0000 |       0.0000 |       0.0000 |       0.0000 |       0.0000 |       0.0000 |       0.0000 |       0.0000 |       0.0000 |       0.0000 |       0.0000 |       0.0000 |       0.0000 |       0.0000 |       0.0000 |       0.0000 |       0.0000 |       0.0000 |       0.0000 |
dl2.accesses                                  4965 |         4965 |         5142 |         5142 |        11945 |        11945 |        11958 |        11958 |        27029 |        27029 |        27225 |        27225 |        63594 |        63594 |        63612 |        63612 |       140029 |       140029 |       140860 |       140860 |       319948 |       319948 |       321283 |       321283 |       707272 |       707272 |       707221 |       707221 |      1574174 |      1574174 |      1568525 |      1568525 |      3349433 |      3349433 |      3335154 |      3335154 |      7370259 |      7370259 |      7332220 |      7332220 |     16250328 |     16250328 |     16145503 |     16145503 |
dl2.hits                                      3591 |         3591 |         3782 |         3782 |        10058 |        10058 |        10086 |        10086 |        24130 |        24130 |        24338 |        24338 |        58641 |        58641 |        58674 |        58674 |       130979 |       130979 |       131825 |       131825 |       302706 |       302706 |       304056 |       304056 |       673646 |       673646 |       673610 |       673610 |      1507780 |      1507000 |      1502146 |      1432647 |      3216715 |      2889634 |      3109472 |      2829558 |      6452352 |      6068221 |      6302366 |      5957616 |     13466140 |     12827191 |     13212380 |     12605604 |
dl2.misses                                    1374 |         1374 |         1360 |         1360 |         1887 |         1887 |         1872 |         1872 |         2899 |         2899 |         2887 |         2887 |         4953 |         4953 |         4938 |         4938 |         9050 |         9050 |         9035 |         9035 |        17242 |        17242 |        17227 |        17227 |        33626 |        33626 |        33611 |        33611 |        66394 |        67174 |        66379 |       135878 |       132718 |       459799 |       225682 |       505596 |       917907 |      1302038 |      1029854 |      1374604 |      2784188 |      3423137 |      2933123 |      3539899 |
dl2.replacements                               152 |          152 |            0 |            0 |          155 |          155 |            0 |            0 |          151 |          151 |            0 |            0 |          157 |          157 |            0 |            0 |          157 |          157 |            0 |            0 |          157 |          157 |            0 |            0 |          157 |          157 |            0 |            0 |          157 |         1638 |            0 |        70342 |         1646 |       394263 |        94610 |       440060 |       786835 |      1236502 |       898782 |      1309068 |      2653116 |      3357601 |      2802051 |      3474363 |
dl2.writebacks                                  91 |           91 |            0 |            0 |           92 |           92 |            0 |            0 |           90 |           90 |            0 |            0 |           93 |           93 |            0 |            0 |           93 |           93 |            0 |            0 |           93 |           93 |            0 |            0 |           93 |           93 |            0 |            0 |           93 |         1321 |            0 |        68442 |         1331 |       393685 |        94315 |       438851 |       785946 |      1207120 |       881303 |      1277574 |      2366817 |      3032220 |      2512854 |      3146276 |
dl2.invalidations                                0 |            0 |            0 |            0 |            0 |            0 |            0 |            0 |            0 |            0 |            0 |            0 |            0 |            0 |            0 |            0 |            0 |            0 |            0 |            0 |            0 |            0 |            0 |            0 |            0 |            0 |            0 |            0 |            0 |            0 |            0 |            0 |            0 |            0 |            0 |            0 |            0 |            0 |            0 |            0 |            0 |            0 |            0 |            0 |
dl2.miss_rate                               0.2767 |       0.2767 |       0.2645 |       0.2645 |       0.1580 |       0.1580 |       0.1565 |       0.1565 |       0.1073 |       0.1073 |       0.1060 |       0.1060 |       0.0779 |       0.0779 |       0.0776 |       0.0776 |       0.0646 |       0.0646 |       0.0641 |       0.0641 |       0.0539 |       0.0539 |       0.0536 |       0.0536 |       0.0475 |       0.0475 |       0.0475 |       0.0475 |       0.0422 |       0.0427 |       0.0423 |       0.0866 |       0.0396 |       0.1373 |       0.0677 |       0.1516 |       0.1245 |       0.1767 |       0.1405 |       0.1875 |       0.1713 |       0.2107 |       0.1817 |       0.2192 |
dl2.repl_rate                               0.0306 |       0.0306 |       0.0000 |       0.0000 |       0.0130 |       0.0130 |       0.0000 |       0.0000 |       0.0056 |       0.0056 |       0.0000 |       0.0000 |       0.0025 |       0.0025 |       0.0000 |       0.0000 |       0.0011 |       0.0011 |       0.0000 |       0.0000 |       0.0005 |       0.0005 |       0.0000 |       0.0000 |       0.0002 |       0.0002 |       0.0000 |       0.0000 |       0.0001 |       0.0010 |       0.0000 |       0.0448 |       0.0005 |       0.1177 |       0.0284 |       0.1319 |       0.1068 |       0.1678 |       0.1226 |       0.1785 |       0.1633 |       0.2066 |       0.1735 |       0.2152 |
dl2.wb_rate                                 0.0183 |       0.0183 |       0.0000 |       0.0000 |       0.0077 |       0.0077 |       0.0000 |       0.0000 |       0.0033 |       0.0033 |       0.0000 |       0.0000 |       0.0015 |       0.0015 |       0.0000 |       0.0000 |       0.0007 |       0.0007 |       0.0000 |       0.0000 |       0.0003 |       0.0003 |       0.0000 |       0.0000 |       0.0001 |       0.0001 |       0.0000 |       0.0000 |       0.0001 |       0.0008 |       0.0000 |       0.0436 |       0.0004 |       0.1175 |       0.0283 |       0.1316 |       0.1066 |       0.1638 |       0.1202 |       0.1742 |       0.1456 |       0.1866 |       0.1556 |       0.1949 |
dl2.inv_rate                                0.0000 |       0.0000 |       0.0000 |       0.0000 |       0.0000 |       0.0000 |       0.0000 |       0.0000 |       0.0000 |       0.0000 |       0.0000 |       0.0000 |       0.0000 |       0.0000 |       0.0000 |       0.0000 |       0.0000 |       0.0000 |       0.0000 |       0.0000 |       0.0000 |       0.0000 |       0.0000 |       0.0000 |       0.0000 |       0.0000 |       0.0000 |       0.0000 |       0.0000 |       0.0000 |       0.0000 |       0.0000 |       0.0000 |       0.0000 |       0.0000 |       0.0000 |       0.0000 |       0.0000 |       0.0000 |       0.0000 |       0.0000 |       0.0000 |       0.0000 |       0.0000 |
itlb.accesses                               470369 |       470369 |       470369 |       470369 |      1002985 |      1002985 |      1002985 |      1002985 |      2148123 |      2148123 |      2148123 |      2148123 |      4630525 |      4630525 |      4630525 |      4630525 |      9705615 |      9705615 |      9705615 |      9705615 |     20679985 |     20679985 |     20679985 |     20679985 |     43535662 |     43535662 |     43535662 |     43535662 |     92031471 |     92031471 |     92031471 |     92031471 |    190988785 |    190988785 |    190988785 |    190988785 |    403709182 |    403709182 |    403709182 |    403709182 |    857757635 |    857757635 |    857757635 |    857757635 |
itlb.hits                                   470359 |       470359 |       470359 |       470359 |      1002975 |      1002975 |      1002975 |      1002975 |      2148113 |      2148113 |      2148113 |      2148113 |      4630515 |      4630515 |      4630515 |      4630515 |      9705605 |      9705605 |      9705605 |      9705605 |     20679975 |     20679975 |     20679975 |     20679975 |     43535652 |     43535652 |     43535652 |     43535652 |     92031461 |     92031461 |     92031461 |     92031461 |    190988775 |    190988775 |    190988775 |    190988775 |    403709172 |    403709172 |    403709172 |    403709172 |    857757625 |    857757625 |    857757625 |    857757625 |
itlb.misses                                     10 |           10 |           10 |           10 |           10 |           10 |           10 |           10 |           10 |           10 |           10 |           10 |           10 |           10 |           10 |           10 |           10 |           10 |           10 |           10 |           10 |           10 |           10 |           10 |           10 |           10 |           10 |           10 |           10 |           10 |           10 |           10 |           10 |           10 |           10 |           10 |           10 |           10 |           10 |           10 |           10 |           10 |           10 |           10 |
itlb.replacements                                0 |            0 |            0 |            0 |            0 |            0 |            0 |            0 |            0 |            0 |            0 |            0 |            0 |            0 |            0 |            0 |            0 |            0 |            0 |            0 |            0 |            0 |            0 |            0 |            0 |            0 |            0 |            0 |            0 |            0 |            0 |            0 |            0 |            0 |            0 |            0 |            0 |            0 |            0 |            0 |            0 |            0 |            0 |            0 |
itlb.writebacks                                  0 |            0 |            0 |            0 |            0 |            0 |            0 |            0 |            0 |            0 |            0 |            0 |            0 |            0 |            0 |            0 |            0 |            0 |            0 |            0 |            0 |            0 |            0 |            0 |            0 |            0 |            0 |            0 |            0 |            0 |            0 |            0 |            0 |            0 |            0 |            0 |            0 |            0 |            0 |            0 |            0 |            0 |            0 |            0 |
itlb.invalidations                               0 |            0 |            0 |            0 |            0 |            0 |            0 |            0 |            0 |            0 |            0 |            0 |            0 |            0 |            0 |            0 |            0 |            0 |            0 |            0 |            0 |            0 |            0 |            0 |            0 |            0 |            0 |            0 |            0 |            0 |            0 |            0 |            0 |            0 |            0 |            0 |            0 |            0 |            0 |            0 |            0 |            0 |            0 |            0 |
itlb.miss_rate                              0.0000 |       0.0000 |       0.0000 |       0.0000 |       0.0000 |       0.0000 |       0.0000 |       0.0000 |       0.0000 |       0.0000 |       0.0000 |       0.0000 |       0.0000 |       0.0000 |       0.0000 |       0.0000 |       0.0000 |       0.0000 |       0.0000 |       0.0000 |       0.0000 |       0.0000 |       0.0000 |       0.0000 |       0.0000 |       0.0000 |       0.0000 |       0.0000 |       0.0000 |       0.0000 |       0.0000 |       0.0000 |       0.0000 |       0.0000 |       0.0000 |       0.0000 |       0.0000 |       0.0000 |       0.0000 |       0.0000 |       0.0000 |       0.0000 |       0.0000 |       0.0000 |
itlb.repl_rate                              0.0000 |       0.0000 |       0.0000 |       0.0000 |       0.0000 |       0.0000 |       0.0000 |       0.0000 |       0.0000 |       0.0000 |       0.0000 |       0.0000 |       0.0000 |       0.0000 |       0.0000 |       0.0000 |       0.0000 |       0.0000 |       0.0000 |       0.0000 |       0.0000 |       0.0000 |       0.0000 |       0.0000 |       0.0000 |       0.0000 |       0.0000 |       0.0000 |       0.0000 |       0.0000 |       0.0000 |       0.0000 |       0.0000 |       0.0000 |       0.0000 |       0.0000 |       0.0000 |       0.0000 |       0.0000 |       0.0000 |       0.0000 |       0.0000 |       0.0000 |       0.0000 |
itlb.wb_rate                                0.0000 |       0.0000 |       0.0000 |       0.0000 |       0.0000 |       0.0000 |       0.0000 |       0.0000 |       0.0000 |       0.0000 |       0.0000 |       0.0000 |       0.0000 |       0.0000 |       0.0000 |       0.0000 |       0.0000 |       0.0000 |       0.0000 |       0.0000 |       0.0000 |       0.0000 |       0.0000 |       0.0000 |       0.0000 |       0.0000 |       0.0000 |       0.0000 |       0.0000 |       0.0000 |       0.0000 |       0.0000 |       0.0000 |       0.0000 |       0.0000 |       0.0000 |       0.0000 |       0.0000 |       0.0000 |       0.0000 |       0.0000 |       0.0000 |       0.0000 |       0.0000 |
itlb.inv_rate                               0.0000 |       0.0000 |       0.0000 |       0.0000 |       0.0000 |       0.0000 |       0.0000 |       0.0000 |       0.0000 |       0.0000 |       0.0000 |       0.0000 |       0.0000 |       0.0000 |       0.0000 |       0.0000 |       0.0000 |       0.0000 |       0.0000 |       0.0000 |       0.0000 |       0.0000 |       0.0000 |       0.0000 |       0.0000 |       0.0000 |       0.0000 |       0.0000 |       0.0000 |       0.0000 |       0.0000 |       0.0000 |       0.0000 |       0.0000 |       0.0000 |       0.0000 |       0.0000 |       0.0000 |       0.0000 |       0.0000 |       0.0000 |       0.0000 |       0.0000 |       0.0000 |
dtlb.accesses                               142025 |       142025 |       142025 |       142025 |       296001 |       296001 |       296001 |       296001 |       621513 |       621513 |       621513 |       621513 |      1314918 |      1314918 |      1314918 |      1314918 |      2747022 |      2747022 |      2747022 |      2747022 |      5775593 |      5775593 |      5775593 |      5775593 |     12072429 |     12072429 |     12072429 |     12072429 |     25267566 |     25267566 |     25267566 |     25267566 |     52403793 |     52403793 |     52403793 |     52403793 |    109571608 |    109571608 |    109571608 |    109571608 |    229929348 |    229929348 |    229929348 |    229929348 |
dtlb.hits                                   142013 |       142013 |       142013 |       142013 |       295985 |       295985 |       295985 |       295985 |       621489 |       621489 |       621489 |       621489 |      1314878 |      1314878 |      1314878 |      1314878 |      2746950 |      2746950 |      2746950 |      2746950 |      5775415 |      5775415 |      5775415 |      5775415 |     12071427 |     12071427 |     12071427 |     12071427 |     25264939 |     25264939 |     25264939 |     25264939 |     52397526 |     52397526 |     52397526 |     52397526 |    109556459 |    109556459 |    109556459 |    109556459 |    229891969 |    229891969 |    229891969 |    229891969 |
dtlb.misses                                     12 |           12 |           12 |           12 |           16 |           16 |           16 |           16 |           24 |           24 |           24 |           24 |           40 |           40 |           40 |           40 |           72 |           72 |           72 |           72 |          178 |          178 |          178 |          178 |         1002 |         1002 |         1002 |         1002 |         2627 |         2627 |         2627 |         2627 |         6267 |         6267 |         6267 |         6267 |        15149 |        15149 |        15149 |        15149 |        37379 |        37379 |        37379 |        37379 |
dtlb.replacements                                0 |            0 |            0 |            0 |            0 |            0 |            0 |            0 |            0 |            0 |            0 |            0 |            0 |            0 |            0 |            0 |            0 |            0 |            0 |            0 |           50 |           50 |           50 |           50 |          874 |          874 |          874 |          874 |         2499 |         2499 |         2499 |         2499 |         6139 |         6139 |         6139 |         6139 |        15021 |        15021 |        15021 |        15021 |        37251 |        37251 |        37251 |        37251 |
dtlb.writebacks                                  0 |            0 |            0 |            0 |            0 |            0 |            0 |            0 |            0 |            0 |            0 |            0 |            0 |            0 |            0 |            0 |            0 |            0 |            0 |            0 |           46 |           46 |           46 |           46 |          870 |          870 |          870 |          870 |         2491 |         2491 |         2491 |         2491 |         6124 |         6124 |         6124 |         6124 |        14986 |        14986 |        14986 |        14986 |        37183 |        37183 |        37183 |        37183 |
dtlb.invalidations                               0 |            0 |            0 |            0 |            0 |            0 |            0 |            0 |            0 |            0 |            0 |            0 |            0 |            0 |            0 |            0 |            0 |            0 |            0 |            0 |            0 |            0 |            0 |            0 |            0 |            0 |            0 |            0 |            0 |            0 |            0 |            0 |            0 |            0 |            0 |            0 |            0 |            0 |            0 |            0 |            0 |            0 |            0 |            0 |
dtlb.miss_rate                              0.0001 |       0.0001 |       0.0001 |       0.0001 |       0.0001 |       0.0001 |       0.0001 |       0.0001 |       0.0000 |       0.0000 |       0.0000 |       0.0000 |       0.0000 |       0.0000 |       0.0000 |       0.0000 |       0.0000 |       0.0000 |       0.0000 |       0.0000 |       0.0000 |       0.0000 |       0.0000 |       0.0000 |       0.0001 |       0.0001 |       0.0001 |       0.0001 |       0.0001 |       0.0001 |       0.0001 |       0.0001 |       0.0001 |       0.0001 |       0.0001 |       0.0001 |       0.0001 |       0.0001 |       0.0001 |       0.0001 |       0.0002 |       0.0002 |       0.0002 |       0.0002 |
dtlb.repl_rate                              0.0000 |       0.0000 |       0.0000 |       0.0000 |       0.0000 |       0.0000 |       0.0000 |       0.0000 |       0.0000 |       0.0000 |       0.0000 |       0.0000 |       0.0000 |       0.0000 |       0.0000 |       0.0000 |       0.0000 |       0.0000 |       0.0000 |       0.0000 |       0.0000 |       0.0000 |       0.0000 |       0.0000 |       0.0001 |       0.0001 |       0.0001 |       0.0001 |       0.0001 |       0.0001 |       0.0001 |       0.0001 |       0.0001 |       0.0001 |       0.0001 |       0.0001 |       0.0001 |       0.0001 |       0.0001 |       0.0001 |       0.0002 |       0.0002 |       0.0002 |       0.0002 |
dtlb.wb_rate                                0.0000 |       0.0000 |       0.0000 |       0.0000 |       0.0000 |       0.0000 |       0.0000 |       0.0000 |       0.0000 |       0.0000 |       0.0000 |       0.0000 |       0.0000 |       0.0000 |       0.0000 |       0.0000 |       0.0000 |       0.0000 |       0.0000 |       0.0000 |       0.0000 |       0.0000 |       0.0000 |       0.0000 |       0.0001 |       0.0001 |       0.0001 |       0.0001 |       0.0001 |       0.0001 |       0.0001 |       0.0001 |       0.0001 |       0.0001 |       0.0001 |       0.0001 |       0.0001 |       0.0001 |       0.0001 |       0.0001 |       0.0002 |       0.0002 |       0.0002 |       0.0002 |
dtlb.inv_rate                               0.0000 |       0.0000 |       0.0000 |       0.0000 |       0.0000 |       0.0000 |       0.0000 |       0.0000 |       0.0000 |       0.0000 |       0.0000 |       0.0000 |       0.0000 |       0.0000 |       0.0000 |       0.0000 |       0.0000 |       0.0000 |       0.0000 |       0.0000 |       0.0000 |       0.0000 |       0.0000 |       0.0000 |       0.0000 |       0.0000 |       0.0000 |       0.0000 |       0.0000 |       0.0000 |       0.0000 |       0.0000 |       0.0000 |       0.0000 |       0.0000 |       0.0000 |       0.0000 |       0.0000 |       0.0000 |       0.0000 |       0.0000 |       0.0000 |       0.0000 |       0.0000 |
ld_text_base                            0x00400000 |   0x00400000 |   0x00400000 |   0x00400000 |   0x00400000 |   0x00400000 |   0x00400000 |   0x00400000 |   0x00400000 |   0x00400000 |   0x00400000 |   0x00400000 |   0x00400000 |   0x00400000 |   0x00400000 |   0x00400000 |   0x00400000 |   0x00400000 |   0x00400000 |   0x00400000 |   0x00400000 |   0x00400000 |   0x00400000 |   0x00400000 |   0x00400000 |   0x00400000 |   0x00400000 |   0x00400000 |   0x00400000 |   0x00400000 |   0x00400000 |   0x00400000 |   0x00400000 |   0x00400000 |   0x00400000 |   0x00400000 |   0x00400000 |   0x00400000 |   0x00400000 |   0x00400000 |   0x00400000 |   0x00400000 |   0x00400000 |   0x00400000 |
ld_text_size                                 73600 |        73600 |        73600 |        73600 |        73632 |        73632 |        73632 |        73632 |        73648 |        73648 |        73648 |        73648 |        73664 |        73664 |        73664 |        73664 |        73664 |        73664 |        73664 |        73664 |        73664 |        73664 |        73664 |        73664 |        73664 |        73664 |        73664 |        73664 |        73664 |        73664 |        73664 |        73664 |        73664 |        73664 |        73664 |        73664 |        73664 |        73664 |        73664 |        73664 |        73664 |        73664 |        73664 |        73664 |
ld_data_base                            0x10000000 |   0x10000000 |   0x10000000 |   0x10000000 |   0x10000000 |   0x10000000 |   0x10000000 |   0x10000000 |   0x10000000 |   0x10000000 |   0x10000000 |   0x10000000 |   0x10000000 |   0x10000000 |   0x10000000 |   0x10000000 |   0x10000000 |   0x10000000 |   0x10000000 |   0x10000000 |   0x10000000 |   0x10000000 |   0x10000000 |   0x10000000 |   0x10000000 |   0x10000000 |   0x10000000 |   0x10000000 |   0x10000000 |   0x10000000 |   0x10000000 |   0x10000000 |   0x10000000 |   0x10000000 |   0x10000000 |   0x10000000 |   0x10000000 |   0x10000000 |   0x10000000 |   0x10000000 |   0x10000000 |   0x10000000 |   0x10000000 |   0x10000000 |
ld_data_size                                  8192 |         8192 |         8192 |         8192 |         8192 |         8192 |         8192 |         8192 |         8192 |         8192 |         8192 |         8192 |         8192 |         8192 |         8192 |         8192 |         8192 |         8192 |         8192 |         8192 |         8192 |         8192 |         8192 |         8192 |         8192 |         8192 |         8192 |         8192 |         8192 |         8192 |         8192 |         8192 |         8192 |         8192 |         8192 |         8192 |         8192 |         8192 |         8192 |         8192 |         8192 |         8192 |         8192 |         8192 |
ld_stack_base                           0x7fffc000 |   0x7fffc000 |   0x7fffc000 |   0x7fffc000 |   0x7fffc000 |   0x7fffc000 |   0x7fffc000 |   0x7fffc000 |   0x7fffc000 |   0x7fffc000 |   0x7fffc000 |   0x7fffc000 |   0x7fffc000 |   0x7fffc000 |   0x7fffc000 |   0x7fffc000 |   0x7fffc000 |   0x7fffc000 |   0x7fffc000 |   0x7fffc000 |   0x7fffc000 |   0x7fffc000 |   0x7fffc000 |   0x7fffc000 |   0x7fffc000 |   0x7fffc000 |   0x7fffc000 |   0x7fffc000 |   0x7fffc000 |   0x7fffc000 |   0x7fffc000 |   0x7fffc000 |   0x7fffc000 |   0x7fffc000 |   0x7fffc000 |   0x7fffc000 |   0x7fffc000 |   0x7fffc000 |   0x7fffc000 |   0x7fffc000 |   0x7fffc000 |   0x7fffc000 |   0x7fffc000 |   0x7fffc000 |
ld_stack_size                                16384 |        16384 |        16384 |        16384 |        16384 |        16384 |        16384 |        16384 |        16384 |        16384 |        16384 |        16384 |        16384 |        16384 |        16384 |        16384 |        16384 |        16384 |        16384 |        16384 |        16384 |        16384 |        16384 |        16384 |        16384 |        16384 |        16384 |        16384 |        16384 |        16384 |        16384 |        16384 |        16384 |        16384 |        16384 |        16384 |        16384 |        16384 |        16384 |        16384 |        16384 |        16384 |        16384 |        16384 |
ld_prog_entry                           0x00400140 |   0x00400140 |   0x00400140 |   0x00400140 |   0x00400140 |   0x00400140 |   0x00400140 |   0x00400140 |   0x00400140 |   0x00400140 |   0x00400140 |   0x00400140 |   0x00400140 |   0x00400140 |   0x00400140 |   0x00400140 |   0x00400140 |   0x00400140 |   0x00400140 |   0x00400140 |   0x00400140 |   0x00400140 |   0x00400140 |   0x00400140 |   0x00400140 |   0x00400140 |   0x00400140 |   0x00400140 |   0x00400140 |   0x00400140 |   0x00400140 |   0x00400140 |   0x00400140 |   0x00400140 |   0x00400140 |   0x00400140 |   0x00400140 |   0x00400140 |   0x00400140 |   0x00400140 |   0x00400140 |   0x00400140 |   0x00400140 |   0x00400140 |
ld_environ_base                         0x7fff8000 |   0x7fff8000 |   0x7fff8000 |   0x7fff8000 |   0x7fff8000 |   0x7fff8000 |   0x7fff8000 |   0x7fff8000 |   0x7fff8000 |   0x7fff8000 |   0x7fff8000 |   0x7fff8000 |   0x7fff8000 |   0x7fff8000 |   0x7fff8000 |   0x7fff8000 |   0x7fff8000 |   0x7fff8000 |   0x7fff8000 |   0x7fff8000 |   0x7fff8000 |   0x7fff8000 |   0x7fff8000 |   0x7fff8000 |   0x7fff8000 |   0x7fff8000 |   0x7fff8000 |   0x7fff8000 |   0x7fff8000 |   0x7fff8000 |   0x7fff8000 |   0x7fff8000 |   0x7fff8000 |   0x7fff8000 |   0x7fff8000 |   0x7fff8000 |   0x7fff8000 |   0x7fff8000 |   0x7fff8000 |   0x7fff8000 |   0x7fff8000 |   0x7fff8000 |   0x7fff8000 |   0x7fff8000 |
ld_target_big_endian                             0 |            0 |            0 |            0 |            0 |            0 |            0 |            0 |            0 |            0 |            0 |            0 |            0 |            0 |            0 |            0 |            0 |            0 |            0 |            0 |            0 |            0 |            0 |            0 |            0 |            0 |            0 |            0 |            0 |            0 |            0 |            0 |            0 |            0 |            0 |            0 |            0 |            0 |            0 |            0 |            0 |            0 |            0 |            0 |
mem.page_count                                  30 |           30 |           30 |           30 |           34 |           34 |           34 |           34 |           42 |           42 |           42 |           42 |           58 |           58 |           58 |           58 |           90 |           90 |           90 |           90 |          154 |          154 |          154 |          154 |          282 |          282 |          282 |          282 |          538 |          538 |          538 |          538 |         1050 |         1050 |         1050 |         1050 |         2074 |         2074 |         2074 |         2074 |         4122 |         4122 |         4122 |         4122 |
mem.page_mem                                  120k |         120k |         120k |         120k |         136k |         136k |         136k |         136k |         168k |         168k |         168k |         168k |         232k |         232k |         232k |         232k |         360k |         360k |         360k |         360k |         616k |         616k |         616k |         616k |        1128k |        1128k |        1128k |        1128k |        2152k |        2152k |        2152k |        2152k |        4200k |        4200k |        4200k |        4200k |        8296k |        8296k |        8296k |        8296k |       16488k |       16488k |       16488k |       16488k |
mem.ptab_misses                                 30 |           30 |           30 |           30 |           34 |           34 |           34 |           34 |           42 |           42 |           42 |           42 |           58 |           58 |           58 |           58 |           90 |           90 |           90 |           90 |          154 |          154 |          154 |          154 |          282 |          282 |          282 |          282 |          538 |          538 |          538 |          538 |         1050 |         1050 |         1050 |         1050 |         2074 |         2074 |         2074 |         2074 |         4122 |         4122 |         4122 |         4122 |
mem.ptab_accesses                          2621748 |      2621748 |      2621748 |      2621748 |      5060356 |      5060356 |      5060356 |      5060356 |     10292028 |     10292028 |     10292028 |     10292028 |     21608542 |     21608542 |     21608542 |     21608542 |     44773110 |     44773110 |     44773110 |     44773110 |     94727732 |     94727732 |     94727732 |     94727732 |    198744112 |    198744112 |    198744112 |    198744112 |    419117622 |    419117622 |    419117622 |    419117622 |    869219332 |    869219332 |    869219332 |    869219332 |   1834436550 |   1834436550 |   1834436550 |   1834436550 |   3891345842 |   3891345842 |   3891345842 |   3891345842 |
mem.ptab_miss_rate                          0.0000 |       0.0000 |       0.0000 |       0.0000 |       0.0000 |       0.0000 |       0.0000 |       0.0000 |       0.0000 |       0.0000 |       0.0000 |       0.0000 |       0.0000 |       0.0000 |       0.0000 |       0.0000 |       0.0000 |       0.0000 |       0.0000 |       0.0000 |       0.0000 |       0.0000 |       0.0000 |       0.0000 |       0.0000 |       0.0000 |       0.0000 |       0.0000 |       0.0000 |       0.0000 |       0.0000 |       0.0000 |       0.0000 |       0.0000 |       0.0000 |       0.0000 |       0.0000 |       0.0000 |       0.0000 |       0.0000 |       0.0000 |       0.0000 |       0.0000 |       0.0000 |
-------------------------------------------------------------------------------------------------
sim-bpred                                     4096 |         4096 |         4096 |         4096 |         4096 |         4096 |         4096 |         8192 |         8192 |         8192 |         8192 |         8192 |         8192 |         8192 |        16384 |        16384 |        16384 |        16384 |        16384 |        16384 |        16384 |        32768 |        32768 |        32768 |        32768 |        32768 |        32768 |        32768 |        65536 |        65536 |        65536 |        65536 |        65536 |        65536 |        65536 |       131072 |       131072 |       131072 |       131072 |       131072 |       131072 |       131072 |       262144 |       262144 |       262144 |       262144 |       262144 |       262144 |       262144 |       524288 |       524288 |       524288 |       524288 |       524288 |       524288 |       524288 |      1048576 |      1048576 |      1048576 |      1048576 |      1048576 |      1048576 |      1048576 |      2097152 |      2097152 |      2097152 |      2097152 |      2097152 |      2097152 |      2097152 |      4194304 |      4194304 |      4194304 |      4194304 |      4194304 |      4194304 |      4194304 |
-bpred bimod -bpred:bimod 512
-bpred bimod -bpred:bimod 1024
-bpred bimod -bpred:bimod 2048
-bpred 2lev -bpred:2lev 1 512 10 1
-bpred 2lev -bpred:2lev 1 1024 10 1
-bpred 2lev -bpred:2lev 1 2048 10 1
-bpred 2lev -bpred:2lev 1 4096 10 1
-------------------------------------------------------------------------------------------------
sim_num_insn                                470369 |       470369 |       470369 |       470369 |       470369 |       470369 |       470369 |      1002985 |      1002985 |      1002985 |      1002985 |      1002985 |      1002985 |      1002985 |      2148123 |      2148123 |      2148123 |      2148123 |      2148123 |      2148123 |      2148123 |      4630525 |      4630525 |      4630525 |      4630525 |      4630525 |      4630525 |      4630525 |      9705615 |      9705615 |      9705615 |      9705615 |      9705615 |      9705615 |      9705615 |     20679985 |     20679985 |     20679985 |     20679985 |     20679985 |     20679985 |     20679985 |     43535662 |     43535662 |     43535662 |     43535662 |     43535662 |     43535662 |     43535662 |     92031471 |     92031471 |     92031471 |     92031471 |     92031471 |     92031471 |     92031471 |    190988785 |    190988785 |    190988785 |    190988785 |    190988785 |    190988785 |    190988785 |    403709182 |    403709182 |    403709182 |    403709182 |    403709182 |    403709182 |    403709182 |    857757635 |    857757635 |    857757635 |    857757635 |    857757635 |    857757635 |    857757635 |
sim_num_refs                                125559 |       125559 |       125559 |       125559 |       125559 |       125559 |       125559 |       263151 |       263151 |       263151 |       263151 |       263151 |       263151 |       263151 |       555895 |       555895 |       555895 |       555895 |       555895 |       555895 |       555895 |      1183764 |      1183764 |      1183764 |      1183764 |      1183764 |      1183764 |      1183764 |      2484796 |      2484796 |      2484796 |      2484796 |      2484796 |      2484796 |      2484796 |      5251223 |      5251223 |      5251223 |      5251223 |      5251223 |      5251223 |      5251223 |     11023771 |     11023771 |     11023771 |     11023771 |     11023771 |     11023771 |     11023771 |     23170332 |     23170332 |     23170332 |     23170332 |     23170332 |     23170332 |     23170332 |     48209407 |     48209407 |     48209407 |     48209407 |     48209407 |     48209407 |     48209407 |    101182918 |    101182918 |    101182918 |    101182918 |    101182918 |    101182918 |    101182918 |    213152050 |    213152050 |    213152050 |    213152050 |    213152050 |    213152050 |    213152050 |
sim_elapsed_time                                 1 |            1 |            1 |            1 |            1 |            1 |            1 |            1 |            1 |            1 |            1 |            1 |            1 |            1 |            1 |            1 |            1 |            1 |            1 |            1 |            1 |            1 |            1 |            1 |            1 |            1 |            1 |            1 |            1 |            1 |            2 |            1 |            1 |            1 |            2 |            3 |            2 |            3 |            3 |            2 |            3 |            2 |            5 |            5 |            6 |            5 |            5 |            6 |            5 |           11 |           11 |           11 |           12 |           11 |           11 |           12 |           23 |           23 |           23 |           24 |           23 |           23 |           24 |           49 |           48 |           49 |           50 |           49 |           50 |           49 |          103 |          103 |          103 |          104 |          105 |          105 |          104 |
sim_inst_rate                          470369.0000 |  470369.0000 |  470369.0000 |  470369.0000 |  470369.0000 |  470369.0000 |  470369.0000 | 1002985.0000 | 1002985.0000 | 1002985.0000 | 1002985.0000 | 1002985.0000 | 1002985.0000 | 1002985.0000 | 2148123.0000 | 2148123.0000 | 2148123.0000 | 2148123.0000 | 2148123.0000 | 2148123.0000 | 2148123.0000 | 4630525.0000 | 4630525.0000 | 4630525.0000 | 4630525.0000 | 4630525.0000 | 4630525.0000 | 4630525.0000 | 9705615.0000 | 9705615.0000 | 4852807.5000 | 9705615.0000 | 9705615.0000 | 9705615.0000 | 4852807.5000 | 6893328.3333 |10339992.5000 | 6893328.3333 | 6893328.3333 |10339992.5000 | 6893328.3333 |10339992.5000 | 8707132.4000 | 8707132.4000 | 7255943.6667 | 8707132.4000 | 8707132.4000 | 7255943.6667 | 8707132.4000 | 8366497.3636 | 8366497.3636 | 8366497.3636 | 7669289.2500 | 8366497.3636 | 8366497.3636 | 7669289.2500 | 8303860.2174 | 8303860.2174 | 8303860.2174 | 7957866.0417 | 8303860.2174 | 8303860.2174 | 7957866.0417 | 8238962.8980 | 8410607.9583 | 8238962.8980 | 8074183.6400 | 8238962.8980 | 8074183.6400 | 8238962.8980 | 8327744.0291 | 8327744.0291 | 8327744.0291 | 8247669.5673 | 8169120.3333 | 8169120.3333 | 8247669.5673 |
sim_num_branches                             77204 |        77204 |        77204 |        77204 |        77204 |        77204 |        77204 |       166259 |       166259 |       166259 |       166259 |       166259 |       166259 |       166259 |       358238 |       358238 |       358238 |       358238 |       358238 |       358238 |       358238 |       775737 |       775737 |       775737 |       775737 |       775737 |       775737 |       775737 |      1636105 |      1636105 |      1636105 |      1636105 |      1636105 |      1636105 |      1636105 |      3497983 |      3497983 |      3497983 |      3497983 |      3497983 |      3497983 |      3497983 |      7397671 |      7397671 |      7397671 |      7397671 |      7397671 |      7397671 |      7397671 |     15676244 |     15676244 |     15676244 |     15676244 |     15676244 |     15676244 |     15676244 |     32641371 |     32641371 |     32641371 |     32641371 |     32641371 |     32641371 |     32641371 |     69121967 |     69121967 |     69121967 |     69121967 |     69121967 |     69121967 |     69121967 |    147124260 |    147124260 |    147124260 |    147124260 |    147124260 |    147124260 |    147124260 |
sim_IPB                                     6.0925 |       6.0925 |       6.0925 |       6.0925 |       6.0925 |       6.0925 |       6.0925 |       6.0327 |       6.0327 |       6.0327 |       6.0327 |       6.0327 |       6.0327 |       6.0327 |       5.9964 |       5.9964 |       5.9964 |       5.9964 |       5.9964 |       5.9964 |       5.9964 |       5.9692 |       5.9692 |       5.9692 |       5.9692 |       5.9692 |       5.9692 |       5.9692 |       5.9321 |       5.9321 |       5.9321 |       5.9321 |       5.9321 |       5.9321 |       5.9321 |       5.9120 |       5.9120 |       5.9120 |       5.9120 |       5.9120 |       5.9120 |       5.9120 |       5.8850 |       5.8850 |       5.8850 |       5.8850 |       5.8850 |       5.8850 |       5.8850 |       5.8708 |       5.8708 |       5.8708 |       5.8708 |       5.8708 |       5.8708 |       5.8708 |       5.8511 |       5.8511 |       5.8511 |       5.8511 |       5.8511 |       5.8511 |       5.8511 |       5.8405 |       5.8405 |       5.8405 |       5.8405 |       5.8405 |       5.8405 |       5.8405 |       5.8302 |       5.8302 |       5.8302 |       5.8302 |       5.8302 |       5.8302 |       5.8302 |
bpred_bimod.lookups                          77204 |        77204 |        77204 |xxxxxxxxxxxxx |xxxxxxxxxxxxx |xxxxxxxxxxxxx |xxxxxxxxxxxxx |       166259 |       166259 |       166259 |xxxxxxxxxxxxx |xxxxxxxxxxxxx |xxxxxxxxxxxxx |xxxxxxxxxxxxx |       358238 |       358238 |       358238 |xxxxxxxxxxxxx |xxxxxxxxxxxxx |xxxxxxxxxxxxx |xxxxxxxxxxxxx |       775737 |       775737 |       775737 |xxxxxxxxxxxxx |xxxxxxxxxxxxx |xxxxxxxxxxxxx |xxxxxxxxxxxxx |      1636105 |      1636105 |      1636105 |xxxxxxxxxxxxx |xxxxxxxxxxxxx |xxxxxxxxxxxxx |xxxxxxxxxxxxx |      3497983 |      3497983 |      3497983 |xxxxxxxxxxxxx |xxxxxxxxxxxxx |xxxxxxxxxxxxx |xxxxxxxxxxxxx |      7397671 |      7397671 |      7397671 |xxxxxxxxxxxxx |xxxxxxxxxxxxx |xxxxxxxxxxxxx |xxxxxxxxxxxxx |     15676244 |     15676244 |     15676244 |xxxxxxxxxxxxx |xxxxxxxxxxxxx |xxxxxxxxxxxxx |xxxxxxxxxxxxx |     32641371 |     32641371 |     32641371 |xxxxxxxxxxxxx |xxxxxxxxxxxxx |xxxxxxxxxxxxx |xxxxxxxxxxxxx |     69121967 |     69121967 |     69121967 |xxxxxxxxxxxxx |xxxxxxxxxxxxx |xxxxxxxxxxxxx |xxxxxxxxxxxxx |    147124260 |    147124260 |    147124260 |
bpred_bimod.updates                          77204 |        77204 |        77204 |xxxxxxxxxxxxx |xxxxxxxxxxxxx |xxxxxxxxxxxxx |xxxxxxxxxxxxx |       166259 |       166259 |       166259 |xxxxxxxxxxxxx |xxxxxxxxxxxxx |xxxxxxxxxxxxx |xxxxxxxxxxxxx |       358238 |       358238 |       358238 |xxxxxxxxxxxxx |xxxxxxxxxxxxx |xxxxxxxxxxxxx |xxxxxxxxxxxxx |       775737 |       775737 |       775737 |xxxxxxxxxxxxx |xxxxxxxxxxxxx |xxxxxxxxxxxxx |xxxxxxxxxxxxx |      1636105 |      1636105 |      1636105 |xxxxxxxxxxxxx |xxxxxxxxxxxxx |xxxxxxxxxxxxx |xxxxxxxxxxxxx |      3497983 |      3497983 |      3497983 |xxxxxxxxxxxxx |xxxxxxxxxxxxx |xxxxxxxxxxxxx |xxxxxxxxxxxxx |      7397671 |      7397671 |      7397671 |xxxxxxxxxxxxx |xxxxxxxxxxxxx |xxxxxxxxxxxxx |xxxxxxxxxxxxx |     15676244 |     15676244 |     15676244 |xxxxxxxxxxxxx |xxxxxxxxxxxxx |xxxxxxxxxxxxx |xxxxxxxxxxxxx |     32641371 |     32641371 |     32641371 |xxxxxxxxxxxxx |xxxxxxxxxxxxx |xxxxxxxxxxxxx |xxxxxxxxxxxxx |     69121967 |     69121967 |     69121967 |xxxxxxxxxxxxx |xxxxxxxxxxxxx |xxxxxxxxxxxxx |xxxxxxxxxxxxx |    147124260 |    147124260 |    147124260 |
bpred_bimod.addr_hits                        54721 |        54725 |        54725 |xxxxxxxxxxxxx |xxxxxxxxxxxxx |xxxxxxxxxxxxx |xxxxxxxxxxxxx |       117902 |       117903 |       117904 |xxxxxxxxxxxxx |xxxxxxxxxxxxx |xxxxxxxxxxxxx |xxxxxxxxxxxxx |       255010 |       255010 |       255007 |xxxxxxxxxxxxx |xxxxxxxxxxxxx |xxxxxxxxxxxxx |xxxxxxxxxxxxx |       556245 |       556243 |       556245 |xxxxxxxxxxxxx |xxxxxxxxxxxxx |xxxxxxxxxxxxx |xxxxxxxxxxxxx |      1158644 |      1158643 |      1158644 |xxxxxxxxxxxxx |xxxxxxxxxxxxx |xxxxxxxxxxxxx |xxxxxxxxxxxxx |      2498231 |      2498234 |      2498237 |xxxxxxxxxxxxx |xxxxxxxxxxxxx |xxxxxxxxxxxxx |xxxxxxxxxxxxx |      5275835 |      5275835 |      5275837 |xxxxxxxxxxxxx |xxxxxxxxxxxxx |xxxxxxxxxxxxx |xxxxxxxxxxxxx |     11225143 |     11225147 |     11225148 |xxxxxxxxxxxxx |xxxxxxxxxxxxx |xxxxxxxxxxxxx |xxxxxxxxxxxxx |     23098667 |     23098664 |     23098666 |xxxxxxxxxxxxx |xxxxxxxxxxxxx |xxxxxxxxxxxxx |xxxxxxxxxxxxx |     49266969 |     49266968 |     49266971 |xxxxxxxxxxxxx |xxxxxxxxxxxxx |xxxxxxxxxxxxx |xxxxxxxxxxxxx |    105901735 |    105901735 |    105901737 |
bpred_bimod.dir_hits                         54833 |        54833 |        54833 |xxxxxxxxxxxxx |xxxxxxxxxxxxx |xxxxxxxxxxxxx |xxxxxxxxxxxxx |       118014 |       118012 |       118015 |xxxxxxxxxxxxx |xxxxxxxxxxxxx |xxxxxxxxxxxxx |xxxxxxxxxxxxx |       255126 |       255122 |       255118 |xxxxxxxxxxxxx |xxxxxxxxxxxxx |xxxxxxxxxxxxx |xxxxxxxxxxxxx |       556357 |       556352 |       556354 |xxxxxxxxxxxxx |xxxxxxxxxxxxx |xxxxxxxxxxxxx |xxxxxxxxxxxxx |      1158759 |      1158755 |      1158755 |xxxxxxxxxxxxx |xxxxxxxxxxxxx |xxxxxxxxxxxxx |xxxxxxxxxxxxx |      2498344 |      2498345 |      2498348 |xxxxxxxxxxxxx |xxxxxxxxxxxxx |xxxxxxxxxxxxx |xxxxxxxxxxxxx |      5275949 |      5275946 |      5275948 |xxxxxxxxxxxxx |xxxxxxxxxxxxx |xxxxxxxxxxxxx |xxxxxxxxxxxxx |     11225259 |     11225261 |     11225261 |xxxxxxxxxxxxx |xxxxxxxxxxxxx |xxxxxxxxxxxxx |xxxxxxxxxxxxx |     23098782 |     23098777 |     23098779 |xxxxxxxxxxxxx |xxxxxxxxxxxxx |xxxxxxxxxxxxx |xxxxxxxxxxxxx |     49267086 |     49267082 |     49267084 |xxxxxxxxxxxxx |xxxxxxxxxxxxx |xxxxxxxxxxxxx |xxxxxxxxxxxxx |    105901851 |    105901848 |    105901850 |
bpred_bimod.misses                           22371 |        22371 |        22371 |xxxxxxxxxxxxx |xxxxxxxxxxxxx |xxxxxxxxxxxxx |xxxxxxxxxxxxx |        48245 |        48247 |        48244 |xxxxxxxxxxxxx |xxxxxxxxxxxxx |xxxxxxxxxxxxx |xxxxxxxxxxxxx |       103112 |       103116 |       103120 |xxxxxxxxxxxxx |xxxxxxxxxxxxx |xxxxxxxxxxxxx |xxxxxxxxxxxxx |       219380 |       219385 |       219383 |xxxxxxxxxxxxx |xxxxxxxxxxxxx |xxxxxxxxxxxxx |xxxxxxxxxxxxx |       477346 |       477350 |       477350 |xxxxxxxxxxxxx |xxxxxxxxxxxxx |xxxxxxxxxxxxx |xxxxxxxxxxxxx |       999639 |       999638 |       999635 |xxxxxxxxxxxxx |xxxxxxxxxxxxx |xxxxxxxxxxxxx |xxxxxxxxxxxxx |      2121722 |      2121725 |      2121723 |xxxxxxxxxxxxx |xxxxxxxxxxxxx |xxxxxxxxxxxxx |xxxxxxxxxxxxx |      4450985 |      4450983 |      4450983 |xxxxxxxxxxxxx |xxxxxxxxxxxxx |xxxxxxxxxxxxx |xxxxxxxxxxxxx |      9542589 |      9542594 |      9542592 |xxxxxxxxxxxxx |xxxxxxxxxxxxx |xxxxxxxxxxxxx |xxxxxxxxxxxxx |     19854881 |     19854885 |     19854883 |xxxxxxxxxxxxx |xxxxxxxxxxxxx |xxxxxxxxxxxxx |xxxxxxxxxxxxx |     41222409 |     41222412 |     41222410 |
bpred_bimod.jr_hits                             64 |           64 |           64 |xxxxxxxxxxxxx |xxxxxxxxxxxxx |xxxxxxxxxxxxx |xxxxxxxxxxxxx |           64 |           64 |           64 |xxxxxxxxxxxxx |xxxxxxxxxxxxx |xxxxxxxxxxxxx |xxxxxxxxxxxxx |           64 |           64 |           64 |xxxxxxxxxxxxx |xxxxxxxxxxxxx |xxxxxxxxxxxxx |xxxxxxxxxxxxx |           64 |           64 |           64 |xxxxxxxxxxxxx |xxxxxxxxxxxxx |xxxxxxxxxxxxx |xxxxxxxxxxxxx |           64 |           64 |           64 |xxxxxxxxxxxxx |xxxxxxxxxxxxx |xxxxxxxxxxxxx |xxxxxxxxxxxxx |           64 |           64 |           64 |xxxxxxxxxxxxx |xxxxxxxxxxxxx |xxxxxxxxxxxxx |xxxxxxxxxxxxx |           64 |           64 |           64 |xxxxxxxxxxxxx |xxxxxxxxxxxxx |xxxxxxxxxxxxx |xxxxxxxxxxxxx |           64 |           64 |           64 |xxxxxxxxxxxxx |xxxxxxxxxxxxx |xxxxxxxxxxxxx |xxxxxxxxxxxxx |           64 |           64 |           64 |xxxxxxxxxxxxx |xxxxxxxxxxxxx |xxxxxxxxxxxxx |xxxxxxxxxxxxx |           64 |           64 |           64 |xxxxxxxxxxxxx |xxxxxxxxxxxxx |xxxxxxxxxxxxx |xxxxxxxxxxxxx |           64 |           64 |           64 |
bpred_bimod.jr_seen                             64 |           64 |           64 |xxxxxxxxxxxxx |xxxxxxxxxxxxx |xxxxxxxxxxxxx |xxxxxxxxxxxxx |           64 |           64 |           64 |xxxxxxxxxxxxx |xxxxxxxxxxxxx |xxxxxxxxxxxxx |xxxxxxxxxxxxx |           64 |           64 |           64 |xxxxxxxxxxxxx |xxxxxxxxxxxxx |xxxxxxxxxxxxx |xxxxxxxxxxxxx |           64 |           64 |           64 |xxxxxxxxxxxxx |xxxxxxxxxxxxx |xxxxxxxxxxxxx |xxxxxxxxxxxxx |           64 |           64 |           64 |xxxxxxxxxxxxx |xxxxxxxxxxxxx |xxxxxxxxxxxxx |xxxxxxxxxxxxx |           64 |           64 |           64 |xxxxxxxxxxxxx |xxxxxxxxxxxxx |xxxxxxxxxxxxx |xxxxxxxxxxxxx |           64 |           64 |           64 |xxxxxxxxxxxxx |xxxxxxxxxxxxx |xxxxxxxxxxxxx |xxxxxxxxxxxxx |           64 |           64 |           64 |xxxxxxxxxxxxx |xxxxxxxxxxxxx |xxxxxxxxxxxxx |xxxxxxxxxxxxx |           64 |           64 |           64 |xxxxxxxxxxxxx |xxxxxxxxxxxxx |xxxxxxxxxxxxx |xxxxxxxxxxxxx |           64 |           64 |           64 |xxxxxxxxxxxxx |xxxxxxxxxxxxx |xxxxxxxxxxxxx |xxxxxxxxxxxxx |           64 |           64 |           64 |
bpred_bimod.jr_non_ras_hits.PP                   0 |            0 |            0 |xxxxxxxxxxxxx |xxxxxxxxxxxxx |xxxxxxxxxxxxx |xxxxxxxxxxxxx |            0 |            0 |            0 |xxxxxxxxxxxxx |xxxxxxxxxxxxx |xxxxxxxxxxxxx |xxxxxxxxxxxxx |            0 |            0 |            0 |xxxxxxxxxxxxx |xxxxxxxxxxxxx |xxxxxxxxxxxxx |xxxxxxxxxxxxx |            0 |            0 |            0 |xxxxxxxxxxxxx |xxxxxxxxxxxxx |xxxxxxxxxxxxx |xxxxxxxxxxxxx |            0 |            0 |            0 |xxxxxxxxxxxxx |xxxxxxxxxxxxx |xxxxxxxxxxxxx |xxxxxxxxxxxxx |            0 |            0 |            0 |xxxxxxxxxxxxx |xxxxxxxxxxxxx |xxxxxxxxxxxxx |xxxxxxxxxxxxx |            0 |            0 |            0 |xxxxxxxxxxxxx |xxxxxxxxxxxxx |xxxxxxxxxxxxx |xxxxxxxxxxxxx |            0 |            0 |            0 |xxxxxxxxxxxxx |xxxxxxxxxxxxx |xxxxxxxxxxxxx |xxxxxxxxxxxxx |            0 |            0 |            0 |xxxxxxxxxxxxx |xxxxxxxxxxxxx |xxxxxxxxxxxxx |xxxxxxxxxxxxx |            0 |            0 |            0 |xxxxxxxxxxxxx |xxxxxxxxxxxxx |xxxxxxxxxxxxx |xxxxxxxxxxxxx |            0 |            0 |            0 |
bpred_bimod.jr_non_ras_seen.PP                   0 |            0 |            0 |xxxxxxxxxxxxx |xxxxxxxxxxxxx |xxxxxxxxxxxxx |xxxxxxxxxxxxx |            0 |            0 |            0 |xxxxxxxxxxxxx |xxxxxxxxxxxxx |xxxxxxxxxxxxx |xxxxxxxxxxxxx |            0 |            0 |            0 |xxxxxxxxxxxxx |xxxxxxxxxxxxx |xxxxxxxxxxxxx |xxxxxxxxxxxxx |            0 |            0 |            0 |xxxxxxxxxxxxx |xxxxxxxxxxxxx |xxxxxxxxxxxxx |xxxxxxxxxxxxx |            0 |            0 |            0 |xxxxxxxxxxxxx |xxxxxxxxxxxxx |xxxxxxxxxxxxx |xxxxxxxxxxxxx |            0 |            0 |            0 |xxxxxxxxxxxxx |xxxxxxxxxxxxx |xxxxxxxxxxxxx |xxxxxxxxxxxxx |            0 |            0 |            0 |xxxxxxxxxxxxx |xxxxxxxxxxxxx |xxxxxxxxxxxxx |xxxxxxxxxxxxx |            0 |            0 |            0 |xxxxxxxxxxxxx |xxxxxxxxxxxxx |xxxxxxxxxxxxx |xxxxxxxxxxxxx |            0 |            0 |            0 |xxxxxxxxxxxxx |xxxxxxxxxxxxx |xxxxxxxxxxxxx |xxxxxxxxxxxxx |            0 |            0 |            0 |xxxxxxxxxxxxx |xxxxxxxxxxxxx |xxxxxxxxxxxxx |xxxxxxxxxxxxx |            0 |            0 |            0 |
bpred_bimod.bpred_addr_rate                 0.7088 |       0.7088 |       0.7088 |xxxxxxxxxxxxx |xxxxxxxxxxxxx |xxxxxxxxxxxxx |xxxxxxxxxxxxx |       0.7091 |       0.7092 |       0.7092 |xxxxxxxxxxxxx |xxxxxxxxxxxxx |xxxxxxxxxxxxx |xxxxxxxxxxxxx |       0.7118 |       0.7118 |       0.7118 |xxxxxxxxxxxxx |xxxxxxxxxxxxx |xxxxxxxxxxxxx |xxxxxxxxxxxxx |       0.7171 |       0.7171 |       0.7171 |xxxxxxxxxxxxx |xxxxxxxxxxxxx |xxxxxxxxxxxxx |xxxxxxxxxxxxx |       0.7082 |       0.7082 |       0.7082 |xxxxxxxxxxxxx |xxxxxxxxxxxxx |xxxxxxxxxxxxx |xxxxxxxxxxxxx |       0.7142 |       0.7142 |       0.7142 |xxxxxxxxxxxxx |xxxxxxxxxxxxx |xxxxxxxxxxxxx |xxxxxxxxxxxxx |       0.7132 |       0.7132 |       0.7132 |xxxxxxxxxxxxx |xxxxxxxxxxxxx |xxxxxxxxxxxxx |xxxxxxxxxxxxx |       0.7161 |       0.7161 |       0.7161 |xxxxxxxxxxxxx |xxxxxxxxxxxxx |xxxxxxxxxxxxx |xxxxxxxxxxxxx |       0.7077 |       0.7076 |       0.7076 |xxxxxxxxxxxxx |xxxxxxxxxxxxx |xxxxxxxxxxxxx |xxxxxxxxxxxxx |       0.7128 |       0.7128 |       0.7128 |xxxxxxxxxxxxx |xxxxxxxxxxxxx |xxxxxxxxxxxxx |xxxxxxxxxxxxx |       0.7198 |       0.7198 |       0.7198 |
bpred_bimod.bpred_dir_rate                  0.7102 |       0.7102 |       0.7102 |xxxxxxxxxxxxx |xxxxxxxxxxxxx |xxxxxxxxxxxxx |xxxxxxxxxxxxx |       0.7098 |       0.7098 |       0.7098 |xxxxxxxxxxxxx |xxxxxxxxxxxxx |xxxxxxxxxxxxx |xxxxxxxxxxxxx |       0.7122 |       0.7122 |       0.7121 |xxxxxxxxxxxxx |xxxxxxxxxxxxx |xxxxxxxxxxxxx |xxxxxxxxxxxxx |       0.7172 |       0.7172 |       0.7172 |xxxxxxxxxxxxx |xxxxxxxxxxxxx |xxxxxxxxxxxxx |xxxxxxxxxxxxx |       0.7082 |       0.7082 |       0.7082 |xxxxxxxxxxxxx |xxxxxxxxxxxxx |xxxxxxxxxxxxx |xxxxxxxxxxxxx |       0.7142 |       0.7142 |       0.7142 |xxxxxxxxxxxxx |xxxxxxxxxxxxx |xxxxxxxxxxxxx |xxxxxxxxxxxxx |       0.7132 |       0.7132 |       0.7132 |xxxxxxxxxxxxx |xxxxxxxxxxxxx |xxxxxxxxxxxxx |xxxxxxxxxxxxx |       0.7161 |       0.7161 |       0.7161 |xxxxxxxxxxxxx |xxxxxxxxxxxxx |xxxxxxxxxxxxx |xxxxxxxxxxxxx |       0.7077 |       0.7077 |       0.7077 |xxxxxxxxxxxxx |xxxxxxxxxxxxx |xxxxxxxxxxxxx |xxxxxxxxxxxxx |       0.7128 |       0.7128 |       0.7128 |xxxxxxxxxxxxx |xxxxxxxxxxxxx |xxxxxxxxxxxxx |xxxxxxxxxxxxx |       0.7198 |       0.7198 |       0.7198 |
bpred_bimod.bpred_jr_rate                   1.0000 |       1.0000 |       1.0000 |xxxxxxxxxxxxx |xxxxxxxxxxxxx |xxxxxxxxxxxxx |xxxxxxxxxxxxx |       1.0000 |       1.0000 |       1.0000 |xxxxxxxxxxxxx |xxxxxxxxxxxxx |xxxxxxxxxxxxx |xxxxxxxxxxxxx |       1.0000 |       1.0000 |       1.0000 |xxxxxxxxxxxxx |xxxxxxxxxxxxx |xxxxxxxxxxxxx |xxxxxxxxxxxxx |       1.0000 |       1.0000 |       1.0000 |xxxxxxxxxxxxx |xxxxxxxxxxxxx |xxxxxxxxxxxxx |xxxxxxxxxxxxx |       1.0000 |       1.0000 |       1.0000 |xxxxxxxxxxxxx |xxxxxxxxxxxxx |xxxxxxxxxxxxx |xxxxxxxxxxxxx |       1.0000 |       1.0000 |       1.0000 |xxxxxxxxxxxxx |xxxxxxxxxxxxx |xxxxxxxxxxxxx |xxxxxxxxxxxxx |       1.0000 |       1.0000 |       1.0000 |xxxxxxxxxxxxx |xxxxxxxxxxxxx |xxxxxxxxxxxxx |xxxxxxxxxxxxx |       1.0000 |       1.0000 |       1.0000 |xxxxxxxxxxxxx |xxxxxxxxxxxxx |xxxxxxxxxxxxx |xxxxxxxxxxxxx |       1.0000 |       1.0000 |       1.0000 |xxxxxxxxxxxxx |xxxxxxxxxxxxx |xxxxxxxxxxxxx |xxxxxxxxxxxxx |       1.0000 |       1.0000 |       1.0000 |xxxxxxxxxxxxx |xxxxxxxxxxxxx |xxxxxxxxxxxxx |xxxxxxxxxxxxx |       1.0000 |       1.0000 |       1.0000 |
bpred_bimod.bpred_jr_non_ras_rate.PP       <error: |      <error: |      <error: |xxxxxxxxxxxxx |xxxxxxxxxxxxx |xxxxxxxxxxxxx |xxxxxxxxxxxxx |      <error: |      <error: |      <error: |xxxxxxxxxxxxx |xxxxxxxxxxxxx |xxxxxxxxxxxxx |xxxxxxxxxxxxx |      <error: |      <error: |      <error: |xxxxxxxxxxxxx |xxxxxxxxxxxxx |xxxxxxxxxxxxx |xxxxxxxxxxxxx |      <error: |      <error: |      <error: |xxxxxxxxxxxxx |xxxxxxxxxxxxx |xxxxxxxxxxxxx |xxxxxxxxxxxxx |      <error: |      <error: |      <error: |xxxxxxxxxxxxx |xxxxxxxxxxxxx |xxxxxxxxxxxxx |xxxxxxxxxxxxx |      <error: |      <error: |      <error: |xxxxxxxxxxxxx |xxxxxxxxxxxxx |xxxxxxxxxxxxx |xxxxxxxxxxxxx |      <error: |      <error: |      <error: |xxxxxxxxxxxxx |xxxxxxxxxxxxx |xxxxxxxxxxxxx |xxxxxxxxxxxxx |      <error: |      <error: |      <error: |xxxxxxxxxxxxx |xxxxxxxxxxxxx |xxxxxxxxxxxxx |xxxxxxxxxxxxx |      <error: |      <error: |      <error: |xxxxxxxxxxxxx |xxxxxxxxxxxxx |xxxxxxxxxxxxx |xxxxxxxxxxxxx |      <error: |      <error: |      <error: |xxxxxxxxxxxxx |xxxxxxxxxxxxx |xxxxxxxxxxxxx |xxxxxxxxxxxxx |      <error: |      <error: |      <error: |
bpred_bimod.retstack_pushes                     66 |           66 |           66 |xxxxxxxxxxxxx |xxxxxxxxxxxxx |xxxxxxxxxxxxx |xxxxxxxxxxxxx |           66 |           66 |           66 |xxxxxxxxxxxxx |xxxxxxxxxxxxx |xxxxxxxxxxxxx |xxxxxxxxxxxxx |           66 |           66 |           66 |xxxxxxxxxxxxx |xxxxxxxxxxxxx |xxxxxxxxxxxxx |xxxxxxxxxxxxx |           66 |           66 |           66 |xxxxxxxxxxxxx |xxxxxxxxxxxxx |xxxxxxxxxxxxx |xxxxxxxxxxxxx |           66 |           66 |           66 |xxxxxxxxxxxxx |xxxxxxxxxxxxx |xxxxxxxxxxxxx |xxxxxxxxxxxxx |           66 |           66 |           66 |xxxxxxxxxxxxx |xxxxxxxxxxxxx |xxxxxxxxxxxxx |xxxxxxxxxxxxx |           66 |           66 |           66 |xxxxxxxxxxxxx |xxxxxxxxxxxxx |xxxxxxxxxxxxx |xxxxxxxxxxxxx |           66 |           66 |           66 |xxxxxxxxxxxxx |xxxxxxxxxxxxx |xxxxxxxxxxxxx |xxxxxxxxxxxxx |           66 |           66 |           66 |xxxxxxxxxxxxx |xxxxxxxxxxxxx |xxxxxxxxxxxxx |xxxxxxxxxxxxx |           66 |           66 |           66 |xxxxxxxxxxxxx |xxxxxxxxxxxxx |xxxxxxxxxxxxx |xxxxxxxxxxxxx |           66 |           66 |           66 |
bpred_bimod.retstack_pops                       64 |           64 |           64 |xxxxxxxxxxxxx |xxxxxxxxxxxxx |xxxxxxxxxxxxx |xxxxxxxxxxxxx |           64 |           64 |           64 |xxxxxxxxxxxxx |xxxxxxxxxxxxx |xxxxxxxxxxxxx |xxxxxxxxxxxxx |           64 |           64 |           64 |xxxxxxxxxxxxx |xxxxxxxxxxxxx |xxxxxxxxxxxxx |xxxxxxxxxxxxx |           64 |           64 |           64 |xxxxxxxxxxxxx |xxxxxxxxxxxxx |xxxxxxxxxxxxx |xxxxxxxxxxxxx |           64 |           64 |           64 |xxxxxxxxxxxxx |xxxxxxxxxxxxx |xxxxxxxxxxxxx |xxxxxxxxxxxxx |           64 |           64 |           64 |xxxxxxxxxxxxx |xxxxxxxxxxxxx |xxxxxxxxxxxxx |xxxxxxxxxxxxx |           64 |           64 |           64 |xxxxxxxxxxxxx |xxxxxxxxxxxxx |xxxxxxxxxxxxx |xxxxxxxxxxxxx |           64 |           64 |           64 |xxxxxxxxxxxxx |xxxxxxxxxxxxx |xxxxxxxxxxxxx |xxxxxxxxxxxxx |           64 |           64 |           64 |xxxxxxxxxxxxx |xxxxxxxxxxxxx |xxxxxxxxxxxxx |xxxxxxxxxxxxx |           64 |           64 |           64 |xxxxxxxxxxxxx |xxxxxxxxxxxxx |xxxxxxxxxxxxx |xxxxxxxxxxxxx |           64 |           64 |           64 |
bpred_bimod.used_ras.PP                         64 |           64 |           64 |xxxxxxxxxxxxx |xxxxxxxxxxxxx |xxxxxxxxxxxxx |xxxxxxxxxxxxx |           64 |           64 |           64 |xxxxxxxxxxxxx |xxxxxxxxxxxxx |xxxxxxxxxxxxx |xxxxxxxxxxxxx |           64 |           64 |           64 |xxxxxxxxxxxxx |xxxxxxxxxxxxx |xxxxxxxxxxxxx |xxxxxxxxxxxxx |           64 |           64 |           64 |xxxxxxxxxxxxx |xxxxxxxxxxxxx |xxxxxxxxxxxxx |xxxxxxxxxxxxx |           64 |           64 |           64 |xxxxxxxxxxxxx |xxxxxxxxxxxxx |xxxxxxxxxxxxx |xxxxxxxxxxxxx |           64 |           64 |           64 |xxxxxxxxxxxxx |xxxxxxxxxxxxx |xxxxxxxxxxxxx |xxxxxxxxxxxxx |           64 |           64 |           64 |xxxxxxxxxxxxx |xxxxxxxxxxxxx |xxxxxxxxxxxxx |xxxxxxxxxxxxx |           64 |           64 |           64 |xxxxxxxxxxxxx |xxxxxxxxxxxxx |xxxxxxxxxxxxx |xxxxxxxxxxxxx |           64 |           64 |           64 |xxxxxxxxxxxxx |xxxxxxxxxxxxx |xxxxxxxxxxxxx |xxxxxxxxxxxxx |           64 |           64 |           64 |xxxxxxxxxxxxx |xxxxxxxxxxxxx |xxxxxxxxxxxxx |xxxxxxxxxxxxx |           64 |           64 |           64 |
bpred_bimod.ras_hits.PP                         64 |           64 |           64 |xxxxxxxxxxxxx |xxxxxxxxxxxxx |xxxxxxxxxxxxx |xxxxxxxxxxxxx |           64 |           64 |           64 |xxxxxxxxxxxxx |xxxxxxxxxxxxx |xxxxxxxxxxxxx |xxxxxxxxxxxxx |           64 |           64 |           64 |xxxxxxxxxxxxx |xxxxxxxxxxxxx |xxxxxxxxxxxxx |xxxxxxxxxxxxx |           64 |           64 |           64 |xxxxxxxxxxxxx |xxxxxxxxxxxxx |xxxxxxxxxxxxx |xxxxxxxxxxxxx |           64 |           64 |           64 |xxxxxxxxxxxxx |xxxxxxxxxxxxx |xxxxxxxxxxxxx |xxxxxxxxxxxxx |           64 |           64 |           64 |xxxxxxxxxxxxx |xxxxxxxxxxxxx |xxxxxxxxxxxxx |xxxxxxxxxxxxx |           64 |           64 |           64 |xxxxxxxxxxxxx |xxxxxxxxxxxxx |xxxxxxxxxxxxx |xxxxxxxxxxxxx |           64 |           64 |           64 |xxxxxxxxxxxxx |xxxxxxxxxxxxx |xxxxxxxxxxxxx |xxxxxxxxxxxxx |           64 |           64 |           64 |xxxxxxxxxxxxx |xxxxxxxxxxxxx |xxxxxxxxxxxxx |xxxxxxxxxxxxx |           64 |           64 |           64 |xxxxxxxxxxxxx |xxxxxxxxxxxxx |xxxxxxxxxxxxx |xxxxxxxxxxxxx |           64 |           64 |           64 |
bpred_bimod.ras_rate.PP                     1.0000 |       1.0000 |       1.0000 |xxxxxxxxxxxxx |xxxxxxxxxxxxx |xxxxxxxxxxxxx |xxxxxxxxxxxxx |       1.0000 |       1.0000 |       1.0000 |xxxxxxxxxxxxx |xxxxxxxxxxxxx |xxxxxxxxxxxxx |xxxxxxxxxxxxx |       1.0000 |       1.0000 |       1.0000 |xxxxxxxxxxxxx |xxxxxxxxxxxxx |xxxxxxxxxxxxx |xxxxxxxxxxxxx |       1.0000 |       1.0000 |       1.0000 |xxxxxxxxxxxxx |xxxxxxxxxxxxx |xxxxxxxxxxxxx |xxxxxxxxxxxxx |       1.0000 |       1.0000 |       1.0000 |xxxxxxxxxxxxx |xxxxxxxxxxxxx |xxxxxxxxxxxxx |xxxxxxxxxxxxx |       1.0000 |       1.0000 |       1.0000 |xxxxxxxxxxxxx |xxxxxxxxxxxxx |xxxxxxxxxxxxx |xxxxxxxxxxxxx |       1.0000 |       1.0000 |       1.0000 |xxxxxxxxxxxxx |xxxxxxxxxxxxx |xxxxxxxxxxxxx |xxxxxxxxxxxxx |       1.0000 |       1.0000 |       1.0000 |xxxxxxxxxxxxx |xxxxxxxxxxxxx |xxxxxxxxxxxxx |xxxxxxxxxxxxx |       1.0000 |       1.0000 |       1.0000 |xxxxxxxxxxxxx |xxxxxxxxxxxxx |xxxxxxxxxxxxx |xxxxxxxxxxxxx |       1.0000 |       1.0000 |       1.0000 |xxxxxxxxxxxxx |xxxxxxxxxxxxx |xxxxxxxxxxxxx |xxxxxxxxxxxxx |       1.0000 |       1.0000 |       1.0000 |
bpred_2lev.lookups                   xxxxxxxxxxxxx |xxxxxxxxxxxxx |xxxxxxxxxxxxx |        77204 |        77204 |        77204 |        77204 |xxxxxxxxxxxxx |xxxxxxxxxxxxx |xxxxxxxxxxxxx |       166259 |       166259 |       166259 |       166259 |xxxxxxxxxxxxx |xxxxxxxxxxxxx |xxxxxxxxxxxxx |       358238 |       358238 |       358238 |       358238 |xxxxxxxxxxxxx |xxxxxxxxxxxxx |xxxxxxxxxxxxx |       775737 |       775737 |       775737 |       775737 |xxxxxxxxxxxxx |xxxxxxxxxxxxx |xxxxxxxxxxxxx |      1636105 |      1636105 |      1636105 |      1636105 |xxxxxxxxxxxxx |xxxxxxxxxxxxx |xxxxxxxxxxxxx |      3497983 |      3497983 |      3497983 |      3497983 |xxxxxxxxxxxxx |xxxxxxxxxxxxx |xxxxxxxxxxxxx |      7397671 |      7397671 |      7397671 |      7397671 |xxxxxxxxxxxxx |xxxxxxxxxxxxx |xxxxxxxxxxxxx |     15676244 |     15676244 |     15676244 |     15676244 |xxxxxxxxxxxxx |xxxxxxxxxxxxx |xxxxxxxxxxxxx |     32641371 |     32641371 |     32641371 |     32641371 |xxxxxxxxxxxxx |xxxxxxxxxxxxx |xxxxxxxxxxxxx |     69121967 |     69121967 |     69121967 |     69121967 |xxxxxxxxxxxxx |xxxxxxxxxxxxx |xxxxxxxxxxxxx |    147124260 |    147124260 |    147124260 |    147124260 |
[...]
bpred_2lev.retstack_pushes           xxxxxxxxxxxxx |xxxxxxxxxxxxx |xxxxxxxxxxxxx |           66 |           66 |           66 |           66 |xxxxxxxxxxxxx |xxxxxxxxxxxxx |xxxxxxxxxxxxx |           66 |           66 |           66 |           66 |xxxxxxxxxxxxx |xxxxxxxxxxxxx |xxxxxxxxxxxxx |           66 |           66 |           66 |           66 |xxxxxxxxxxxxx |xxxxxxxxxxxxx |xxxxxxxxxxxxx |           66 |           66 |           66 |           66 |xxxxxxxxxxxxx |xxxxxxxxxxxxx |xxxxxxxxxxxxx |           66 |           66 |           66 |           66 |xxxxxxxxxxxxx |xxxxxxxxxxxxx |xxxxxxxxxxxxx |           66 |           66 |           66 |           66 |xxxxxxxxxxxxx |xxxxxxxxxxxxx |xxxxxxxxxxxxx |           66 |           66 |           66 |           66 |xxxxxxxxxxxxx |xxxxxxxxxxxxx |xxxxxxxxxxxxx |           66 |           66 |           66 |           66 |xxxxxxxxxxxxx |xxxxxxxxxxxxx |xxxxxxxxxxxxx |           66 |           66 |           66 |           66 |xxxxxxxxxxxxx |xxxxxxxxxxxxx |xxxxxxxxxxxxx |           66 |           66 |           66 |           66 |xxxxxxxxxxxxx |xxxxxxxxxxxxx |xxxxxxxxxxxxx |           66 |           66 |           66 |           66 |
bpred_2lev.retstack_pops             xxxxxxxxxxxxx |xxxxxxxxxxxxx |xxxxxxxxxxxxx |           64 |           64 |           64 |           64 |xxxxxxxxxxxxx |xxxxxxxxxxxxx |xxxxxxxxxxxxx |           64 |           64 |           64 |           64 |xxxxxxxxxxxxx |xxxxxxxxxxxxx |xxxxxxxxxxxxx |           64 |           64 |           64 |           64 |xxxxxxxxxxxxx |xxxxxxxxxxxxx |xxxxxxxxxxxxx |           64 |           64 |           64 |           64 |xxxxxxxxxxxxx |xxxxxxxxxxxxx |xxxxxxxxxxxxx |           64 |           64 |           64 |           64 |xxxxxxxxxxxxx |xxxxxxxxxxxxx |xxxxxxxxxxxxx |           64 |           64 |           64 |           64 |xxxxxxxxxxxxx |xxxxxxxxxxxxx |xxxxxxxxxxxxx |           64 |           64 |           64 |           64 |xxxxxxxxxxxxx |xxxxxxxxxxxxx |xxxxxxxxxxxxx |           64 |           64 |           64 |           64 |xxxxxxxxxxxxx |xxxxxxxxxxxxx |xxxxxxxxxxxxx |           64 |           64 |           64 |           64 |xxxxxxxxxxxxx |xxxxxxxxxxxxx |xxxxxxxxxxxxx |           64 |           64 |           64 |           64 |xxxxxxxxxxxxx |xxxxxxxxxxxxx |xxxxxxxxxxxxx |           64 |           64 |           64 |           64 |
bpred_2lev.used_ras.PP               xxxxxxxxxxxxx |xxxxxxxxxxxxx |xxxxxxxxxxxxx |           64 |           64 |           64 |           64 |xxxxxxxxxxxxx |xxxxxxxxxxxxx |xxxxxxxxxxxxx |           64 |           64 |           64 |           64 |xxxxxxxxxxxxx |xxxxxxxxxxxxx |xxxxxxxxxxxxx |           64 |           64 |           64 |           64 |xxxxxxxxxxxxx |xxxxxxxxxxxxx |xxxxxxxxxxxxx |           64 |           64 |           64 |           64 |xxxxxxxxxxxxx |xxxxxxxxxxxxx |xxxxxxxxxxxxx |           64 |           64 |           64 |           64 |xxxxxxxxxxxxx |xxxxxxxxxxxxx |xxxxxxxxxxxxx |           64 |           64 |           64 |           64 |xxxxxxxxxxxxx |xxxxxxxxxxxxx |xxxxxxxxxxxxx |           64 |           64 |           64 |           64 |xxxxxxxxxxxxx |xxxxxxxxxxxxx |xxxxxxxxxxxxx |           64 |           64 |           64 |           64 |xxxxxxxxxxxxx |xxxxxxxxxxxxx |xxxxxxxxxxxxx |           64 |           64 |           64 |           64 |xxxxxxxxxxxxx |xxxxxxxxxxxxx |xxxxxxxxxxxxx |           64 |           64 |           64 |           64 |xxxxxxxxxxxxx |xxxxxxxxxxxxx |xxxxxxxxxxxxx |           64 |           64 |           64 |           64 |
bpred_2lev.ras_hits.PP               xxxxxxxxxxxxx |xxxxxxxxxxxxx |xxxxxxxxxxxxx |           64 |           64 |           64 |           64 |xxxxxxxxxxxxx |xxxxxxxxxxxxx |xxxxxxxxxxxxx |           64 |           64 |           64 |           64 |xxxxxxxxxxxxx |xxxxxxxxxxxxx |xxxxxxxxxxxxx |           64 |           64 |           64 |           64 |xxxxxxxxxxxxx |xxxxxxxxxxxxx |xxxxxxxxxxxxx |           64 |           64 |           64 |           64 |xxxxxxxxxxxxx |xxxxxxxxxxxxx |xxxxxxxxxxxxx |           64 |           64 |           64 |           64 |xxxxxxxxxxxxx |xxxxxxxxxxxxx |xxxxxxxxxxxxx |           64 |           64 |           64 |           64 |xxxxxxxxxxxxx |xxxxxxxxxxxxx |xxxxxxxxxxxxx |           64 |           64 |           64 |           64 |xxxxxxxxxxxxx |xxxxxxxxxxxxx |xxxxxxxxxxxxx |           64 |           64 |           64 |           64 |xxxxxxxxxxxxx |xxxxxxxxxxxxx |xxxxxxxxxxxxx |           64 |           64 |           64 |           64 |xxxxxxxxxxxxx |xxxxxxxxxxxxx |xxxxxxxxxxxxx |           64 |           64 |           64 |           64 |xxxxxxxxxxxxx |xxxxxxxxxxxxx |xxxxxxxxxxxxx |           64 |           64 |           64 |           64 |
bpred_2lev.ras_rate.PP               xxxxxxxxxxxxx |xxxxxxxxxxxxx |xxxxxxxxxxxxx |       1.0000 |       1.0000 |       1.0000 |       1.0000 |xxxxxxxxxxxxx |xxxxxxxxxxxxx |xxxxxxxxxxxxx |       1.0000 |       1.0000 |       1.0000 |       1.0000 |xxxxxxxxxxxxx |xxxxxxxxxxxxx |xxxxxxxxxxxxx |       1.0000 |       1.0000 |       1.0000 |       1.0000 |xxxxxxxxxxxxx |xxxxxxxxxxxxx |xxxxxxxxxxxxx |       1.0000 |       1.0000 |       1.0000 |       1.0000 |xxxxxxxxxxxxx |xxxxxxxxxxxxx |xxxxxxxxxxxxx |       1.0000 |       1.0000 |       1.0000 |       1.0000 |xxxxxxxxxxxxx |xxxxxxxxxxxxx |xxxxxxxxxxxxx |       1.0000 |       1.0000 |       1.0000 |       1.0000 |xxxxxxxxxxxxx |xxxxxxxxxxxxx |xxxxxxxxxxxxx |       1.0000 |       1.0000 |       1.0000 |       1.0000 |xxxxxxxxxxxxx |xxxxxxxxxxxxx |xxxxxxxxxxxxx |       1.0000 |       1.0000 |       1.0000 |       1.0000 |xxxxxxxxxxxxx |xxxxxxxxxxxxx |xxxxxxxxxxxxx |       1.0000 |       1.0000 |       1.0000 |       1.0000 |xxxxxxxxxxxxx |xxxxxxxxxxxxx |xxxxxxxxxxxxx |       1.0000 |       1.0000 |       1.0000 |       1.0000 |xxxxxxxxxxxxx |xxxxxxxxxxxxx |xxxxxxxxxxxxx |       1.0000 |       1.0000 |       1.0000 |       1.0000 |

Command list: 
	sslittle-na-sstrix-gcc -Wall -O3 -funroll-loops -finline-functions  -DRANDOM_SIZE=4096 -DOFFSET=3 -DSORT=base_quicksort5 sorts/base_quicksort51335692654.c simpleMain.c -o base_quicksort5580217079
	sim-cache -cache:dl1 dl1:256:32:1:l -cache:dl2 dl2:131072:32:1:l -cache:il1 il1:256:32:1:l -cache:il2 dl2 base_quicksort5580217079
	sim-cache -cache:dl1 dl1:256:32:1:l -cache:dl2 dl2:65536:32:1:l -cache:il1 il1:256:32:1:l -cache:il2 dl2 base_quicksort5580217079
	sim-cache -cache:dl1 dl1:1:32:256:l -cache:dl2 dl2:1:32:131072:l -cache:il1 il1:1:32:256:l -cache:il2 dl2 base_quicksort5580217079
	sim-cache -cache:dl1 dl1:1:32:256:l -cache:dl2 dl2:1:32:65536:l -cache:il1 il1:1:32:256:l -cache:il2 dl2 base_quicksort5580217079
	sim-bpred -bpred bimod -bpred:bimod 512 base_quicksort5580217079
	sim-bpred -bpred bimod -bpred:bimod 1024 base_quicksort5580217079
	sim-bpred -bpred bimod -bpred:bimod 2048 base_quicksort5580217079
	sim-bpred -bpred 2lev -bpred:2lev 1 512 10 1 base_quicksort5580217079
	sim-bpred -bpred 2lev -bpred:2lev 1 1024 10 1 base_quicksort5580217079
	sim-bpred -bpred 2lev -bpred:2lev 1 2048 10 1 base_quicksort5580217079
	sim-bpred -bpred 2lev -bpred:2lev 1 4096 10 1 base_quicksort5580217079
	sslittle-na-sstrix-gcc -Wall -O3 -funroll-loops -finline-functions  -DRANDOM_SIZE=8192 -DOFFSET=3 -DSORT=base_quicksort5 sorts/base_quicksort51335692654.c simpleMain.c -o base_quicksort5580217079
	sim-cache -cache:dl1 dl1:256:32:1:l -cache:dl2 dl2:131072:32:1:l -cache:il1 il1:256:32:1:l -cache:il2 dl2 base_quicksort5580217079
	sim-cache -cache:dl1 dl1:256:32:1:l -cache:dl2 dl2:65536:32:1:l -cache:il1 il1:256:32:1:l -cache:il2 dl2 base_quicksort5580217079
	sim-cache -cache:dl1 dl1:1:32:256:l -cache:dl2 dl2:1:32:131072:l -cache:il1 il1:1:32:256:l -cache:il2 dl2 base_quicksort5580217079
	sim-cache -cache:dl1 dl1:1:32:256:l -cache:dl2 dl2:1:32:65536:l -cache:il1 il1:1:32:256:l -cache:il2 dl2 base_quicksort5580217079
	sim-bpred -bpred bimod -bpred:bimod 512 base_quicksort5580217079
	sim-bpred -bpred bimod -bpred:bimod 1024 base_quicksort5580217079
	sim-bpred -bpred bimod -bpred:bimod 2048 base_quicksort5580217079
	sim-bpred -bpred 2lev -bpred:2lev 1 512 10 1 base_quicksort5580217079
	sim-bpred -bpred 2lev -bpred:2lev 1 1024 10 1 base_quicksort5580217079
	sim-bpred -bpred 2lev -bpred:2lev 1 2048 10 1 base_quicksort5580217079
	sim-bpred -bpred 2lev -bpred:2lev 1 4096 10 1 base_quicksort5580217079
	sslittle-na-sstrix-gcc -Wall -O3 -funroll-loops -finline-functions  -DRANDOM_SIZE=16384 -DOFFSET=3 -DSORT=base_quicksort5 sorts/base_quicksort51335692654.c simpleMain.c -o base_quicksort5580217079
	sim-cache -cache:dl1 dl1:256:32:1:l -cache:dl2 dl2:131072:32:1:l -cache:il1 il1:256:32:1:l -cache:il2 dl2 base_quicksort5580217079
	sim-cache -cache:dl1 dl1:256:32:1:l -cache:dl2 dl2:65536:32:1:l -cache:il1 il1:256:32:1:l -cache:il2 dl2 base_quicksort5580217079
	sim-cache -cache:dl1 dl1:1:32:256:l -cache:dl2 dl2:1:32:131072:l -cache:il1 il1:1:32:256:l -cache:il2 dl2 base_quicksort5580217079
	sim-cache -cache:dl1 dl1:1:32:256:l -cache:dl2 dl2:1:32:65536:l -cache:il1 il1:1:32:256:l -cache:il2 dl2 base_quicksort5580217079
	sim-bpred -bpred bimod -bpred:bimod 512 base_quicksort5580217079
	sim-bpred -bpred bimod -bpred:bimod 1024 base_quicksort5580217079
	sim-bpred -bpred bimod -bpred:bimod 2048 base_quicksort5580217079
	sim-bpred -bpred 2lev -bpred:2lev 1 512 10 1 base_quicksort5580217079
	sim-bpred -bpred 2lev -bpred:2lev 1 1024 10 1 base_quicksort5580217079
	sim-bpred -bpred 2lev -bpred:2lev 1 2048 10 1 base_quicksort5580217079
	sim-bpred -bpred 2lev -bpred:2lev 1 4096 10 1 base_quicksort5580217079
	sslittle-na-sstrix-gcc -Wall -O3 -funroll-loops -finline-functions  -DRANDOM_SIZE=32768 -DOFFSET=3 -DSORT=base_quicksort5 sorts/base_quicksort51335692654.c simpleMain.c -o base_quicksort5580217079
	sim-cache -cache:dl1 dl1:256:32:1:l -cache:dl2 dl2:131072:32:1:l -cache:il1 il1:256:32:1:l -cache:il2 dl2 base_quicksort5580217079
	sim-cache -cache:dl1 dl1:256:32:1:l -cache:dl2 dl2:65536:32:1:l -cache:il1 il1:256:32:1:l -cache:il2 dl2 base_quicksort5580217079
	sim-cache -cache:dl1 dl1:1:32:256:l -cache:dl2 dl2:1:32:131072:l -cache:il1 il1:1:32:256:l -cache:il2 dl2 base_quicksort5580217079
	sim-cache -cache:dl1 dl1:1:32:256:l -cache:dl2 dl2:1:32:65536:l -cache:il1 il1:1:32:256:l -cache:il2 dl2 base_quicksort5580217079
	sim-bpred -bpred bimod -bpred:bimod 512 base_quicksort5580217079
	sim-bpred -bpred bimod -bpred:bimod 1024 base_quicksort5580217079
	sim-bpred -bpred bimod -bpred:bimod 2048 base_quicksort5580217079
	sim-bpred -bpred 2lev -bpred:2lev 1 512 10 1 base_quicksort5580217079
	sim-bpred -bpred 2lev -bpred:2lev 1 1024 10 1 base_quicksort5580217079
	sim-bpred -bpred 2lev -bpred:2lev 1 2048 10 1 base_quicksort5580217079
	sim-bpred -bpred 2lev -bpred:2lev 1 4096 10 1 base_quicksort5580217079
	sslittle-na-sstrix-gcc -Wall -O3 -funroll-loops -finline-functions  -DRANDOM_SIZE=65536 -DOFFSET=3 -DSORT=base_quicksort5 sorts/base_quicksort51335692654.c simpleMain.c -o base_quicksort5580217079
	sim-cache -cache:dl1 dl1:256:32:1:l -cache:dl2 dl2:131072:32:1:l -cache:il1 il1:256:32:1:l -cache:il2 dl2 base_quicksort5580217079
	sim-cache -cache:dl1 dl1:256:32:1:l -cache:dl2 dl2:65536:32:1:l -cache:il1 il1:256:32:1:l -cache:il2 dl2 base_quicksort5580217079
	sim-cache -cache:dl1 dl1:1:32:256:l -cache:dl2 dl2:1:32:131072:l -cache:il1 il1:1:32:256:l -cache:il2 dl2 base_quicksort5580217079
	sim-cache -cache:dl1 dl1:1:32:256:l -cache:dl2 dl2:1:32:65536:l -cache:il1 il1:1:32:256:l -cache:il2 dl2 base_quicksort5580217079
	sim-bpred -bpred bimod -bpred:bimod 512 base_quicksort5580217079
	sim-bpred -bpred bimod -bpred:bimod 1024 base_quicksort5580217079
	sim-bpred -bpred bimod -bpred:bimod 2048 base_quicksort5580217079
	sim-bpred -bpred 2lev -bpred:2lev 1 512 10 1 base_quicksort5580217079
	sim-bpred -bpred 2lev -bpred:2lev 1 1024 10 1 base_quicksort5580217079
	sim-bpred -bpred 2lev -bpred:2lev 1 2048 10 1 base_quicksort5580217079
	sim-bpred -bpred 2lev -bpred:2lev 1 4096 10 1 base_quicksort5580217079
	sslittle-na-sstrix-gcc -Wall -O3 -funroll-loops -finline-functions  -DRANDOM_SIZE=131072 -DOFFSET=3 -DSORT=base_quicksort5 sorts/base_quicksort51335692654.c simpleMain.c -o base_quicksort5580217079
	sim-cache -cache:dl1 dl1:256:32:1:l -cache:dl2 dl2:131072:32:1:l -cache:il1 il1:256:32:1:l -cache:il2 dl2 base_quicksort5580217079
	sim-cache -cache:dl1 dl1:256:32:1:l -cache:dl2 dl2:65536:32:1:l -cache:il1 il1:256:32:1:l -cache:il2 dl2 base_quicksort5580217079
	sim-cache -cache:dl1 dl1:1:32:256:l -cache:dl2 dl2:1:32:131072:l -cache:il1 il1:1:32:256:l -cache:il2 dl2 base_quicksort5580217079
	sim-cache -cache:dl1 dl1:1:32:256:l -cache:dl2 dl2:1:32:65536:l -cache:il1 il1:1:32:256:l -cache:il2 dl2 base_quicksort5580217079
	sim-bpred -bpred bimod -bpred:bimod 512 base_quicksort5580217079
	sim-bpred -bpred bimod -bpred:bimod 1024 base_quicksort5580217079
	sim-bpred -bpred bimod -bpred:bimod 2048 base_quicksort5580217079
	sim-bpred -bpred 2lev -bpred:2lev 1 512 10 1 base_quicksort5580217079
	sim-bpred -bpred 2lev -bpred:2lev 1 1024 10 1 base_quicksort5580217079
	sim-bpred -bpred 2lev -bpred:2lev 1 2048 10 1 base_quicksort5580217079
	sim-bpred -bpred 2lev -bpred:2lev 1 4096 10 1 base_quicksort5580217079
	sslittle-na-sstrix-gcc -Wall -O3 -funroll-loops -finline-functions  -DRANDOM_SIZE=262144 -DOFFSET=3 -DSORT=base_quicksort5 sorts/base_quicksort51335692654.c simpleMain.c -o base_quicksort5580217079
	sim-cache -cache:dl1 dl1:256:32:1:l -cache:dl2 dl2:131072:32:1:l -cache:il1 il1:256:32:1:l -cache:il2 dl2 base_quicksort5580217079
	sim-cache -cache:dl1 dl1:256:32:1:l -cache:dl2 dl2:65536:32:1:l -cache:il1 il1:256:32:1:l -cache:il2 dl2 base_quicksort5580217079
	sim-cache -cache:dl1 dl1:1:32:256:l -cache:dl2 dl2:1:32:131072:l -cache:il1 il1:1:32:256:l -cache:il2 dl2 base_quicksort5580217079
	sim-cache -cache:dl1 dl1:1:32:256:l -cache:dl2 dl2:1:32:65536:l -cache:il1 il1:1:32:256:l -cache:il2 dl2 base_quicksort5580217079
	sim-bpred -bpred bimod -bpred:bimod 512 base_quicksort5580217079
	sim-bpred -bpred bimod -bpred:bimod 1024 base_quicksort5580217079
	sim-bpred -bpred bimod -bpred:bimod 2048 base_quicksort5580217079
	sim-bpred -bpred 2lev -bpred:2lev 1 512 10 1 base_quicksort5580217079
	sim-bpred -bpred 2lev -bpred:2lev 1 1024 10 1 base_quicksort5580217079
	sim-bpred -bpred 2lev -bpred:2lev 1 2048 10 1 base_quicksort5580217079
	sim-bpred -bpred 2lev -bpred:2lev 1 4096 10 1 base_quicksort5580217079
	sslittle-na-sstrix-gcc -Wall -O3 -funroll-loops -finline-functions  -DRANDOM_SIZE=524288 -DOFFSET=3 -DSORT=base_quicksort5 sorts/base_quicksort51335692654.c simpleMain.c -o base_quicksort5580217079
	sim-cache -cache:dl1 dl1:256:32:1:l -cache:dl2 dl2:131072:32:1:l -cache:il1 il1:256:32:1:l -cache:il2 dl2 base_quicksort5580217079
	sim-cache -cache:dl1 dl1:256:32:1:l -cache:dl2 dl2:65536:32:1:l -cache:il1 il1:256:32:1:l -cache:il2 dl2 base_quicksort5580217079
	sim-cache -cache:dl1 dl1:1:32:256:l -cache:dl2 dl2:1:32:131072:l -cache:il1 il1:1:32:256:l -cache:il2 dl2 base_quicksort5580217079
	sim-cache -cache:dl1 dl1:1:32:256:l -cache:dl2 dl2:1:32:65536:l -cache:il1 il1:1:32:256:l -cache:il2 dl2 base_quicksort5580217079
	sim-bpred -bpred bimod -bpred:bimod 512 base_quicksort5580217079
	sim-bpred -bpred bimod -bpred:bimod 1024 base_quicksort5580217079
	sim-bpred -bpred bimod -bpred:bimod 2048 base_quicksort5580217079
	sim-bpred -bpred 2lev -bpred:2lev 1 512 10 1 base_quicksort5580217079
	sim-bpred -bpred 2lev -bpred:2lev 1 1024 10 1 base_quicksort5580217079
	sim-bpred -bpred 2lev -bpred:2lev 1 2048 10 1 base_quicksort5580217079
	sim-bpred -bpred 2lev -bpred:2lev 1 4096 10 1 base_quicksort5580217079
	sslittle-na-sstrix-gcc -Wall -O3 -funroll-loops -finline-functions  -DRANDOM_SIZE=1048576 -DOFFSET=3 -DSORT=base_quicksort5 sorts/base_quicksort51335692654.c simpleMain.c -o base_quicksort5580217079
	sim-cache -cache:dl1 dl1:256:32:1:l -cache:dl2 dl2:131072:32:1:l -cache:il1 il1:256:32:1:l -cache:il2 dl2 base_quicksort5580217079
	sim-cache -cache:dl1 dl1:256:32:1:l -cache:dl2 dl2:65536:32:1:l -cache:il1 il1:256:32:1:l -cache:il2 dl2 base_quicksort5580217079
	sim-cache -cache:dl1 dl1:1:32:256:l -cache:dl2 dl2:1:32:131072:l -cache:il1 il1:1:32:256:l -cache:il2 dl2 base_quicksort5580217079
	sim-cache -cache:dl1 dl1:1:32:256:l -cache:dl2 dl2:1:32:65536:l -cache:il1 il1:1:32:256:l -cache:il2 dl2 base_quicksort5580217079
	sim-bpred -bpred bimod -bpred:bimod 512 base_quicksort5580217079
	sim-bpred -bpred bimod -bpred:bimod 1024 base_quicksort5580217079
	sim-bpred -bpred bimod -bpred:bimod 2048 base_quicksort5580217079
	sim-bpred -bpred 2lev -bpred:2lev 1 512 10 1 base_quicksort5580217079
	sim-bpred -bpred 2lev -bpred:2lev 1 1024 10 1 base_quicksort5580217079
	sim-bpred -bpred 2lev -bpred:2lev 1 2048 10 1 base_quicksort5580217079
	sim-bpred -bpred 2lev -bpred:2lev 1 4096 10 1 base_quicksort5580217079
	sslittle-na-sstrix-gcc -Wall -O3 -funroll-loops -finline-functions  -DRANDOM_SIZE=2097152 -DOFFSET=3 -DSORT=base_quicksort5 sorts/base_quicksort51335692654.c simpleMain.c -o base_quicksort5580217079
	sim-cache -cache:dl1 dl1:256:32:1:l -cache:dl2 dl2:131072:32:1:l -cache:il1 il1:256:32:1:l -cache:il2 dl2 base_quicksort5580217079
	sim-cache -cache:dl1 dl1:256:32:1:l -cache:dl2 dl2:65536:32:1:l -cache:il1 il1:256:32:1:l -cache:il2 dl2 base_quicksort5580217079
	sim-cache -cache:dl1 dl1:1:32:256:l -cache:dl2 dl2:1:32:131072:l -cache:il1 il1:1:32:256:l -cache:il2 dl2 base_quicksort5580217079
	sim-cache -cache:dl1 dl1:1:32:256:l -cache:dl2 dl2:1:32:65536:l -cache:il1 il1:1:32:256:l -cache:il2 dl2 base_quicksort5580217079
	sim-bpred -bpred bimod -bpred:bimod 512 base_quicksort5580217079
	sim-bpred -bpred bimod -bpred:bimod 1024 base_quicksort5580217079
	sim-bpred -bpred bimod -bpred:bimod 2048 base_quicksort5580217079
	sim-bpred -bpred 2lev -bpred:2lev 1 512 10 1 base_quicksort5580217079
	sim-bpred -bpred 2lev -bpred:2lev 1 1024 10 1 base_quicksort5580217079
	sim-bpred -bpred 2lev -bpred:2lev 1 2048 10 1 base_quicksort5580217079
	sim-bpred -bpred 2lev -bpred:2lev 1 4096 10 1 base_quicksort5580217079
	sslittle-na-sstrix-gcc -Wall -O3 -funroll-loops -finline-functions  -DRANDOM_SIZE=4194304 -DOFFSET=3 -DSORT=base_quicksort5 sorts/base_quicksort51335692654.c simpleMain.c -o base_quicksort5580217079
	sim-cache -cache:dl1 dl1:256:32:1:l -cache:dl2 dl2:131072:32:1:l -cache:il1 il1:256:32:1:l -cache:il2 dl2 base_quicksort5580217079
	sim-cache -cache:dl1 dl1:256:32:1:l -cache:dl2 dl2:65536:32:1:l -cache:il1 il1:256:32:1:l -cache:il2 dl2 base_quicksort5580217079
	sim-cache -cache:dl1 dl1:1:32:256:l -cache:dl2 dl2:1:32:131072:l -cache:il1 il1:1:32:256:l -cache:il2 dl2 base_quicksort5580217079
	sim-cache -cache:dl1 dl1:1:32:256:l -cache:dl2 dl2:1:32:65536:l -cache:il1 il1:1:32:256:l -cache:il2 dl2 base_quicksort5580217079
	sim-bpred -bpred bimod -bpred:bimod 512 base_quicksort5580217079
	sim-bpred -bpred bimod -bpred:bimod 1024 base_quicksort5580217079
	sim-bpred -bpred bimod -bpred:bimod 2048 base_quicksort5580217079
	sim-bpred -bpred 2lev -bpred:2lev 1 512 10 1 base_quicksort5580217079
	sim-bpred -bpred 2lev -bpred:2lev 1 1024 10 1 base_quicksort5580217079
	sim-bpred -bpred 2lev -bpred:2lev 1 2048 10 1 base_quicksort5580217079
	sim-bpred -bpred 2lev -bpred:2lev 1 4096 10 1 base_quicksort5580217079
