Tue Jul 12 06:27:57 2005
Run as: "./do_simple -c random.org5 -o 5 base_radixsort"
-------------------------------------------------------------------------------------------------
sim-cache                                     4096 |         4096 |         4096 |         4096 |         8192 |         8192 |         8192 |         8192 |        16384 |        16384 |        16384 |        16384 |        32768 |        32768 |        32768 |        32768 |        65536 |        65536 |        65536 |        65536 |       131072 |       131072 |       131072 |       131072 |       262144 |       262144 |       262144 |       262144 |       524288 |       524288 |       524288 |       524288 |      1048576 |      1048576 |      1048576 |      1048576 |      2097152 |      2097152 |      2097152 |      2097152 |      4194304 |      4194304 |      4194304 |      4194304 |
-cache:dl1 dl1:256:32:1:l -cache:dl2 dl2:131072:32:1:l -cache:il1 il1:256:32:1:l -cache:il2 dl2
-cache:dl1 dl1:256:32:1:l -cache:dl2 dl2:65536:32:1:l -cache:il1 il1:256:32:1:l -cache:il2 dl2
-cache:dl1 dl1:1:32:256:l -cache:dl2 dl2:1:32:131072:l -cache:il1 il1:1:32:256:l -cache:il2 dl2
-cache:dl1 dl1:1:32:256:l -cache:dl2 dl2:1:32:65536:l -cache:il1 il1:1:32:256:l -cache:il2 dl2
-------------------------------------------------------------------------------------------------
sim_num_insn                                431108 |       431108 |       431108 |       431108 |       849042 |       849042 |       849042 |       849042 |      1684628 |      1684628 |      1684628 |      1684628 |      3355797 |      3355797 |      3355797 |      3355797 |      6698133 |      6698133 |      6698133 |      6698133 |     13382806 |     13382806 |     13382806 |     13382806 |     26752150 |     26752150 |     26752150 |     26752150 |     53490838 |     53490838 |     53490838 |     53490838 |    106980690 |    106980690 |    106980690 |    106980690 |    213944666 |    213944666 |    213944666 |    213944666 |    427872610 |    427872610 |    427872610 |    427872610 |
sim_num_refs                                171669 |       171669 |       171669 |       171669 |       335553 |       335553 |       335553 |       335553 |       663233 |       663233 |       663233 |       663233 |      1318593 |      1318593 |      1318593 |      1318593 |      2629313 |      2629313 |      2629313 |      2629313 |      5250753 |      5250753 |      5250753 |      5250753 |     10493633 |     10493633 |     10493633 |     10493633 |     20979393 |     20979393 |     20979393 |     20979393 |     41960175 |     41960175 |     41960175 |     41960175 |     83909359 |     83909359 |     83909359 |     83909359 |    167807727 |    167807727 |    167807727 |    167807727 |
sim_elapsed_time                                 1 |            1 |           10 |            5 |            1 |            1 |           15 |            8 |            1 |            1 |           27 |           13 |            1 |            1 |           48 |           23 |            2 |            3 |           88 |           43 |            4 |            5 |          161 |           72 |            9 |            9 |          276 |           98 |           18 |           18 |          372 |          108 |           37 |           36 |          393 |          131 |           72 |           73 |          436 |          174 |          146 |          145 |          525 |          272 |
sim_inst_rate                          431108.0000 |  431108.0000 |   43110.8000 |   86221.6000 |  849042.0000 |  849042.0000 |   56602.8000 |  106130.2500 | 1684628.0000 | 1684628.0000 |   62393.6296 |  129586.7692 | 3355797.0000 | 3355797.0000 |   69912.4375 |  145904.2174 | 3349066.5000 | 2232711.0000 |   76115.1477 |  155770.5349 | 3345701.5000 | 2676561.2000 |   83123.0186 |  185872.3056 | 2972461.1111 | 2972461.1111 |   96928.0797 |  272981.1224 | 2971713.2222 | 2971713.2222 |  143792.5753 |  495285.5370 | 2891370.0000 | 2971685.8333 |  272215.4962 |  816646.4885 | 2971453.6944 | 2930748.8493 |  490698.7752 | 1229567.0460 | 2930634.3151 | 2950845.5862 |  814995.4476 | 1573061.0662 |
il1.accesses                                431108 |       431108 |       431108 |       431108 |       849042 |       849042 |       849042 |       849042 |      1684628 |      1684628 |      1684628 |      1684628 |      3355797 |      3355797 |      3355797 |      3355797 |      6698133 |      6698133 |      6698133 |      6698133 |     13382806 |     13382806 |     13382806 |     13382806 |     26752150 |     26752150 |     26752150 |     26752150 |     53490838 |     53490838 |     53490838 |     53490838 |    106980690 |    106980690 |    106980690 |    106980690 |    213944666 |    213944666 |    213944666 |    213944666 |    427872610 |    427872610 |    427872610 |    427872610 |
il1.hits                                    430687 |       430687 |       430739 |       430739 |       848602 |       848602 |       848683 |       848683 |      1684174 |      1684174 |      1684263 |      1684263 |      3355357 |      3355357 |      3355437 |      3355437 |      6697693 |      6697693 |      6697773 |      6697773 |     13382367 |     13382367 |     13382447 |     13382447 |     26751711 |     26751711 |     26751791 |     26751791 |     53490399 |     53490399 |     53490479 |     53490479 |    106980201 |    106980201 |    106980261 |    106980261 |    213944177 |    213944177 |    213944237 |    213944237 |    427872121 |    427872121 |    427872181 |    427872181 |
il1.misses                                     421 |          421 |          369 |          369 |          440 |          440 |          359 |          359 |          454 |          454 |          365 |          365 |          440 |          440 |          360 |          360 |          440 |          440 |          360 |          360 |          439 |          439 |          359 |          359 |          439 |          439 |          359 |          359 |          439 |          439 |          359 |          359 |          489 |          489 |          429 |          429 |          489 |          489 |          429 |          429 |          489 |          489 |          429 |          429 |
il1.replacements                               219 |          219 |          113 |          113 |          240 |          240 |          103 |          103 |          252 |          252 |          109 |          109 |          238 |          238 |          104 |          104 |          238 |          238 |          104 |          104 |          238 |          238 |          103 |          103 |          238 |          238 |          103 |          103 |          238 |          238 |          103 |          103 |          273 |          273 |          173 |          173 |          273 |          273 |          173 |          173 |          273 |          273 |          173 |          173 |
il1.writebacks                                   0 |            0 |            0 |            0 |            0 |            0 |            0 |            0 |            0 |            0 |            0 |            0 |            0 |            0 |            0 |            0 |            0 |            0 |            0 |            0 |            0 |            0 |            0 |            0 |            0 |            0 |            0 |            0 |            0 |            0 |            0 |            0 |            0 |            0 |            0 |            0 |            0 |            0 |            0 |            0 |            0 |            0 |            0 |            0 |
il1.invalidations                                0 |            0 |            0 |            0 |            0 |            0 |            0 |            0 |            0 |            0 |            0 |            0 |            0 |            0 |            0 |            0 |            0 |            0 |            0 |            0 |            0 |            0 |            0 |            0 |            0 |            0 |            0 |            0 |            0 |            0 |            0 |            0 |            0 |            0 |            0 |            0 |            0 |            0 |            0 |            0 |            0 |            0 |            0 |            0 |
il1.miss_rate                               0.0010 |       0.0010 |       0.0009 |       0.0009 |       0.0005 |       0.0005 |       0.0004 |       0.0004 |       0.0003 |       0.0003 |       0.0002 |       0.0002 |       0.0001 |       0.0001 |       0.0001 |       0.0001 |       0.0001 |       0.0001 |       0.0001 |       0.0001 |       0.0000 |       0.0000 |       0.0000 |       0.0000 |       0.0000 |       0.0000 |       0.0000 |       0.0000 |       0.0000 |       0.0000 |       0.0000 |       0.0000 |       0.0000 |       0.0000 |       0.0000 |       0.0000 |       0.0000 |       0.0000 |       0.0000 |       0.0000 |       0.0000 |       0.0000 |       0.0000 |       0.0000 |
il1.repl_rate                               0.0005 |       0.0005 |       0.0003 |       0.0003 |       0.0003 |       0.0003 |       0.0001 |       0.0001 |       0.0001 |       0.0001 |       0.0001 |       0.0001 |       0.0001 |       0.0001 |       0.0000 |       0.0000 |       0.0000 |       0.0000 |       0.0000 |       0.0000 |       0.0000 |       0.0000 |       0.0000 |       0.0000 |       0.0000 |       0.0000 |       0.0000 |       0.0000 |       0.0000 |       0.0000 |       0.0000 |       0.0000 |       0.0000 |       0.0000 |       0.0000 |       0.0000 |       0.0000 |       0.0000 |       0.0000 |       0.0000 |       0.0000 |       0.0000 |       0.0000 |       0.0000 |
il1.wb_rate                                 0.0000 |       0.0000 |       0.0000 |       0.0000 |       0.0000 |       0.0000 |       0.0000 |       0.0000 |       0.0000 |       0.0000 |       0.0000 |       0.0000 |       0.0000 |       0.0000 |       0.0000 |       0.0000 |       0.0000 |       0.0000 |       0.0000 |       0.0000 |       0.0000 |       0.0000 |       0.0000 |       0.0000 |       0.0000 |       0.0000 |       0.0000 |       0.0000 |       0.0000 |       0.0000 |       0.0000 |       0.0000 |       0.0000 |       0.0000 |       0.0000 |       0.0000 |       0.0000 |       0.0000 |       0.0000 |       0.0000 |       0.0000 |       0.0000 |       0.0000 |       0.0000 |
il1.inv_rate                                0.0000 |       0.0000 |       0.0000 |       0.0000 |       0.0000 |       0.0000 |       0.0000 |       0.0000 |       0.0000 |       0.0000 |       0.0000 |       0.0000 |       0.0000 |       0.0000 |       0.0000 |       0.0000 |       0.0000 |       0.0000 |       0.0000 |       0.0000 |       0.0000 |       0.0000 |       0.0000 |       0.0000 |       0.0000 |       0.0000 |       0.0000 |       0.0000 |       0.0000 |       0.0000 |       0.0000 |       0.0000 |       0.0000 |       0.0000 |       0.0000 |       0.0000 |       0.0000 |       0.0000 |       0.0000 |       0.0000 |       0.0000 |       0.0000 |       0.0000 |       0.0000 |
dl1.accesses                                188135 |       188135 |       188135 |       188135 |       368403 |       368403 |       368403 |       368403 |       728851 |       728851 |       728851 |       728851 |      1449747 |      1449747 |      1449747 |      1449747 |      2891539 |      2891539 |      2891539 |      2891539 |      5775123 |      5775123 |      5775123 |      5775123 |     11542291 |     11542291 |     11542291 |     11542291 |     23076627 |     23076627 |     23076627 |     23076627 |     46154561 |     46154561 |     46154561 |     46154561 |     92298049 |     92298049 |     92298049 |     92298049 |    184585025 |    184585025 |    184585025 |    184585025 |
dl1.hits                                    167947 |       167947 |       171927 |       171927 |       327595 |       327595 |       336535 |       336535 |       646421 |       646421 |       666057 |       666057 |      1286208 |      1286208 |      1325223 |      1325223 |      2559536 |      2559536 |      2643679 |      2643679 |      5079549 |      5079549 |      5280111 |      5280111 |     10096801 |     10096801 |     10552376 |     10552376 |     20080952 |     20080952 |     21099076 |     21099076 |     40339596 |     40339596 |     42198288 |     42198288 |     81188249 |     81188249 |     84385849 |     84385849 |    162669183 |    162669183 |    168758028 |    168758028 |
dl1.misses                                   20188 |        20188 |        16208 |        16208 |        40808 |        40808 |        31868 |        31868 |        82430 |        82430 |        62794 |        62794 |       163539 |       163539 |       124524 |       124524 |       332003 |       332003 |       247860 |       247860 |       695574 |       695574 |       495012 |       495012 |      1445490 |      1445490 |       989915 |       989915 |      2995675 |      2995675 |      1977551 |      1977551 |      5814965 |      5814965 |      3956273 |      3956273 |     11109800 |     11109800 |      7912200 |      7912200 |     21915842 |     21915842 |     15826997 |     15826997 |
dl1.replacements                             19932 |        19932 |        15952 |        15952 |        40552 |        40552 |        31612 |        31612 |        82174 |        82174 |        62538 |        62538 |       163283 |       163283 |       124268 |       124268 |       331747 |       331747 |       247604 |       247604 |       695318 |       695318 |       494756 |       494756 |      1445234 |      1445234 |       989659 |       989659 |      2995419 |      2995419 |      1977295 |      1977295 |      5814709 |      5814709 |      3956017 |      3956017 |     11109544 |     11109544 |      7911944 |      7911944 |     21915586 |     21915586 |     15826741 |     15826741 |
dl1.writebacks                               13842 |        13842 |        10001 |        10001 |        28109 |        28109 |        19466 |        19466 |        57005 |        57005 |        38078 |        38078 |       112814 |       112814 |        75225 |        75225 |       230686 |       230686 |       149400 |       149400 |       493175 |       493175 |       298245 |       298245 |      1040970 |      1040970 |       596540 |       596540 |      2186499 |      2186499 |      1190960 |      1190960 |      4196762 |      4196762 |      2382862 |      2382862 |      7873485 |      7873485 |      4765925 |      4765925 |     15443593 |     15443593 |      9534994 |      9534994 |
dl1.invalidations                                0 |            0 |            0 |            0 |            0 |            0 |            0 |            0 |            0 |            0 |            0 |            0 |            0 |            0 |            0 |            0 |            0 |            0 |            0 |            0 |            0 |            0 |            0 |            0 |            0 |            0 |            0 |            0 |            0 |            0 |            0 |            0 |            0 |            0 |            0 |            0 |            0 |            0 |            0 |            0 |            0 |            0 |            0 |            0 |
dl1.miss_rate                               0.1073 |       0.1073 |       0.0862 |       0.0862 |       0.1108 |       0.1108 |       0.0865 |       0.0865 |       0.1131 |       0.1131 |       0.0862 |       0.0862 |       0.1128 |       0.1128 |       0.0859 |       0.0859 |       0.1148 |       0.1148 |       0.0857 |       0.0857 |       0.1204 |       0.1204 |       0.0857 |       0.0857 |       0.1252 |       0.1252 |       0.0858 |       0.0858 |       0.1298 |       0.1298 |       0.0857 |       0.0857 |       0.1260 |       0.1260 |       0.0857 |       0.0857 |       0.1204 |       0.1204 |       0.0857 |       0.0857 |       0.1187 |       0.1187 |       0.0857 |       0.0857 |
dl1.repl_rate                               0.1059 |       0.1059 |       0.0848 |       0.0848 |       0.1101 |       0.1101 |       0.0858 |       0.0858 |       0.1127 |       0.1127 |       0.0858 |       0.0858 |       0.1126 |       0.1126 |       0.0857 |       0.0857 |       0.1147 |       0.1147 |       0.0856 |       0.0856 |       0.1204 |       0.1204 |       0.0857 |       0.0857 |       0.1252 |       0.1252 |       0.0857 |       0.0857 |       0.1298 |       0.1298 |       0.0857 |       0.0857 |       0.1260 |       0.1260 |       0.0857 |       0.0857 |       0.1204 |       0.1204 |       0.0857 |       0.0857 |       0.1187 |       0.1187 |       0.0857 |       0.0857 |
dl1.wb_rate                                 0.0736 |       0.0736 |       0.0532 |       0.0532 |       0.0763 |       0.0763 |       0.0528 |       0.0528 |       0.0782 |       0.0782 |       0.0522 |       0.0522 |       0.0778 |       0.0778 |       0.0519 |       0.0519 |       0.0798 |       0.0798 |       0.0517 |       0.0517 |       0.0854 |       0.0854 |       0.0516 |       0.0516 |       0.0902 |       0.0902 |       0.0517 |       0.0517 |       0.0947 |       0.0947 |       0.0516 |       0.0516 |       0.0909 |       0.0909 |       0.0516 |       0.0516 |       0.0853 |       0.0853 |       0.0516 |       0.0516 |       0.0837 |       0.0837 |       0.0517 |       0.0517 |
dl1.inv_rate                                0.0000 |       0.0000 |       0.0000 |       0.0000 |       0.0000 |       0.0000 |       0.0000 |       0.0000 |       0.0000 |       0.0000 |       0.0000 |       0.0000 |       0.0000 |       0.0000 |       0.0000 |       0.0000 |       0.0000 |       0.0000 |       0.0000 |       0.0000 |       0.0000 |       0.0000 |       0.0000 |       0.0000 |       0.0000 |       0.0000 |       0.0000 |       0.0000 |       0.0000 |       0.0000 |       0.0000 |       0.0000 |       0.0000 |       0.0000 |       0.0000 |       0.0000 |       0.0000 |       0.0000 |       0.0000 |       0.0000 |       0.0000 |       0.0000 |       0.0000 |       0.0000 |
dl2.accesses                                 34451 |        34451 |        26578 |        26578 |        69357 |        69357 |        51693 |        51693 |       139889 |       139889 |       101237 |       101237 |       276793 |       276793 |       200109 |       200109 |       563129 |       563129 |       397620 |       397620 |      1189188 |      1189188 |       793616 |       793616 |      2486899 |      2486899 |      1586814 |      1586814 |      5182613 |      5182613 |      3168870 |      3168870 |     10012216 |     10012216 |      6339564 |      6339564 |     18983774 |     18983774 |     12678554 |     12678554 |     37359924 |     37359924 |     25362420 |     25362420 |
dl2.hits                                     32605 |        32605 |        24741 |        24741 |        66494 |        66494 |        48842 |        48842 |       134967 |       134967 |        96333 |        96333 |       267784 |       267784 |       191113 |       191113 |       545927 |       545927 |       380432 |       380432 |      1155604 |      1155604 |       760045 |       760045 |      2420547 |      2394924 |      1520475 |      1515984 |      5025206 |      4313516 |      3031586 |      1826918 |      8289571 |      7264003 |      3656207 |      3601128 |     13485949 |     13401665 |      7203663 |      7177812 |     26237513 |     26039116 |     14363292 |     14350532 |
dl2.misses                                    1846 |         1846 |         1837 |         1837 |         2863 |         2863 |         2851 |         2851 |         4922 |         4922 |         4904 |         4904 |         9009 |         9009 |         8996 |         8996 |        17202 |        17202 |        17188 |        17188 |        33584 |        33584 |        33571 |        33571 |        66352 |        91975 |        66339 |        70830 |       157407 |       869097 |       137284 |      1341952 |      1722645 |      2748213 |      2683357 |      2738436 |      5497825 |      5582109 |      5474891 |      5500742 |     11122411 |     11320808 |     10999128 |     11011888 |
dl2.replacements                               206 |          206 |            0 |            0 |          223 |          223 |            0 |            0 |          254 |          254 |            0 |            0 |          245 |          245 |            0 |            0 |          246 |          246 |            0 |            0 |          245 |          245 |            0 |            0 |          245 |        27571 |            0 |         5294 |        27467 |       803561 |         6212 |      1276416 |      1591573 |      2682677 |      2552285 |      2672900 |      5366753 |      5516573 |      5343819 |      5435206 |     10991339 |     11255272 |     10868056 |     10946352 |
dl2.writebacks                                 135 |          135 |            0 |            0 |          141 |          141 |            0 |            0 |          166 |          166 |            0 |            0 |          162 |          162 |            0 |            0 |          162 |          162 |            0 |            0 |          162 |          162 |            0 |            0 |          162 |        17303 |            0 |         4932 |        17244 |       530484 |         5855 |       558566 |      1055575 |      1146096 |      1116381 |      1149250 |      2270931 |      2381038 |      2296874 |      2329834 |      4728137 |      4968989 |      4657850 |      4691023 |
dl2.invalidations                                0 |            0 |            0 |            0 |            0 |            0 |            0 |            0 |            0 |            0 |            0 |            0 |            0 |            0 |            0 |            0 |            0 |            0 |            0 |            0 |            0 |            0 |            0 |            0 |            0 |            0 |            0 |            0 |            0 |            0 |            0 |            0 |            0 |            0 |            0 |            0 |            0 |            0 |            0 |            0 |            0 |            0 |            0 |            0 |
dl2.miss_rate                               0.0536 |       0.0536 |       0.0691 |       0.0691 |       0.0413 |       0.0413 |       0.0552 |       0.0552 |       0.0352 |       0.0352 |       0.0484 |       0.0484 |       0.0325 |       0.0325 |       0.0450 |       0.0450 |       0.0305 |       0.0305 |       0.0432 |       0.0432 |       0.0282 |       0.0282 |       0.0423 |       0.0423 |       0.0267 |       0.0370 |       0.0418 |       0.0446 |       0.0304 |       0.1677 |       0.0433 |       0.4235 |       0.1721 |       0.2745 |       0.4233 |       0.4320 |       0.2896 |       0.2940 |       0.4318 |       0.4339 |       0.2977 |       0.3030 |       0.4337 |       0.4342 |
dl2.repl_rate                               0.0060 |       0.0060 |       0.0000 |       0.0000 |       0.0032 |       0.0032 |       0.0000 |       0.0000 |       0.0018 |       0.0018 |       0.0000 |       0.0000 |       0.0009 |       0.0009 |       0.0000 |       0.0000 |       0.0004 |       0.0004 |       0.0000 |       0.0000 |       0.0002 |       0.0002 |       0.0000 |       0.0000 |       0.0001 |       0.0111 |       0.0000 |       0.0033 |       0.0053 |       0.1550 |       0.0020 |       0.4028 |       0.1590 |       0.2679 |       0.4026 |       0.4216 |       0.2827 |       0.2906 |       0.4215 |       0.4287 |       0.2942 |       0.3013 |       0.4285 |       0.4316 |
dl2.wb_rate                                 0.0039 |       0.0039 |       0.0000 |       0.0000 |       0.0020 |       0.0020 |       0.0000 |       0.0000 |       0.0012 |       0.0012 |       0.0000 |       0.0000 |       0.0006 |       0.0006 |       0.0000 |       0.0000 |       0.0003 |       0.0003 |       0.0000 |       0.0000 |       0.0001 |       0.0001 |       0.0000 |       0.0000 |       0.0001 |       0.0070 |       0.0000 |       0.0031 |       0.0033 |       0.1024 |       0.0018 |       0.1763 |       0.1054 |       0.1145 |       0.1761 |       0.1813 |       0.1196 |       0.1254 |       0.1812 |       0.1838 |       0.1266 |       0.1330 |       0.1837 |       0.1850 |
dl2.inv_rate                                0.0000 |       0.0000 |       0.0000 |       0.0000 |       0.0000 |       0.0000 |       0.0000 |       0.0000 |       0.0000 |       0.0000 |       0.0000 |       0.0000 |       0.0000 |       0.0000 |       0.0000 |       0.0000 |       0.0000 |       0.0000 |       0.0000 |       0.0000 |       0.0000 |       0.0000 |       0.0000 |       0.0000 |       0.0000 |       0.0000 |       0.0000 |       0.0000 |       0.0000 |       0.0000 |       0.0000 |       0.0000 |       0.0000 |       0.0000 |       0.0000 |       0.0000 |       0.0000 |       0.0000 |       0.0000 |       0.0000 |       0.0000 |       0.0000 |       0.0000 |       0.0000 |
itlb.accesses                               431108 |       431108 |       431108 |       431108 |       849042 |       849042 |       849042 |       849042 |      1684628 |      1684628 |      1684628 |      1684628 |      3355797 |      3355797 |      3355797 |      3355797 |      6698133 |      6698133 |      6698133 |      6698133 |     13382806 |     13382806 |     13382806 |     13382806 |     26752150 |     26752150 |     26752150 |     26752150 |     53490838 |     53490838 |     53490838 |     53490838 |    106980690 |    106980690 |    106980690 |    106980690 |    213944666 |    213944666 |    213944666 |    213944666 |    427872610 |    427872610 |    427872610 |    427872610 |
itlb.hits                                   431097 |       431097 |       431097 |       431097 |       849032 |       849032 |       849032 |       849032 |      1684618 |      1684618 |      1684618 |      1684618 |      3355787 |      3355787 |      3355787 |      3355787 |      6698123 |      6698123 |      6698123 |      6698123 |     13382796 |     13382796 |     13382796 |     13382796 |     26752140 |     26752140 |     26752140 |     26752140 |     53490828 |     53490828 |     53490828 |     53490828 |    106980680 |    106980680 |    106980680 |    106980680 |    213944656 |    213944656 |    213944656 |    213944656 |    427872600 |    427872600 |    427872600 |    427872600 |
itlb.misses                                     11 |           11 |           11 |           11 |           10 |           10 |           10 |           10 |           10 |           10 |           10 |           10 |           10 |           10 |           10 |           10 |           10 |           10 |           10 |           10 |           10 |           10 |           10 |           10 |           10 |           10 |           10 |           10 |           10 |           10 |           10 |           10 |           10 |           10 |           10 |           10 |           10 |           10 |           10 |           10 |           10 |           10 |           10 |           10 |
itlb.replacements                                0 |            0 |            0 |            0 |            0 |            0 |            0 |            0 |            0 |            0 |            0 |            0 |            0 |            0 |            0 |            0 |            0 |            0 |            0 |            0 |            0 |            0 |            0 |            0 |            0 |            0 |            0 |            0 |            0 |            0 |            0 |            0 |            0 |            0 |            0 |            0 |            0 |            0 |            0 |            0 |            0 |            0 |            0 |            0 |
itlb.writebacks                                  0 |            0 |            0 |            0 |            0 |            0 |            0 |            0 |            0 |            0 |            0 |            0 |            0 |            0 |            0 |            0 |            0 |            0 |            0 |            0 |            0 |            0 |            0 |            0 |            0 |            0 |            0 |            0 |            0 |            0 |            0 |            0 |            0 |            0 |            0 |            0 |            0 |            0 |            0 |            0 |            0 |            0 |            0 |            0 |
itlb.invalidations                               0 |            0 |            0 |            0 |            0 |            0 |            0 |            0 |            0 |            0 |            0 |            0 |            0 |            0 |            0 |            0 |            0 |            0 |            0 |            0 |            0 |            0 |            0 |            0 |            0 |            0 |            0 |            0 |            0 |            0 |            0 |            0 |            0 |            0 |            0 |            0 |            0 |            0 |            0 |            0 |            0 |            0 |            0 |            0 |
itlb.miss_rate                              0.0000 |       0.0000 |       0.0000 |       0.0000 |       0.0000 |       0.0000 |       0.0000 |       0.0000 |       0.0000 |       0.0000 |       0.0000 |       0.0000 |       0.0000 |       0.0000 |       0.0000 |       0.0000 |       0.0000 |       0.0000 |       0.0000 |       0.0000 |       0.0000 |       0.0000 |       0.0000 |       0.0000 |       0.0000 |       0.0000 |       0.0000 |       0.0000 |       0.0000 |       0.0000 |       0.0000 |       0.0000 |       0.0000 |       0.0000 |       0.0000 |       0.0000 |       0.0000 |       0.0000 |       0.0000 |       0.0000 |       0.0000 |       0.0000 |       0.0000 |       0.0000 |
itlb.repl_rate                              0.0000 |       0.0000 |       0.0000 |       0.0000 |       0.0000 |       0.0000 |       0.0000 |       0.0000 |       0.0000 |       0.0000 |       0.0000 |       0.0000 |       0.0000 |       0.0000 |       0.0000 |       0.0000 |       0.0000 |       0.0000 |       0.0000 |       0.0000 |       0.0000 |       0.0000 |       0.0000 |       0.0000 |       0.0000 |       0.0000 |       0.0000 |       0.0000 |       0.0000 |       0.0000 |       0.0000 |       0.0000 |       0.0000 |       0.0000 |       0.0000 |       0.0000 |       0.0000 |       0.0000 |       0.0000 |       0.0000 |       0.0000 |       0.0000 |       0.0000 |       0.0000 |
itlb.wb_rate                                0.0000 |       0.0000 |       0.0000 |       0.0000 |       0.0000 |       0.0000 |       0.0000 |       0.0000 |       0.0000 |       0.0000 |       0.0000 |       0.0000 |       0.0000 |       0.0000 |       0.0000 |       0.0000 |       0.0000 |       0.0000 |       0.0000 |       0.0000 |       0.0000 |       0.0000 |       0.0000 |       0.0000 |       0.0000 |       0.0000 |       0.0000 |       0.0000 |       0.0000 |       0.0000 |       0.0000 |       0.0000 |       0.0000 |       0.0000 |       0.0000 |       0.0000 |       0.0000 |       0.0000 |       0.0000 |       0.0000 |       0.0000 |       0.0000 |       0.0000 |       0.0000 |
itlb.inv_rate                               0.0000 |       0.0000 |       0.0000 |       0.0000 |       0.0000 |       0.0000 |       0.0000 |       0.0000 |       0.0000 |       0.0000 |       0.0000 |       0.0000 |       0.0000 |       0.0000 |       0.0000 |       0.0000 |       0.0000 |       0.0000 |       0.0000 |       0.0000 |       0.0000 |       0.0000 |       0.0000 |       0.0000 |       0.0000 |       0.0000 |       0.0000 |       0.0000 |       0.0000 |       0.0000 |       0.0000 |       0.0000 |       0.0000 |       0.0000 |       0.0000 |       0.0000 |       0.0000 |       0.0000 |       0.0000 |       0.0000 |       0.0000 |       0.0000 |       0.0000 |       0.0000 |
dtlb.accesses                               188135 |       188135 |       188135 |       188135 |       368403 |       368403 |       368403 |       368403 |       728851 |       728851 |       728851 |       728851 |      1449747 |      1449747 |      1449747 |      1449747 |      2891539 |      2891539 |      2891539 |      2891539 |      5775123 |      5775123 |      5775123 |      5775123 |     11542291 |     11542291 |     11542291 |     11542291 |     23076627 |     23076627 |     23076627 |     23076627 |     46154561 |     46154561 |     46154561 |     46154561 |     92298049 |     92298049 |     92298049 |     92298049 |    184585025 |    184585025 |    184585025 |    184585025 |
dtlb.hits                                   188120 |       188120 |       188120 |       188120 |       368380 |       368380 |       368380 |       368380 |       728812 |       728812 |       728812 |       728812 |      1449676 |      1449676 |      1449676 |      1449676 |      2891373 |      2891373 |      2891373 |      2891373 |      5763610 |      5763610 |      5763610 |      5763610 |     11014333 |     11014333 |     11014333 |     11014333 |     21736729 |     21736729 |     21736729 |     21736729 |     42893847 |     42893847 |     42893847 |     42893847 |     85094675 |     85094675 |     85094675 |     85094675 |    169164361 |    169164361 |    169164361 |    169164361 |
dtlb.misses                                     15 |           15 |           15 |           15 |           23 |           23 |           23 |           23 |           39 |           39 |           39 |           39 |           71 |           71 |           71 |           71 |          166 |          166 |          166 |          166 |        11513 |        11513 |        11513 |        11513 |       527958 |       527958 |       527958 |       527958 |      1339898 |      1339898 |      1339898 |      1339898 |      3260714 |      3260714 |      3260714 |      3260714 |      7203374 |      7203374 |      7203374 |      7203374 |     15420664 |     15420664 |     15420664 |     15420664 |
dtlb.replacements                                0 |            0 |            0 |            0 |            0 |            0 |            0 |            0 |            0 |            0 |            0 |            0 |            0 |            0 |            0 |            0 |           38 |           38 |           38 |           38 |        11385 |        11385 |        11385 |        11385 |       527830 |       527830 |       527830 |       527830 |      1339770 |      1339770 |      1339770 |      1339770 |      3260586 |      3260586 |      3260586 |      3260586 |      7203246 |      7203246 |      7203246 |      7203246 |     15420536 |     15420536 |     15420536 |     15420536 |
dtlb.writebacks                                  0 |            0 |            0 |            0 |            0 |            0 |            0 |            0 |            0 |            0 |            0 |            0 |            0 |            0 |            0 |            0 |           27 |           27 |           27 |           27 |        10249 |        10249 |        10249 |        10249 |       524910 |       524910 |       524910 |       524910 |      1333728 |      1333728 |      1333728 |      1333728 |      3248365 |      3248365 |      3248365 |      3248365 |      7178732 |      7178732 |      7178732 |      7178732 |     15371447 |     15371447 |     15371447 |     15371447 |
dtlb.invalidations                               0 |            0 |            0 |            0 |            0 |            0 |            0 |            0 |            0 |            0 |            0 |            0 |            0 |            0 |            0 |            0 |            0 |            0 |            0 |            0 |            0 |            0 |            0 |            0 |            0 |            0 |            0 |            0 |            0 |            0 |            0 |            0 |            0 |            0 |            0 |            0 |            0 |            0 |            0 |            0 |            0 |            0 |            0 |            0 |
dtlb.miss_rate                              0.0001 |       0.0001 |       0.0001 |       0.0001 |       0.0001 |       0.0001 |       0.0001 |       0.0001 |       0.0001 |       0.0001 |       0.0001 |       0.0001 |       0.0000 |       0.0000 |       0.0000 |       0.0000 |       0.0001 |       0.0001 |       0.0001 |       0.0001 |       0.0020 |       0.0020 |       0.0020 |       0.0020 |       0.0457 |       0.0457 |       0.0457 |       0.0457 |       0.0581 |       0.0581 |       0.0581 |       0.0581 |       0.0706 |       0.0706 |       0.0706 |       0.0706 |       0.0780 |       0.0780 |       0.0780 |       0.0780 |       0.0835 |       0.0835 |       0.0835 |       0.0835 |
dtlb.repl_rate                              0.0000 |       0.0000 |       0.0000 |       0.0000 |       0.0000 |       0.0000 |       0.0000 |       0.0000 |       0.0000 |       0.0000 |       0.0000 |       0.0000 |       0.0000 |       0.0000 |       0.0000 |       0.0000 |       0.0000 |       0.0000 |       0.0000 |       0.0000 |       0.0020 |       0.0020 |       0.0020 |       0.0020 |       0.0457 |       0.0457 |       0.0457 |       0.0457 |       0.0581 |       0.0581 |       0.0581 |       0.0581 |       0.0706 |       0.0706 |       0.0706 |       0.0706 |       0.0780 |       0.0780 |       0.0780 |       0.0780 |       0.0835 |       0.0835 |       0.0835 |       0.0835 |
dtlb.wb_rate                                0.0000 |       0.0000 |       0.0000 |       0.0000 |       0.0000 |       0.0000 |       0.0000 |       0.0000 |       0.0000 |       0.0000 |       0.0000 |       0.0000 |       0.0000 |       0.0000 |       0.0000 |       0.0000 |       0.0000 |       0.0000 |       0.0000 |       0.0000 |       0.0018 |       0.0018 |       0.0018 |       0.0018 |       0.0455 |       0.0455 |       0.0455 |       0.0455 |       0.0578 |       0.0578 |       0.0578 |       0.0578 |       0.0704 |       0.0704 |       0.0704 |       0.0704 |       0.0778 |       0.0778 |       0.0778 |       0.0778 |       0.0833 |       0.0833 |       0.0833 |       0.0833 |
dtlb.inv_rate                               0.0000 |       0.0000 |       0.0000 |       0.0000 |       0.0000 |       0.0000 |       0.0000 |       0.0000 |       0.0000 |       0.0000 |       0.0000 |       0.0000 |       0.0000 |       0.0000 |       0.0000 |       0.0000 |       0.0000 |       0.0000 |       0.0000 |       0.0000 |       0.0000 |       0.0000 |       0.0000 |       0.0000 |       0.0000 |       0.0000 |       0.0000 |       0.0000 |       0.0000 |       0.0000 |       0.0000 |       0.0000 |       0.0000 |       0.0000 |       0.0000 |       0.0000 |       0.0000 |       0.0000 |       0.0000 |       0.0000 |       0.0000 |       0.0000 |       0.0000 |       0.0000 |
ld_text_base                            0x00400000 |   0x00400000 |   0x00400000 |   0x00400000 |   0x00400000 |   0x00400000 |   0x00400000 |   0x00400000 |   0x00400000 |   0x00400000 |   0x00400000 |   0x00400000 |   0x00400000 |   0x00400000 |   0x00400000 |   0x00400000 |   0x00400000 |   0x00400000 |   0x00400000 |   0x00400000 |   0x00400000 |   0x00400000 |   0x00400000 |   0x00400000 |   0x00400000 |   0x00400000 |   0x00400000 |   0x00400000 |   0x00400000 |   0x00400000 |   0x00400000 |   0x00400000 |   0x00400000 |   0x00400000 |   0x00400000 |   0x00400000 |   0x00400000 |   0x00400000 |   0x00400000 |   0x00400000 |   0x00400000 |   0x00400000 |   0x00400000 |   0x00400000 |
ld_text_size                                 73136 |        73136 |        73136 |        73136 |        73168 |        73168 |        73168 |        73168 |        73184 |        73184 |        73184 |        73184 |        73200 |        73200 |        73200 |        73200 |        73200 |        73200 |        73200 |        73200 |        73200 |        73200 |        73200 |        73200 |        73200 |        73200 |        73200 |        73200 |        73200 |        73200 |        73200 |        73200 |        73200 |        73200 |        73200 |        73200 |        73200 |        73200 |        73200 |        73200 |        73200 |        73200 |        73200 |        73200 |
ld_data_base                            0x10000000 |   0x10000000 |   0x10000000 |   0x10000000 |   0x10000000 |   0x10000000 |   0x10000000 |   0x10000000 |   0x10000000 |   0x10000000 |   0x10000000 |   0x10000000 |   0x10000000 |   0x10000000 |   0x10000000 |   0x10000000 |   0x10000000 |   0x10000000 |   0x10000000 |   0x10000000 |   0x10000000 |   0x10000000 |   0x10000000 |   0x10000000 |   0x10000000 |   0x10000000 |   0x10000000 |   0x10000000 |   0x10000000 |   0x10000000 |   0x10000000 |   0x10000000 |   0x10000000 |   0x10000000 |   0x10000000 |   0x10000000 |   0x10000000 |   0x10000000 |   0x10000000 |   0x10000000 |   0x10000000 |   0x10000000 |   0x10000000 |   0x10000000 |
ld_data_size                                  8192 |         8192 |         8192 |         8192 |         8192 |         8192 |         8192 |         8192 |         8192 |         8192 |         8192 |         8192 |         8192 |         8192 |         8192 |         8192 |         8192 |         8192 |         8192 |         8192 |         8192 |         8192 |         8192 |         8192 |         8192 |         8192 |         8192 |         8192 |         8192 |         8192 |         8192 |         8192 |         8192 |         8192 |         8192 |         8192 |         8192 |         8192 |         8192 |         8192 |         8192 |         8192 |         8192 |         8192 |
ld_stack_base                           0x7fffc000 |   0x7fffc000 |   0x7fffc000 |   0x7fffc000 |   0x7fffc000 |   0x7fffc000 |   0x7fffc000 |   0x7fffc000 |   0x7fffc000 |   0x7fffc000 |   0x7fffc000 |   0x7fffc000 |   0x7fffc000 |   0x7fffc000 |   0x7fffc000 |   0x7fffc000 |   0x7fffc000 |   0x7fffc000 |   0x7fffc000 |   0x7fffc000 |   0x7fffc000 |   0x7fffc000 |   0x7fffc000 |   0x7fffc000 |   0x7fffc000 |   0x7fffc000 |   0x7fffc000 |   0x7fffc000 |   0x7fffc000 |   0x7fffc000 |   0x7fffc000 |   0x7fffc000 |   0x7fffc000 |   0x7fffc000 |   0x7fffc000 |   0x7fffc000 |   0x7fffc000 |   0x7fffc000 |   0x7fffc000 |   0x7fffc000 |   0x7fffc000 |   0x7fffc000 |   0x7fffc000 |   0x7fffc000 |
ld_stack_size                                16384 |        16384 |        16384 |        16384 |        16384 |        16384 |        16384 |        16384 |        16384 |        16384 |        16384 |        16384 |        16384 |        16384 |        16384 |        16384 |        16384 |        16384 |        16384 |        16384 |        16384 |        16384 |        16384 |        16384 |        16384 |        16384 |        16384 |        16384 |        16384 |        16384 |        16384 |        16384 |        16384 |        16384 |        16384 |        16384 |        16384 |        16384 |        16384 |        16384 |        16384 |        16384 |        16384 |        16384 |
ld_prog_entry                           0x00400140 |   0x00400140 |   0x00400140 |   0x00400140 |   0x00400140 |   0x00400140 |   0x00400140 |   0x00400140 |   0x00400140 |   0x00400140 |   0x00400140 |   0x00400140 |   0x00400140 |   0x00400140 |   0x00400140 |   0x00400140 |   0x00400140 |   0x00400140 |   0x00400140 |   0x00400140 |   0x00400140 |   0x00400140 |   0x00400140 |   0x00400140 |   0x00400140 |   0x00400140 |   0x00400140 |   0x00400140 |   0x00400140 |   0x00400140 |   0x00400140 |   0x00400140 |   0x00400140 |   0x00400140 |   0x00400140 |   0x00400140 |   0x00400140 |   0x00400140 |   0x00400140 |   0x00400140 |   0x00400140 |   0x00400140 |   0x00400140 |   0x00400140 |
ld_environ_base                         0x7fff8000 |   0x7fff8000 |   0x7fff8000 |   0x7fff8000 |   0x7fff8000 |   0x7fff8000 |   0x7fff8000 |   0x7fff8000 |   0x7fff8000 |   0x7fff8000 |   0x7fff8000 |   0x7fff8000 |   0x7fff8000 |   0x7fff8000 |   0x7fff8000 |   0x7fff8000 |   0x7fff8000 |   0x7fff8000 |   0x7fff8000 |   0x7fff8000 |   0x7fff8000 |   0x7fff8000 |   0x7fff8000 |   0x7fff8000 |   0x7fff8000 |   0x7fff8000 |   0x7fff8000 |   0x7fff8000 |   0x7fff8000 |   0x7fff8000 |   0x7fff8000 |   0x7fff8000 |   0x7fff8000 |   0x7fff8000 |   0x7fff8000 |   0x7fff8000 |   0x7fff8000 |   0x7fff8000 |   0x7fff8000 |   0x7fff8000 |   0x7fff8000 |   0x7fff8000 |   0x7fff8000 |   0x7fff8000 |
ld_target_big_endian                             0 |            0 |            0 |            0 |            0 |            0 |            0 |            0 |            0 |            0 |            0 |            0 |            0 |            0 |            0 |            0 |            0 |            0 |            0 |            0 |            0 |            0 |            0 |            0 |            0 |            0 |            0 |            0 |            0 |            0 |            0 |            0 |            0 |            0 |            0 |            0 |            0 |            0 |            0 |            0 |            0 |            0 |            0 |            0 |
mem.page_count                                  33 |           33 |           33 |           33 |           41 |           41 |           41 |           41 |           57 |           57 |           57 |           57 |           89 |           89 |           89 |           89 |          153 |          153 |          153 |          153 |          281 |          281 |          281 |          281 |          537 |          537 |          537 |          537 |         1049 |         1049 |         1049 |         1049 |         2079 |         2079 |         2079 |         2079 |         4133 |         4133 |         4133 |         4133 |         8241 |         8241 |         8241 |         8241 |
mem.page_mem                                  132k |         132k |         132k |         132k |         164k |         164k |         164k |         164k |         228k |         228k |         228k |         228k |         356k |         356k |         356k |         356k |         612k |         612k |         612k |         612k |        1124k |        1124k |        1124k |        1124k |        2148k |        2148k |        2148k |        2148k |        4196k |        4196k |        4196k |        4196k |        8316k |        8316k |        8316k |        8316k |       16532k |       16532k |       16532k |       16532k |       32964k |       32964k |       32964k |       32964k |
mem.ptab_misses                                 33 |           33 |           33 |           33 |           41 |           41 |           41 |           41 |           57 |           57 |           57 |           57 |           89 |           89 |           89 |           89 |          153 |          153 |          153 |          153 |          281 |          281 |          281 |          281 |          537 |          537 |          537 |          537 |         1049 |         1049 |         1049 |         1049 |        20514 |        20514 |        20514 |        20514 |        20524 |        20524 |        20524 |        20524 |        24632 |        24632 |        24632 |        24632 |
mem.ptab_accesses                          2554108 |      2554108 |      2554108 |      2554108 |      4586572 |      4586572 |      4586572 |      4586572 |      8649908 |      8649908 |      8649908 |      8649908 |     16776472 |     16776472 |     16776472 |     16776472 |     33029400 |     33029400 |     33029400 |     33029400 |     65535260 |     65535260 |     65535260 |     65535260 |    130546972 |    130546972 |    130546972 |    130546972 |    260570396 |    260570396 |    260570396 |    260570396 |    520685672 |    520685672 |    520685672 |    520685672 |   1040828552 |   1040828552 |   1040828552 |   1040828552 |   2081114280 |   2081114280 |   2081114280 |   2081114280 |
mem.ptab_miss_rate                          0.0000 |       0.0000 |       0.0000 |       0.0000 |       0.0000 |       0.0000 |       0.0000 |       0.0000 |       0.0000 |       0.0000 |       0.0000 |       0.0000 |       0.0000 |       0.0000 |       0.0000 |       0.0000 |       0.0000 |       0.0000 |       0.0000 |       0.0000 |       0.0000 |       0.0000 |       0.0000 |       0.0000 |       0.0000 |       0.0000 |       0.0000 |       0.0000 |       0.0000 |       0.0000 |       0.0000 |       0.0000 |       0.0000 |       0.0000 |       0.0000 |       0.0000 |       0.0000 |       0.0000 |       0.0000 |       0.0000 |       0.0000 |       0.0000 |       0.0000 |       0.0000 |
-------------------------------------------------------------------------------------------------
sim-bpred                                     4096 |         4096 |         4096 |         4096 |         4096 |         4096 |         4096 |         8192 |         8192 |         8192 |         8192 |         8192 |         8192 |         8192 |        16384 |        16384 |        16384 |        16384 |        16384 |        16384 |        16384 |        32768 |        32768 |        32768 |        32768 |        32768 |        32768 |        32768 |        65536 |        65536 |        65536 |        65536 |        65536 |        65536 |        65536 |       131072 |       131072 |       131072 |       131072 |       131072 |       131072 |       131072 |       262144 |       262144 |       262144 |       262144 |       262144 |       262144 |       262144 |       524288 |       524288 |       524288 |       524288 |       524288 |       524288 |       524288 |      1048576 |      1048576 |      1048576 |      1048576 |      1048576 |      1048576 |      1048576 |      2097152 |      2097152 |      2097152 |      2097152 |      2097152 |      2097152 |      2097152 |      4194304 |      4194304 |      4194304 |      4194304 |      4194304 |      4194304 |      4194304 |
-bpred bimod -bpred:bimod 512
-bpred bimod -bpred:bimod 1024
-bpred bimod -bpred:bimod 2048
-bpred 2lev -bpred:2lev 1 512 10 1
-bpred 2lev -bpred:2lev 1 1024 10 1
-bpred 2lev -bpred:2lev 1 2048 10 1
-bpred 2lev -bpred:2lev 1 4096 10 1
-------------------------------------------------------------------------------------------------
sim_num_insn                                431108 |       431108 |       431108 |       431108 |       431108 |       431108 |       431108 |       849042 |       849042 |       849042 |       849042 |       849042 |       849042 |       849042 |      1684628 |      1684628 |      1684628 |      1684628 |      1684628 |      1684628 |      1684628 |      3355797 |      3355797 |      3355797 |      3355797 |      3355797 |      3355797 |      3355797 |      6698133 |      6698133 |      6698133 |      6698133 |      6698133 |      6698133 |      6698133 |     13382806 |     13382806 |     13382806 |     13382806 |     13382806 |     13382806 |     13382806 |     26752150 |     26752150 |     26752150 |     26752150 |     26752150 |     26752150 |     26752150 |     53490838 |     53490838 |     53490838 |     53490838 |     53490838 |     53490838 |     53490838 |    106980690 |    106980690 |    106980690 |    106980690 |    106980690 |    106980690 |    106980690 |    213944666 |    213944666 |    213944666 |    213944666 |    213944666 |    213944666 |    213944666 |    427872610 |    427872610 |    427872610 |    427872610 |    427872610 |    427872610 |    427872610 |
sim_num_refs                                171669 |       171669 |       171669 |       171669 |       171669 |       171669 |       171669 |       335553 |       335553 |       335553 |       335553 |       335553 |       335553 |       335553 |       663233 |       663233 |       663233 |       663233 |       663233 |       663233 |       663233 |      1318593 |      1318593 |      1318593 |      1318593 |      1318593 |      1318593 |      1318593 |      2629313 |      2629313 |      2629313 |      2629313 |      2629313 |      2629313 |      2629313 |      5250753 |      5250753 |      5250753 |      5250753 |      5250753 |      5250753 |      5250753 |     10493633 |     10493633 |     10493633 |     10493633 |     10493633 |     10493633 |     10493633 |     20979393 |     20979393 |     20979393 |     20979393 |     20979393 |     20979393 |     20979393 |     41960175 |     41960175 |     41960175 |     41960175 |     41960175 |     41960175 |     41960175 |     83909359 |     83909359 |     83909359 |     83909359 |     83909359 |     83909359 |     83909359 |    167807727 |    167807727 |    167807727 |    167807727 |    167807727 |    167807727 |    167807727 |
sim_elapsed_time                                 1 |            1 |            1 |            1 |            1 |            1 |            1 |            1 |            1 |            1 |            1 |            1 |            1 |            1 |            1 |            1 |            1 |            1 |            1 |            1 |            1 |            1 |            1 |            1 |            1 |            1 |            1 |            1 |            1 |            1 |            1 |            1 |            1 |            1 |            1 |            1 |            1 |            2 |            1 |            1 |            2 |            1 |            3 |            3 |            2 |            2 |            3 |            3 |            3 |            6 |            5 |            6 |            5 |            5 |            6 |            5 |           11 |           11 |           11 |           11 |           11 |           11 |           11 |           22 |           22 |           22 |           22 |           23 |           22 |           22 |           44 |           44 |           44 |           44 |           45 |           44 |           45 |
sim_inst_rate                          431108.0000 |  431108.0000 |  431108.0000 |  431108.0000 |  431108.0000 |  431108.0000 |  431108.0000 |  849042.0000 |  849042.0000 |  849042.0000 |  849042.0000 |  849042.0000 |  849042.0000 |  849042.0000 | 1684628.0000 | 1684628.0000 | 1684628.0000 | 1684628.0000 | 1684628.0000 | 1684628.0000 | 1684628.0000 | 3355797.0000 | 3355797.0000 | 3355797.0000 | 3355797.0000 | 3355797.0000 | 3355797.0000 | 3355797.0000 | 6698133.0000 | 6698133.0000 | 6698133.0000 | 6698133.0000 | 6698133.0000 | 6698133.0000 | 6698133.0000 |13382806.0000 |13382806.0000 | 6691403.0000 |13382806.0000 |13382806.0000 | 6691403.0000 |13382806.0000 | 8917383.3333 | 8917383.3333 |13376075.0000 |13376075.0000 | 8917383.3333 | 8917383.3333 | 8917383.3333 | 8915139.6667 |10698167.6000 | 8915139.6667 |10698167.6000 |10698167.6000 | 8915139.6667 |10698167.6000 | 9725517.2727 | 9725517.2727 | 9725517.2727 | 9725517.2727 | 9725517.2727 | 9725517.2727 | 9725517.2727 | 9724757.5455 | 9724757.5455 | 9724757.5455 | 9724757.5455 | 9301942.0000 | 9724757.5455 | 9724757.5455 | 9724377.5000 | 9724377.5000 | 9724377.5000 | 9724377.5000 | 9508280.2222 | 9724377.5000 | 9508280.2222 |
sim_num_branches                             13414 |        13414 |        13414 |        13414 |        13414 |        13414 |        13414 |        25742 |        25742 |        25742 |        25742 |        25742 |        25742 |        25742 |        50318 |        50318 |        50318 |        50318 |        50318 |        50318 |        50318 |        99470 |        99470 |        99470 |        99470 |        99470 |        99470 |        99470 |       197774 |       197774 |       197774 |       197774 |       197774 |       197774 |       197774 |       394382 |       394382 |       394382 |       394382 |       394382 |       394382 |       394382 |       787598 |       787598 |       787598 |       787598 |       787598 |       787598 |       787598 |      1574030 |      1574030 |      1574030 |      1574030 |      1574030 |      1574030 |      1574030 |      3147687 |      3147687 |      3147687 |      3147687 |      3147687 |      3147687 |      3147687 |      6294186 |      6294186 |      6294186 |      6294186 |      6294186 |      6294186 |      6294186 |     12587181 |     12587181 |     12587181 |     12587181 |     12587181 |     12587181 |     12587181 |
sim_IPB                                    32.1387 |      32.1387 |      32.1387 |      32.1387 |      32.1387 |      32.1387 |      32.1387 |      32.9828 |      32.9828 |      32.9828 |      32.9828 |      32.9828 |      32.9828 |      32.9828 |      33.4796 |      33.4796 |      33.4796 |      33.4796 |      33.4796 |      33.4796 |      33.4796 |      33.7368 |      33.7368 |      33.7368 |      33.7368 |      33.7368 |      33.7368 |      33.7368 |      33.8676 |      33.8676 |      33.8676 |      33.8676 |      33.8676 |      33.8676 |      33.8676 |      33.9336 |      33.9336 |      33.9336 |      33.9336 |      33.9336 |      33.9336 |      33.9336 |      33.9668 |      33.9668 |      33.9668 |      33.9668 |      33.9668 |      33.9668 |      33.9668 |      33.9834 |      33.9834 |      33.9834 |      33.9834 |      33.9834 |      33.9834 |      33.9834 |      33.9871 |      33.9871 |      33.9871 |      33.9871 |      33.9871 |      33.9871 |      33.9871 |      33.9908 |      33.9908 |      33.9908 |      33.9908 |      33.9908 |      33.9908 |      33.9908 |      33.9927 |      33.9927 |      33.9927 |      33.9927 |      33.9927 |      33.9927 |      33.9927 |
bpred_bimod.lookups                          13414 |        13414 |        13414 |xxxxxxxxxxxxx |xxxxxxxxxxxxx |xxxxxxxxxxxxx |xxxxxxxxxxxxx |        25742 |        25742 |        25742 |xxxxxxxxxxxxx |xxxxxxxxxxxxx |xxxxxxxxxxxxx |xxxxxxxxxxxxx |        50318 |        50318 |        50318 |xxxxxxxxxxxxx |xxxxxxxxxxxxx |xxxxxxxxxxxxx |xxxxxxxxxxxxx |        99470 |        99470 |        99470 |xxxxxxxxxxxxx |xxxxxxxxxxxxx |xxxxxxxxxxxxx |xxxxxxxxxxxxx |       197774 |       197774 |       197774 |xxxxxxxxxxxxx |xxxxxxxxxxxxx |xxxxxxxxxxxxx |xxxxxxxxxxxxx |       394382 |       394382 |       394382 |xxxxxxxxxxxxx |xxxxxxxxxxxxx |xxxxxxxxxxxxx |xxxxxxxxxxxxx |       787598 |       787598 |       787598 |xxxxxxxxxxxxx |xxxxxxxxxxxxx |xxxxxxxxxxxxx |xxxxxxxxxxxxx |      1574030 |      1574030 |      1574030 |xxxxxxxxxxxxx |xxxxxxxxxxxxx |xxxxxxxxxxxxx |xxxxxxxxxxxxx |      3147687 |      3147687 |      3147687 |xxxxxxxxxxxxx |xxxxxxxxxxxxx |xxxxxxxxxxxxx |xxxxxxxxxxxxx |      6294186 |      6294186 |      6294186 |xxxxxxxxxxxxx |xxxxxxxxxxxxx |xxxxxxxxxxxxx |xxxxxxxxxxxxx |     12587181 |     12587181 |     12587181 |
bpred_bimod.updates                          13414 |        13414 |        13414 |xxxxxxxxxxxxx |xxxxxxxxxxxxx |xxxxxxxxxxxxx |xxxxxxxxxxxxx |        25742 |        25742 |        25742 |xxxxxxxxxxxxx |xxxxxxxxxxxxx |xxxxxxxxxxxxx |xxxxxxxxxxxxx |        50318 |        50318 |        50318 |xxxxxxxxxxxxx |xxxxxxxxxxxxx |xxxxxxxxxxxxx |xxxxxxxxxxxxx |        99470 |        99470 |        99470 |xxxxxxxxxxxxx |xxxxxxxxxxxxx |xxxxxxxxxxxxx |xxxxxxxxxxxxx |       197774 |       197774 |       197774 |xxxxxxxxxxxxx |xxxxxxxxxxxxx |xxxxxxxxxxxxx |xxxxxxxxxxxxx |       394382 |       394382 |       394382 |xxxxxxxxxxxxx |xxxxxxxxxxxxx |xxxxxxxxxxxxx |xxxxxxxxxxxxx |       787598 |       787598 |       787598 |xxxxxxxxxxxxx |xxxxxxxxxxxxx |xxxxxxxxxxxxx |xxxxxxxxxxxxx |      1574030 |      1574030 |      1574030 |xxxxxxxxxxxxx |xxxxxxxxxxxxx |xxxxxxxxxxxxx |xxxxxxxxxxxxx |      3147687 |      3147687 |      3147687 |xxxxxxxxxxxxx |xxxxxxxxxxxxx |xxxxxxxxxxxxx |xxxxxxxxxxxxx |      6294186 |      6294186 |      6294186 |xxxxxxxxxxxxx |xxxxxxxxxxxxx |xxxxxxxxxxxxx |xxxxxxxxxxxxx |     12587181 |     12587181 |     12587181 |
bpred_bimod.addr_hits                        13207 |        13208 |        13209 |xxxxxxxxxxxxx |xxxxxxxxxxxxx |xxxxxxxxxxxxx |xxxxxxxxxxxxx |        25527 |        25529 |        25530 |xxxxxxxxxxxxx |xxxxxxxxxxxxx |xxxxxxxxxxxxx |xxxxxxxxxxxxx |        50099 |        50103 |        50107 |xxxxxxxxxxxxx |xxxxxxxxxxxxx |xxxxxxxxxxxxx |xxxxxxxxxxxxx |        99256 |        99258 |        99259 |xxxxxxxxxxxxx |xxxxxxxxxxxxx |xxxxxxxxxxxxx |xxxxxxxxxxxxx |       197560 |       197562 |       197563 |xxxxxxxxxxxxx |xxxxxxxxxxxxx |xxxxxxxxxxxxx |xxxxxxxxxxxxx |       394168 |       394170 |       394171 |xxxxxxxxxxxxx |xxxxxxxxxxxxx |xxxxxxxxxxxxx |xxxxxxxxxxxxx |       787384 |       787386 |       787387 |xxxxxxxxxxxxx |xxxxxxxxxxxxx |xxxxxxxxxxxxx |xxxxxxxxxxxxx |      1573816 |      1573818 |      1573819 |xxxxxxxxxxxxx |xxxxxxxxxxxxx |xxxxxxxxxxxxx |xxxxxxxxxxxxx |      3147450 |      3147451 |      3147451 |xxxxxxxxxxxxx |xxxxxxxxxxxxx |xxxxxxxxxxxxx |xxxxxxxxxxxxx |      6293949 |      6293950 |      6293950 |xxxxxxxxxxxxx |xxxxxxxxxxxxx |xxxxxxxxxxxxx |xxxxxxxxxxxxx |     12586944 |     12586945 |     12586945 |
bpred_bimod.dir_hits                         13302 |        13305 |        13306 |xxxxxxxxxxxxx |xxxxxxxxxxxxx |xxxxxxxxxxxxx |xxxxxxxxxxxxx |        25626 |        25630 |        25631 |xxxxxxxxxxxxx |xxxxxxxxxxxxx |xxxxxxxxxxxxx |xxxxxxxxxxxxx |        50199 |        50204 |        50208 |xxxxxxxxxxxxx |xxxxxxxxxxxxx |xxxxxxxxxxxxx |xxxxxxxxxxxxx |        99355 |        99358 |        99359 |xxxxxxxxxxxxx |xxxxxxxxxxxxx |xxxxxxxxxxxxx |xxxxxxxxxxxxx |       197659 |       197662 |       197663 |xxxxxxxxxxxxx |xxxxxxxxxxxxx |xxxxxxxxxxxxx |xxxxxxxxxxxxx |       394268 |       394271 |       394272 |xxxxxxxxxxxxx |xxxxxxxxxxxxx |xxxxxxxxxxxxx |xxxxxxxxxxxxx |       787484 |       787487 |       787488 |xxxxxxxxxxxxx |xxxxxxxxxxxxx |xxxxxxxxxxxxx |xxxxxxxxxxxxx |      1573916 |      1573919 |      1573920 |xxxxxxxxxxxxx |xxxxxxxxxxxxx |xxxxxxxxxxxxx |xxxxxxxxxxxxx |      3147561 |      3147562 |      3147563 |xxxxxxxxxxxxx |xxxxxxxxxxxxx |xxxxxxxxxxxxx |xxxxxxxxxxxxx |      6294060 |      6294061 |      6294062 |xxxxxxxxxxxxx |xxxxxxxxxxxxx |xxxxxxxxxxxxx |xxxxxxxxxxxxx |     12587055 |     12587056 |     12587057 |
bpred_bimod.misses                             112 |          109 |          108 |xxxxxxxxxxxxx |xxxxxxxxxxxxx |xxxxxxxxxxxxx |xxxxxxxxxxxxx |          116 |          112 |          111 |xxxxxxxxxxxxx |xxxxxxxxxxxxx |xxxxxxxxxxxxx |xxxxxxxxxxxxx |          119 |          114 |          110 |xxxxxxxxxxxxx |xxxxxxxxxxxxx |xxxxxxxxxxxxx |xxxxxxxxxxxxx |          115 |          112 |          111 |xxxxxxxxxxxxx |xxxxxxxxxxxxx |xxxxxxxxxxxxx |xxxxxxxxxxxxx |          115 |          112 |          111 |xxxxxxxxxxxxx |xxxxxxxxxxxxx |xxxxxxxxxxxxx |xxxxxxxxxxxxx |          114 |          111 |          110 |xxxxxxxxxxxxx |xxxxxxxxxxxxx |xxxxxxxxxxxxx |xxxxxxxxxxxxx |          114 |          111 |          110 |xxxxxxxxxxxxx |xxxxxxxxxxxxx |xxxxxxxxxxxxx |xxxxxxxxxxxxx |          114 |          111 |          110 |xxxxxxxxxxxxx |xxxxxxxxxxxxx |xxxxxxxxxxxxx |xxxxxxxxxxxxx |          126 |          125 |          124 |xxxxxxxxxxxxx |xxxxxxxxxxxxx |xxxxxxxxxxxxx |xxxxxxxxxxxxx |          126 |          125 |          124 |xxxxxxxxxxxxx |xxxxxxxxxxxxx |xxxxxxxxxxxxx |xxxxxxxxxxxxx |          126 |          125 |          124 |
bpred_bimod.jr_hits                             61 |           61 |           61 |xxxxxxxxxxxxx |xxxxxxxxxxxxx |xxxxxxxxxxxxx |xxxxxxxxxxxxx |           69 |           69 |           69 |xxxxxxxxxxxxx |xxxxxxxxxxxxx |xxxxxxxxxxxxx |xxxxxxxxxxxxx |           69 |           69 |           69 |xxxxxxxxxxxxx |xxxxxxxxxxxxx |xxxxxxxxxxxxx |xxxxxxxxxxxxx |           69 |           69 |           69 |xxxxxxxxxxxxx |xxxxxxxxxxxxx |xxxxxxxxxxxxx |xxxxxxxxxxxxx |           69 |           69 |           69 |xxxxxxxxxxxxx |xxxxxxxxxxxxx |xxxxxxxxxxxxx |xxxxxxxxxxxxx |           69 |           69 |           69 |xxxxxxxxxxxxx |xxxxxxxxxxxxx |xxxxxxxxxxxxx |xxxxxxxxxxxxx |           69 |           69 |           69 |xxxxxxxxxxxxx |xxxxxxxxxxxxx |xxxxxxxxxxxxx |xxxxxxxxxxxxx |           69 |           69 |           69 |xxxxxxxxxxxxx |xxxxxxxxxxxxx |xxxxxxxxxxxxx |xxxxxxxxxxxxx |           72 |           72 |           72 |xxxxxxxxxxxxx |xxxxxxxxxxxxx |xxxxxxxxxxxxx |xxxxxxxxxxxxx |           72 |           72 |           72 |xxxxxxxxxxxxx |xxxxxxxxxxxxx |xxxxxxxxxxxxx |xxxxxxxxxxxxx |           72 |           72 |           72 |
bpred_bimod.jr_seen                             61 |           61 |           61 |xxxxxxxxxxxxx |xxxxxxxxxxxxx |xxxxxxxxxxxxx |xxxxxxxxxxxxx |           70 |           70 |           70 |xxxxxxxxxxxxx |xxxxxxxxxxxxx |xxxxxxxxxxxxx |xxxxxxxxxxxxx |           70 |           70 |           70 |xxxxxxxxxxxxx |xxxxxxxxxxxxx |xxxxxxxxxxxxx |xxxxxxxxxxxxx |           70 |           70 |           70 |xxxxxxxxxxxxx |xxxxxxxxxxxxx |xxxxxxxxxxxxx |xxxxxxxxxxxxx |           70 |           70 |           70 |xxxxxxxxxxxxx |xxxxxxxxxxxxx |xxxxxxxxxxxxx |xxxxxxxxxxxxx |           70 |           70 |           70 |xxxxxxxxxxxxx |xxxxxxxxxxxxx |xxxxxxxxxxxxx |xxxxxxxxxxxxx |           70 |           70 |           70 |xxxxxxxxxxxxx |xxxxxxxxxxxxx |xxxxxxxxxxxxx |xxxxxxxxxxxxx |           70 |           70 |           70 |xxxxxxxxxxxxx |xxxxxxxxxxxxx |xxxxxxxxxxxxx |xxxxxxxxxxxxx |           73 |           73 |           73 |xxxxxxxxxxxxx |xxxxxxxxxxxxx |xxxxxxxxxxxxx |xxxxxxxxxxxxx |           73 |           73 |           73 |xxxxxxxxxxxxx |xxxxxxxxxxxxx |xxxxxxxxxxxxx |xxxxxxxxxxxxx |           73 |           73 |           73 |
bpred_bimod.jr_non_ras_hits.PP                   0 |            0 |            0 |xxxxxxxxxxxxx |xxxxxxxxxxxxx |xxxxxxxxxxxxx |xxxxxxxxxxxxx |            0 |            0 |            0 |xxxxxxxxxxxxx |xxxxxxxxxxxxx |xxxxxxxxxxxxx |xxxxxxxxxxxxx |            0 |            0 |            0 |xxxxxxxxxxxxx |xxxxxxxxxxxxx |xxxxxxxxxxxxx |xxxxxxxxxxxxx |            0 |            0 |            0 |xxxxxxxxxxxxx |xxxxxxxxxxxxx |xxxxxxxxxxxxx |xxxxxxxxxxxxx |            0 |            0 |            0 |xxxxxxxxxxxxx |xxxxxxxxxxxxx |xxxxxxxxxxxxx |xxxxxxxxxxxxx |            0 |            0 |            0 |xxxxxxxxxxxxx |xxxxxxxxxxxxx |xxxxxxxxxxxxx |xxxxxxxxxxxxx |            0 |            0 |            0 |xxxxxxxxxxxxx |xxxxxxxxxxxxx |xxxxxxxxxxxxx |xxxxxxxxxxxxx |            0 |            0 |            0 |xxxxxxxxxxxxx |xxxxxxxxxxxxx |xxxxxxxxxxxxx |xxxxxxxxxxxxx |            0 |            0 |            0 |xxxxxxxxxxxxx |xxxxxxxxxxxxx |xxxxxxxxxxxxx |xxxxxxxxxxxxx |            0 |            0 |            0 |xxxxxxxxxxxxx |xxxxxxxxxxxxx |xxxxxxxxxxxxx |xxxxxxxxxxxxx |            0 |            0 |            0 |
bpred_bimod.jr_non_ras_seen.PP                   0 |            0 |            0 |xxxxxxxxxxxxx |xxxxxxxxxxxxx |xxxxxxxxxxxxx |xxxxxxxxxxxxx |            0 |            0 |            0 |xxxxxxxxxxxxx |xxxxxxxxxxxxx |xxxxxxxxxxxxx |xxxxxxxxxxxxx |            0 |            0 |            0 |xxxxxxxxxxxxx |xxxxxxxxxxxxx |xxxxxxxxxxxxx |xxxxxxxxxxxxx |            0 |            0 |            0 |xxxxxxxxxxxxx |xxxxxxxxxxxxx |xxxxxxxxxxxxx |xxxxxxxxxxxxx |            0 |            0 |            0 |xxxxxxxxxxxxx |xxxxxxxxxxxxx |xxxxxxxxxxxxx |xxxxxxxxxxxxx |            0 |            0 |            0 |xxxxxxxxxxxxx |xxxxxxxxxxxxx |xxxxxxxxxxxxx |xxxxxxxxxxxxx |            0 |            0 |            0 |xxxxxxxxxxxxx |xxxxxxxxxxxxx |xxxxxxxxxxxxx |xxxxxxxxxxxxx |            0 |            0 |            0 |xxxxxxxxxxxxx |xxxxxxxxxxxxx |xxxxxxxxxxxxx |xxxxxxxxxxxxx |            1 |            1 |            1 |xxxxxxxxxxxxx |xxxxxxxxxxxxx |xxxxxxxxxxxxx |xxxxxxxxxxxxx |            1 |            1 |            1 |xxxxxxxxxxxxx |xxxxxxxxxxxxx |xxxxxxxxxxxxx |xxxxxxxxxxxxx |            1 |            1 |            1 |
bpred_bimod.bpred_addr_rate                 0.9846 |       0.9846 |       0.9847 |xxxxxxxxxxxxx |xxxxxxxxxxxxx |xxxxxxxxxxxxx |xxxxxxxxxxxxx |       0.9916 |       0.9917 |       0.9918 |xxxxxxxxxxxxx |xxxxxxxxxxxxx |xxxxxxxxxxxxx |xxxxxxxxxxxxx |       0.9956 |       0.9957 |       0.9958 |xxxxxxxxxxxxx |xxxxxxxxxxxxx |xxxxxxxxxxxxx |xxxxxxxxxxxxx |       0.9978 |       0.9979 |       0.9979 |xxxxxxxxxxxxx |xxxxxxxxxxxxx |xxxxxxxxxxxxx |xxxxxxxxxxxxx |       0.9989 |       0.9989 |       0.9989 |xxxxxxxxxxxxx |xxxxxxxxxxxxx |xxxxxxxxxxxxx |xxxxxxxxxxxxx |       0.9995 |       0.9995 |       0.9995 |xxxxxxxxxxxxx |xxxxxxxxxxxxx |xxxxxxxxxxxxx |xxxxxxxxxxxxx |       0.9997 |       0.9997 |       0.9997 |xxxxxxxxxxxxx |xxxxxxxxxxxxx |xxxxxxxxxxxxx |xxxxxxxxxxxxx |       0.9999 |       0.9999 |       0.9999 |xxxxxxxxxxxxx |xxxxxxxxxxxxx |xxxxxxxxxxxxx |xxxxxxxxxxxxx |       0.9999 |       0.9999 |       0.9999 |xxxxxxxxxxxxx |xxxxxxxxxxxxx |xxxxxxxxxxxxx |xxxxxxxxxxxxx |       1.0000 |       1.0000 |       1.0000 |xxxxxxxxxxxxx |xxxxxxxxxxxxx |xxxxxxxxxxxxx |xxxxxxxxxxxxx |       1.0000 |       1.0000 |       1.0000 |
bpred_bimod.bpred_dir_rate                  0.9917 |       0.9919 |       0.9919 |xxxxxxxxxxxxx |xxxxxxxxxxxxx |xxxxxxxxxxxxx |xxxxxxxxxxxxx |       0.9955 |       0.9956 |       0.9957 |xxxxxxxxxxxxx |xxxxxxxxxxxxx |xxxxxxxxxxxxx |xxxxxxxxxxxxx |       0.9976 |       0.9977 |       0.9978 |xxxxxxxxxxxxx |xxxxxxxxxxxxx |xxxxxxxxxxxxx |xxxxxxxxxxxxx |       0.9988 |       0.9989 |       0.9989 |xxxxxxxxxxxxx |xxxxxxxxxxxxx |xxxxxxxxxxxxx |xxxxxxxxxxxxx |       0.9994 |       0.9994 |       0.9994 |xxxxxxxxxxxxx |xxxxxxxxxxxxx |xxxxxxxxxxxxx |xxxxxxxxxxxxx |       0.9997 |       0.9997 |       0.9997 |xxxxxxxxxxxxx |xxxxxxxxxxxxx |xxxxxxxxxxxxx |xxxxxxxxxxxxx |       0.9999 |       0.9999 |       0.9999 |xxxxxxxxxxxxx |xxxxxxxxxxxxx |xxxxxxxxxxxxx |xxxxxxxxxxxxx |       0.9999 |       0.9999 |       0.9999 |xxxxxxxxxxxxx |xxxxxxxxxxxxx |xxxxxxxxxxxxx |xxxxxxxxxxxxx |       1.0000 |       1.0000 |       1.0000 |xxxxxxxxxxxxx |xxxxxxxxxxxxx |xxxxxxxxxxxxx |xxxxxxxxxxxxx |       1.0000 |       1.0000 |       1.0000 |xxxxxxxxxxxxx |xxxxxxxxxxxxx |xxxxxxxxxxxxx |xxxxxxxxxxxxx |       1.0000 |       1.0000 |       1.0000 |
bpred_bimod.bpred_jr_rate                   1.0000 |       1.0000 |       1.0000 |xxxxxxxxxxxxx |xxxxxxxxxxxxx |xxxxxxxxxxxxx |xxxxxxxxxxxxx |       0.9857 |       0.9857 |       0.9857 |xxxxxxxxxxxxx |xxxxxxxxxxxxx |xxxxxxxxxxxxx |xxxxxxxxxxxxx |       0.9857 |       0.9857 |       0.9857 |xxxxxxxxxxxxx |xxxxxxxxxxxxx |xxxxxxxxxxxxx |xxxxxxxxxxxxx |       0.9857 |       0.9857 |       0.9857 |xxxxxxxxxxxxx |xxxxxxxxxxxxx |xxxxxxxxxxxxx |xxxxxxxxxxxxx |       0.9857 |       0.9857 |       0.9857 |xxxxxxxxxxxxx |xxxxxxxxxxxxx |xxxxxxxxxxxxx |xxxxxxxxxxxxx |       0.9857 |       0.9857 |       0.9857 |xxxxxxxxxxxxx |xxxxxxxxxxxxx |xxxxxxxxxxxxx |xxxxxxxxxxxxx |       0.9857 |       0.9857 |       0.9857 |xxxxxxxxxxxxx |xxxxxxxxxxxxx |xxxxxxxxxxxxx |xxxxxxxxxxxxx |       0.9857 |       0.9857 |       0.9857 |xxxxxxxxxxxxx |xxxxxxxxxxxxx |xxxxxxxxxxxxx |xxxxxxxxxxxxx |       0.9863 |       0.9863 |       0.9863 |xxxxxxxxxxxxx |xxxxxxxxxxxxx |xxxxxxxxxxxxx |xxxxxxxxxxxxx |       0.9863 |       0.9863 |       0.9863 |xxxxxxxxxxxxx |xxxxxxxxxxxxx |xxxxxxxxxxxxx |xxxxxxxxxxxxx |       0.9863 |       0.9863 |       0.9863 |
bpred_bimod.bpred_jr_non_ras_rate.PP       <error: |      <error: |      <error: |xxxxxxxxxxxxx |xxxxxxxxxxxxx |xxxxxxxxxxxxx |xxxxxxxxxxxxx |      <error: |      <error: |      <error: |xxxxxxxxxxxxx |xxxxxxxxxxxxx |xxxxxxxxxxxxx |xxxxxxxxxxxxx |      <error: |      <error: |      <error: |xxxxxxxxxxxxx |xxxxxxxxxxxxx |xxxxxxxxxxxxx |xxxxxxxxxxxxx |      <error: |      <error: |      <error: |xxxxxxxxxxxxx |xxxxxxxxxxxxx |xxxxxxxxxxxxx |xxxxxxxxxxxxx |      <error: |      <error: |      <error: |xxxxxxxxxxxxx |xxxxxxxxxxxxx |xxxxxxxxxxxxx |xxxxxxxxxxxxx |      <error: |      <error: |      <error: |xxxxxxxxxxxxx |xxxxxxxxxxxxx |xxxxxxxxxxxxx |xxxxxxxxxxxxx |      <error: |      <error: |      <error: |xxxxxxxxxxxxx |xxxxxxxxxxxxx |xxxxxxxxxxxxx |xxxxxxxxxxxxx |      <error: |      <error: |      <error: |xxxxxxxxxxxxx |xxxxxxxxxxxxx |xxxxxxxxxxxxx |xxxxxxxxxxxxx |       0.0000 |       0.0000 |       0.0000 |xxxxxxxxxxxxx |xxxxxxxxxxxxx |xxxxxxxxxxxxx |xxxxxxxxxxxxx |       0.0000 |       0.0000 |       0.0000 |xxxxxxxxxxxxx |xxxxxxxxxxxxx |xxxxxxxxxxxxx |xxxxxxxxxxxxx |       0.0000 |       0.0000 |       0.0000 |
bpred_bimod.retstack_pushes                     63 |           63 |           63 |xxxxxxxxxxxxx |xxxxxxxxxxxxx |xxxxxxxxxxxxx |xxxxxxxxxxxxx |           72 |           72 |           72 |xxxxxxxxxxxxx |xxxxxxxxxxxxx |xxxxxxxxxxxxx |xxxxxxxxxxxxx |           72 |           72 |           72 |xxxxxxxxxxxxx |xxxxxxxxxxxxx |xxxxxxxxxxxxx |xxxxxxxxxxxxx |           72 |           72 |           72 |xxxxxxxxxxxxx |xxxxxxxxxxxxx |xxxxxxxxxxxxx |xxxxxxxxxxxxx |           72 |           72 |           72 |xxxxxxxxxxxxx |xxxxxxxxxxxxx |xxxxxxxxxxxxx |xxxxxxxxxxxxx |           72 |           72 |           72 |xxxxxxxxxxxxx |xxxxxxxxxxxxx |xxxxxxxxxxxxx |xxxxxxxxxxxxx |           72 |           72 |           72 |xxxxxxxxxxxxx |xxxxxxxxxxxxx |xxxxxxxxxxxxx |xxxxxxxxxxxxx |           72 |           72 |           72 |xxxxxxxxxxxxx |xxxxxxxxxxxxx |xxxxxxxxxxxxx |xxxxxxxxxxxxx |           74 |           74 |           74 |xxxxxxxxxxxxx |xxxxxxxxxxxxx |xxxxxxxxxxxxx |xxxxxxxxxxxxx |           74 |           74 |           74 |xxxxxxxxxxxxx |xxxxxxxxxxxxx |xxxxxxxxxxxxx |xxxxxxxxxxxxx |           74 |           74 |           74 |
bpred_bimod.retstack_pops                       61 |           61 |           61 |xxxxxxxxxxxxx |xxxxxxxxxxxxx |xxxxxxxxxxxxx |xxxxxxxxxxxxx |           70 |           70 |           70 |xxxxxxxxxxxxx |xxxxxxxxxxxxx |xxxxxxxxxxxxx |xxxxxxxxxxxxx |           70 |           70 |           70 |xxxxxxxxxxxxx |xxxxxxxxxxxxx |xxxxxxxxxxxxx |xxxxxxxxxxxxx |           70 |           70 |           70 |xxxxxxxxxxxxx |xxxxxxxxxxxxx |xxxxxxxxxxxxx |xxxxxxxxxxxxx |           70 |           70 |           70 |xxxxxxxxxxxxx |xxxxxxxxxxxxx |xxxxxxxxxxxxx |xxxxxxxxxxxxx |           70 |           70 |           70 |xxxxxxxxxxxxx |xxxxxxxxxxxxx |xxxxxxxxxxxxx |xxxxxxxxxxxxx |           70 |           70 |           70 |xxxxxxxxxxxxx |xxxxxxxxxxxxx |xxxxxxxxxxxxx |xxxxxxxxxxxxx |           70 |           70 |           70 |xxxxxxxxxxxxx |xxxxxxxxxxxxx |xxxxxxxxxxxxx |xxxxxxxxxxxxx |           72 |           72 |           72 |xxxxxxxxxxxxx |xxxxxxxxxxxxx |xxxxxxxxxxxxx |xxxxxxxxxxxxx |           72 |           72 |           72 |xxxxxxxxxxxxx |xxxxxxxxxxxxx |xxxxxxxxxxxxx |xxxxxxxxxxxxx |           72 |           72 |           72 |
bpred_bimod.used_ras.PP                         61 |           61 |           61 |xxxxxxxxxxxxx |xxxxxxxxxxxxx |xxxxxxxxxxxxx |xxxxxxxxxxxxx |           70 |           70 |           70 |xxxxxxxxxxxxx |xxxxxxxxxxxxx |xxxxxxxxxxxxx |xxxxxxxxxxxxx |           70 |           70 |           70 |xxxxxxxxxxxxx |xxxxxxxxxxxxx |xxxxxxxxxxxxx |xxxxxxxxxxxxx |           70 |           70 |           70 |xxxxxxxxxxxxx |xxxxxxxxxxxxx |xxxxxxxxxxxxx |xxxxxxxxxxxxx |           70 |           70 |           70 |xxxxxxxxxxxxx |xxxxxxxxxxxxx |xxxxxxxxxxxxx |xxxxxxxxxxxxx |           70 |           70 |           70 |xxxxxxxxxxxxx |xxxxxxxxxxxxx |xxxxxxxxxxxxx |xxxxxxxxxxxxx |           70 |           70 |           70 |xxxxxxxxxxxxx |xxxxxxxxxxxxx |xxxxxxxxxxxxx |xxxxxxxxxxxxx |           70 |           70 |           70 |xxxxxxxxxxxxx |xxxxxxxxxxxxx |xxxxxxxxxxxxx |xxxxxxxxxxxxx |           72 |           72 |           72 |xxxxxxxxxxxxx |xxxxxxxxxxxxx |xxxxxxxxxxxxx |xxxxxxxxxxxxx |           72 |           72 |           72 |xxxxxxxxxxxxx |xxxxxxxxxxxxx |xxxxxxxxxxxxx |xxxxxxxxxxxxx |           72 |           72 |           72 |
bpred_bimod.ras_hits.PP                         61 |           61 |           61 |xxxxxxxxxxxxx |xxxxxxxxxxxxx |xxxxxxxxxxxxx |xxxxxxxxxxxxx |           69 |           69 |           69 |xxxxxxxxxxxxx |xxxxxxxxxxxxx |xxxxxxxxxxxxx |xxxxxxxxxxxxx |           69 |           69 |           69 |xxxxxxxxxxxxx |xxxxxxxxxxxxx |xxxxxxxxxxxxx |xxxxxxxxxxxxx |           69 |           69 |           69 |xxxxxxxxxxxxx |xxxxxxxxxxxxx |xxxxxxxxxxxxx |xxxxxxxxxxxxx |           69 |           69 |           69 |xxxxxxxxxxxxx |xxxxxxxxxxxxx |xxxxxxxxxxxxx |xxxxxxxxxxxxx |           69 |           69 |           69 |xxxxxxxxxxxxx |xxxxxxxxxxxxx |xxxxxxxxxxxxx |xxxxxxxxxxxxx |           69 |           69 |           69 |xxxxxxxxxxxxx |xxxxxxxxxxxxx |xxxxxxxxxxxxx |xxxxxxxxxxxxx |           69 |           69 |           69 |xxxxxxxxxxxxx |xxxxxxxxxxxxx |xxxxxxxxxxxxx |xxxxxxxxxxxxx |           72 |           72 |           72 |xxxxxxxxxxxxx |xxxxxxxxxxxxx |xxxxxxxxxxxxx |xxxxxxxxxxxxx |           72 |           72 |           72 |xxxxxxxxxxxxx |xxxxxxxxxxxxx |xxxxxxxxxxxxx |xxxxxxxxxxxxx |           72 |           72 |           72 |
bpred_bimod.ras_rate.PP                     1.0000 |       1.0000 |       1.0000 |xxxxxxxxxxxxx |xxxxxxxxxxxxx |xxxxxxxxxxxxx |xxxxxxxxxxxxx |       0.9857 |       0.9857 |       0.9857 |xxxxxxxxxxxxx |xxxxxxxxxxxxx |xxxxxxxxxxxxx |xxxxxxxxxxxxx |       0.9857 |       0.9857 |       0.9857 |xxxxxxxxxxxxx |xxxxxxxxxxxxx |xxxxxxxxxxxxx |xxxxxxxxxxxxx |       0.9857 |       0.9857 |       0.9857 |xxxxxxxxxxxxx |xxxxxxxxxxxxx |xxxxxxxxxxxxx |xxxxxxxxxxxxx |       0.9857 |       0.9857 |       0.9857 |xxxxxxxxxxxxx |xxxxxxxxxxxxx |xxxxxxxxxxxxx |xxxxxxxxxxxxx |       0.9857 |       0.9857 |       0.9857 |xxxxxxxxxxxxx |xxxxxxxxxxxxx |xxxxxxxxxxxxx |xxxxxxxxxxxxx |       0.9857 |       0.9857 |       0.9857 |xxxxxxxxxxxxx |xxxxxxxxxxxxx |xxxxxxxxxxxxx |xxxxxxxxxxxxx |       0.9857 |       0.9857 |       0.9857 |xxxxxxxxxxxxx |xxxxxxxxxxxxx |xxxxxxxxxxxxx |xxxxxxxxxxxxx |       1.0000 |       1.0000 |       1.0000 |xxxxxxxxxxxxx |xxxxxxxxxxxxx |xxxxxxxxxxxxx |xxxxxxxxxxxxx |       1.0000 |       1.0000 |       1.0000 |xxxxxxxxxxxxx |xxxxxxxxxxxxx |xxxxxxxxxxxxx |xxxxxxxxxxxxx |       1.0000 |       1.0000 |       1.0000 |
bpred_2lev.lookups                   xxxxxxxxxxxxx |xxxxxxxxxxxxx |xxxxxxxxxxxxx |        13414 |        13414 |        13414 |        13414 |xxxxxxxxxxxxx |xxxxxxxxxxxxx |xxxxxxxxxxxxx |        25742 |        25742 |        25742 |        25742 |xxxxxxxxxxxxx |xxxxxxxxxxxxx |xxxxxxxxxxxxx |        50318 |        50318 |        50318 |        50318 |xxxxxxxxxxxxx |xxxxxxxxxxxxx |xxxxxxxxxxxxx |        99470 |        99470 |        99470 |        99470 |xxxxxxxxxxxxx |xxxxxxxxxxxxx |xxxxxxxxxxxxx |       197774 |       197774 |       197774 |       197774 |xxxxxxxxxxxxx |xxxxxxxxxxxxx |xxxxxxxxxxxxx |       394382 |       394382 |       394382 |       394382 |xxxxxxxxxxxxx |xxxxxxxxxxxxx |xxxxxxxxxxxxx |       787598 |       787598 |       787598 |       787598 |xxxxxxxxxxxxx |xxxxxxxxxxxxx |xxxxxxxxxxxxx |      1574030 |      1574030 |      1574030 |      1574030 |xxxxxxxxxxxxx |xxxxxxxxxxxxx |xxxxxxxxxxxxx |      3147687 |      3147687 |      3147687 |      3147687 |xxxxxxxxxxxxx |xxxxxxxxxxxxx |xxxxxxxxxxxxx |      6294186 |      6294186 |      6294186 |      6294186 |xxxxxxxxxxxxx |xxxxxxxxxxxxx |xxxxxxxxxxxxx |     12587181 |     12587181 |     12587181 |     12587181 |
[...]
bpred_2lev.retstack_pushes           xxxxxxxxxxxxx |xxxxxxxxxxxxx |xxxxxxxxxxxxx |           63 |           63 |           63 |           63 |xxxxxxxxxxxxx |xxxxxxxxxxxxx |xxxxxxxxxxxxx |           72 |           72 |           72 |           72 |xxxxxxxxxxxxx |xxxxxxxxxxxxx |xxxxxxxxxxxxx |           72 |           72 |           72 |           72 |xxxxxxxxxxxxx |xxxxxxxxxxxxx |xxxxxxxxxxxxx |           72 |           72 |           72 |           72 |xxxxxxxxxxxxx |xxxxxxxxxxxxx |xxxxxxxxxxxxx |           72 |           72 |           72 |           72 |xxxxxxxxxxxxx |xxxxxxxxxxxxx |xxxxxxxxxxxxx |           72 |           72 |           72 |           72 |xxxxxxxxxxxxx |xxxxxxxxxxxxx |xxxxxxxxxxxxx |           72 |           72 |           72 |           72 |xxxxxxxxxxxxx |xxxxxxxxxxxxx |xxxxxxxxxxxxx |           72 |           72 |           72 |           72 |xxxxxxxxxxxxx |xxxxxxxxxxxxx |xxxxxxxxxxxxx |           74 |           74 |           74 |           74 |xxxxxxxxxxxxx |xxxxxxxxxxxxx |xxxxxxxxxxxxx |           74 |           74 |           74 |           74 |xxxxxxxxxxxxx |xxxxxxxxxxxxx |xxxxxxxxxxxxx |           74 |           74 |           74 |           74 |
bpred_2lev.retstack_pops             xxxxxxxxxxxxx |xxxxxxxxxxxxx |xxxxxxxxxxxxx |           61 |           61 |           61 |           61 |xxxxxxxxxxxxx |xxxxxxxxxxxxx |xxxxxxxxxxxxx |           70 |           70 |           70 |           70 |xxxxxxxxxxxxx |xxxxxxxxxxxxx |xxxxxxxxxxxxx |           70 |           70 |           70 |           70 |xxxxxxxxxxxxx |xxxxxxxxxxxxx |xxxxxxxxxxxxx |           70 |           70 |           70 |           70 |xxxxxxxxxxxxx |xxxxxxxxxxxxx |xxxxxxxxxxxxx |           70 |           70 |           70 |           70 |xxxxxxxxxxxxx |xxxxxxxxxxxxx |xxxxxxxxxxxxx |           70 |           70 |           70 |           70 |xxxxxxxxxxxxx |xxxxxxxxxxxxx |xxxxxxxxxxxxx |           70 |           70 |           70 |           70 |xxxxxxxxxxxxx |xxxxxxxxxxxxx |xxxxxxxxxxxxx |           70 |           70 |           70 |           70 |xxxxxxxxxxxxx |xxxxxxxxxxxxx |xxxxxxxxxxxxx |           72 |           72 |           72 |           72 |xxxxxxxxxxxxx |xxxxxxxxxxxxx |xxxxxxxxxxxxx |           72 |           72 |           72 |           72 |xxxxxxxxxxxxx |xxxxxxxxxxxxx |xxxxxxxxxxxxx |           72 |           72 |           72 |           72 |
bpred_2lev.used_ras.PP               xxxxxxxxxxxxx |xxxxxxxxxxxxx |xxxxxxxxxxxxx |           61 |           61 |           61 |           61 |xxxxxxxxxxxxx |xxxxxxxxxxxxx |xxxxxxxxxxxxx |           70 |           70 |           70 |           70 |xxxxxxxxxxxxx |xxxxxxxxxxxxx |xxxxxxxxxxxxx |           70 |           70 |           70 |           70 |xxxxxxxxxxxxx |xxxxxxxxxxxxx |xxxxxxxxxxxxx |           70 |           70 |           70 |           70 |xxxxxxxxxxxxx |xxxxxxxxxxxxx |xxxxxxxxxxxxx |           70 |           70 |           70 |           70 |xxxxxxxxxxxxx |xxxxxxxxxxxxx |xxxxxxxxxxxxx |           70 |           70 |           70 |           70 |xxxxxxxxxxxxx |xxxxxxxxxxxxx |xxxxxxxxxxxxx |           70 |           70 |           70 |           70 |xxxxxxxxxxxxx |xxxxxxxxxxxxx |xxxxxxxxxxxxx |           70 |           70 |           70 |           70 |xxxxxxxxxxxxx |xxxxxxxxxxxxx |xxxxxxxxxxxxx |           72 |           72 |           72 |           72 |xxxxxxxxxxxxx |xxxxxxxxxxxxx |xxxxxxxxxxxxx |           72 |           72 |           72 |           72 |xxxxxxxxxxxxx |xxxxxxxxxxxxx |xxxxxxxxxxxxx |           72 |           72 |           72 |           72 |
bpred_2lev.ras_hits.PP               xxxxxxxxxxxxx |xxxxxxxxxxxxx |xxxxxxxxxxxxx |           61 |           61 |           61 |           61 |xxxxxxxxxxxxx |xxxxxxxxxxxxx |xxxxxxxxxxxxx |           69 |           69 |           69 |           69 |xxxxxxxxxxxxx |xxxxxxxxxxxxx |xxxxxxxxxxxxx |           69 |           69 |           69 |           69 |xxxxxxxxxxxxx |xxxxxxxxxxxxx |xxxxxxxxxxxxx |           69 |           69 |           69 |           69 |xxxxxxxxxxxxx |xxxxxxxxxxxxx |xxxxxxxxxxxxx |           69 |           69 |           69 |           69 |xxxxxxxxxxxxx |xxxxxxxxxxxxx |xxxxxxxxxxxxx |           69 |           69 |           69 |           69 |xxxxxxxxxxxxx |xxxxxxxxxxxxx |xxxxxxxxxxxxx |           69 |           69 |           69 |           69 |xxxxxxxxxxxxx |xxxxxxxxxxxxx |xxxxxxxxxxxxx |           69 |           69 |           69 |           69 |xxxxxxxxxxxxx |xxxxxxxxxxxxx |xxxxxxxxxxxxx |           72 |           72 |           72 |           72 |xxxxxxxxxxxxx |xxxxxxxxxxxxx |xxxxxxxxxxxxx |           72 |           72 |           72 |           72 |xxxxxxxxxxxxx |xxxxxxxxxxxxx |xxxxxxxxxxxxx |           72 |           72 |           72 |           72 |
bpred_2lev.ras_rate.PP               xxxxxxxxxxxxx |xxxxxxxxxxxxx |xxxxxxxxxxxxx |       1.0000 |       1.0000 |       1.0000 |       1.0000 |xxxxxxxxxxxxx |xxxxxxxxxxxxx |xxxxxxxxxxxxx |       0.9857 |       0.9857 |       0.9857 |       0.9857 |xxxxxxxxxxxxx |xxxxxxxxxxxxx |xxxxxxxxxxxxx |       0.9857 |       0.9857 |       0.9857 |       0.9857 |xxxxxxxxxxxxx |xxxxxxxxxxxxx |xxxxxxxxxxxxx |       0.9857 |       0.9857 |       0.9857 |       0.9857 |xxxxxxxxxxxxx |xxxxxxxxxxxxx |xxxxxxxxxxxxx |       0.9857 |       0.9857 |       0.9857 |       0.9857 |xxxxxxxxxxxxx |xxxxxxxxxxxxx |xxxxxxxxxxxxx |       0.9857 |       0.9857 |       0.9857 |       0.9857 |xxxxxxxxxxxxx |xxxxxxxxxxxxx |xxxxxxxxxxxxx |       0.9857 |       0.9857 |       0.9857 |       0.9857 |xxxxxxxxxxxxx |xxxxxxxxxxxxx |xxxxxxxxxxxxx |       0.9857 |       0.9857 |       0.9857 |       0.9857 |xxxxxxxxxxxxx |xxxxxxxxxxxxx |xxxxxxxxxxxxx |       1.0000 |       1.0000 |       1.0000 |       1.0000 |xxxxxxxxxxxxx |xxxxxxxxxxxxx |xxxxxxxxxxxxx |       1.0000 |       1.0000 |       1.0000 |       1.0000 |xxxxxxxxxxxxx |xxxxxxxxxxxxx |xxxxxxxxxxxxx |       1.0000 |       1.0000 |       1.0000 |       1.0000 |

Command list: 
	sslittle-na-sstrix-gcc -Wall -O3 -funroll-loops -finline-functions  -DRANDOM_SIZE=4096 -DOFFSET=5 -DSORT=base_radixsort sorts/base_radixsort829421579.c simpleMain.c -o base_radixsort1198647449
	sim-cache -cache:dl1 dl1:256:32:1:l -cache:dl2 dl2:131072:32:1:l -cache:il1 il1:256:32:1:l -cache:il2 dl2 base_radixsort1198647449
	sim-cache -cache:dl1 dl1:256:32:1:l -cache:dl2 dl2:65536:32:1:l -cache:il1 il1:256:32:1:l -cache:il2 dl2 base_radixsort1198647449
	sim-cache -cache:dl1 dl1:1:32:256:l -cache:dl2 dl2:1:32:131072:l -cache:il1 il1:1:32:256:l -cache:il2 dl2 base_radixsort1198647449
	sim-cache -cache:dl1 dl1:1:32:256:l -cache:dl2 dl2:1:32:65536:l -cache:il1 il1:1:32:256:l -cache:il2 dl2 base_radixsort1198647449
	sim-bpred -bpred bimod -bpred:bimod 512 base_radixsort1198647449
	sim-bpred -bpred bimod -bpred:bimod 1024 base_radixsort1198647449
	sim-bpred -bpred bimod -bpred:bimod 2048 base_radixsort1198647449
	sim-bpred -bpred 2lev -bpred:2lev 1 512 10 1 base_radixsort1198647449
	sim-bpred -bpred 2lev -bpred:2lev 1 1024 10 1 base_radixsort1198647449
	sim-bpred -bpred 2lev -bpred:2lev 1 2048 10 1 base_radixsort1198647449
	sim-bpred -bpred 2lev -bpred:2lev 1 4096 10 1 base_radixsort1198647449
	sslittle-na-sstrix-gcc -Wall -O3 -funroll-loops -finline-functions  -DRANDOM_SIZE=8192 -DOFFSET=5 -DSORT=base_radixsort sorts/base_radixsort829421579.c simpleMain.c -o base_radixsort1198647449
	sim-cache -cache:dl1 dl1:256:32:1:l -cache:dl2 dl2:131072:32:1:l -cache:il1 il1:256:32:1:l -cache:il2 dl2 base_radixsort1198647449
	sim-cache -cache:dl1 dl1:256:32:1:l -cache:dl2 dl2:65536:32:1:l -cache:il1 il1:256:32:1:l -cache:il2 dl2 base_radixsort1198647449
	sim-cache -cache:dl1 dl1:1:32:256:l -cache:dl2 dl2:1:32:131072:l -cache:il1 il1:1:32:256:l -cache:il2 dl2 base_radixsort1198647449
	sim-cache -cache:dl1 dl1:1:32:256:l -cache:dl2 dl2:1:32:65536:l -cache:il1 il1:1:32:256:l -cache:il2 dl2 base_radixsort1198647449
	sim-bpred -bpred bimod -bpred:bimod 512 base_radixsort1198647449
	sim-bpred -bpred bimod -bpred:bimod 1024 base_radixsort1198647449
	sim-bpred -bpred bimod -bpred:bimod 2048 base_radixsort1198647449
	sim-bpred -bpred 2lev -bpred:2lev 1 512 10 1 base_radixsort1198647449
	sim-bpred -bpred 2lev -bpred:2lev 1 1024 10 1 base_radixsort1198647449
	sim-bpred -bpred 2lev -bpred:2lev 1 2048 10 1 base_radixsort1198647449
	sim-bpred -bpred 2lev -bpred:2lev 1 4096 10 1 base_radixsort1198647449
	sslittle-na-sstrix-gcc -Wall -O3 -funroll-loops -finline-functions  -DRANDOM_SIZE=16384 -DOFFSET=5 -DSORT=base_radixsort sorts/base_radixsort829421579.c simpleMain.c -o base_radixsort1198647449
	sim-cache -cache:dl1 dl1:256:32:1:l -cache:dl2 dl2:131072:32:1:l -cache:il1 il1:256:32:1:l -cache:il2 dl2 base_radixsort1198647449
	sim-cache -cache:dl1 dl1:256:32:1:l -cache:dl2 dl2:65536:32:1:l -cache:il1 il1:256:32:1:l -cache:il2 dl2 base_radixsort1198647449
	sim-cache -cache:dl1 dl1:1:32:256:l -cache:dl2 dl2:1:32:131072:l -cache:il1 il1:1:32:256:l -cache:il2 dl2 base_radixsort1198647449
	sim-cache -cache:dl1 dl1:1:32:256:l -cache:dl2 dl2:1:32:65536:l -cache:il1 il1:1:32:256:l -cache:il2 dl2 base_radixsort1198647449
	sim-bpred -bpred bimod -bpred:bimod 512 base_radixsort1198647449
	sim-bpred -bpred bimod -bpred:bimod 1024 base_radixsort1198647449
	sim-bpred -bpred bimod -bpred:bimod 2048 base_radixsort1198647449
	sim-bpred -bpred 2lev -bpred:2lev 1 512 10 1 base_radixsort1198647449
	sim-bpred -bpred 2lev -bpred:2lev 1 1024 10 1 base_radixsort1198647449
	sim-bpred -bpred 2lev -bpred:2lev 1 2048 10 1 base_radixsort1198647449
	sim-bpred -bpred 2lev -bpred:2lev 1 4096 10 1 base_radixsort1198647449
	sslittle-na-sstrix-gcc -Wall -O3 -funroll-loops -finline-functions  -DRANDOM_SIZE=32768 -DOFFSET=5 -DSORT=base_radixsort sorts/base_radixsort829421579.c simpleMain.c -o base_radixsort1198647449
	sim-cache -cache:dl1 dl1:256:32:1:l -cache:dl2 dl2:131072:32:1:l -cache:il1 il1:256:32:1:l -cache:il2 dl2 base_radixsort1198647449
	sim-cache -cache:dl1 dl1:256:32:1:l -cache:dl2 dl2:65536:32:1:l -cache:il1 il1:256:32:1:l -cache:il2 dl2 base_radixsort1198647449
	sim-cache -cache:dl1 dl1:1:32:256:l -cache:dl2 dl2:1:32:131072:l -cache:il1 il1:1:32:256:l -cache:il2 dl2 base_radixsort1198647449
	sim-cache -cache:dl1 dl1:1:32:256:l -cache:dl2 dl2:1:32:65536:l -cache:il1 il1:1:32:256:l -cache:il2 dl2 base_radixsort1198647449
	sim-bpred -bpred bimod -bpred:bimod 512 base_radixsort1198647449
	sim-bpred -bpred bimod -bpred:bimod 1024 base_radixsort1198647449
	sim-bpred -bpred bimod -bpred:bimod 2048 base_radixsort1198647449
	sim-bpred -bpred 2lev -bpred:2lev 1 512 10 1 base_radixsort1198647449
	sim-bpred -bpred 2lev -bpred:2lev 1 1024 10 1 base_radixsort1198647449
	sim-bpred -bpred 2lev -bpred:2lev 1 2048 10 1 base_radixsort1198647449
	sim-bpred -bpred 2lev -bpred:2lev 1 4096 10 1 base_radixsort1198647449
	sslittle-na-sstrix-gcc -Wall -O3 -funroll-loops -finline-functions  -DRANDOM_SIZE=65536 -DOFFSET=5 -DSORT=base_radixsort sorts/base_radixsort829421579.c simpleMain.c -o base_radixsort1198647449
	sim-cache -cache:dl1 dl1:256:32:1:l -cache:dl2 dl2:131072:32:1:l -cache:il1 il1:256:32:1:l -cache:il2 dl2 base_radixsort1198647449
	sim-cache -cache:dl1 dl1:256:32:1:l -cache:dl2 dl2:65536:32:1:l -cache:il1 il1:256:32:1:l -cache:il2 dl2 base_radixsort1198647449
	sim-cache -cache:dl1 dl1:1:32:256:l -cache:dl2 dl2:1:32:131072:l -cache:il1 il1:1:32:256:l -cache:il2 dl2 base_radixsort1198647449
	sim-cache -cache:dl1 dl1:1:32:256:l -cache:dl2 dl2:1:32:65536:l -cache:il1 il1:1:32:256:l -cache:il2 dl2 base_radixsort1198647449
	sim-bpred -bpred bimod -bpred:bimod 512 base_radixsort1198647449
	sim-bpred -bpred bimod -bpred:bimod 1024 base_radixsort1198647449
	sim-bpred -bpred bimod -bpred:bimod 2048 base_radixsort1198647449
	sim-bpred -bpred 2lev -bpred:2lev 1 512 10 1 base_radixsort1198647449
	sim-bpred -bpred 2lev -bpred:2lev 1 1024 10 1 base_radixsort1198647449
	sim-bpred -bpred 2lev -bpred:2lev 1 2048 10 1 base_radixsort1198647449
	sim-bpred -bpred 2lev -bpred:2lev 1 4096 10 1 base_radixsort1198647449
	sslittle-na-sstrix-gcc -Wall -O3 -funroll-loops -finline-functions  -DRANDOM_SIZE=131072 -DOFFSET=5 -DSORT=base_radixsort sorts/base_radixsort829421579.c simpleMain.c -o base_radixsort1198647449
	sim-cache -cache:dl1 dl1:256:32:1:l -cache:dl2 dl2:131072:32:1:l -cache:il1 il1:256:32:1:l -cache:il2 dl2 base_radixsort1198647449
	sim-cache -cache:dl1 dl1:256:32:1:l -cache:dl2 dl2:65536:32:1:l -cache:il1 il1:256:32:1:l -cache:il2 dl2 base_radixsort1198647449
	sim-cache -cache:dl1 dl1:1:32:256:l -cache:dl2 dl2:1:32:131072:l -cache:il1 il1:1:32:256:l -cache:il2 dl2 base_radixsort1198647449
	sim-cache -cache:dl1 dl1:1:32:256:l -cache:dl2 dl2:1:32:65536:l -cache:il1 il1:1:32:256:l -cache:il2 dl2 base_radixsort1198647449
	sim-bpred -bpred bimod -bpred:bimod 512 base_radixsort1198647449
	sim-bpred -bpred bimod -bpred:bimod 1024 base_radixsort1198647449
	sim-bpred -bpred bimod -bpred:bimod 2048 base_radixsort1198647449
	sim-bpred -bpred 2lev -bpred:2lev 1 512 10 1 base_radixsort1198647449
	sim-bpred -bpred 2lev -bpred:2lev 1 1024 10 1 base_radixsort1198647449
	sim-bpred -bpred 2lev -bpred:2lev 1 2048 10 1 base_radixsort1198647449
	sim-bpred -bpred 2lev -bpred:2lev 1 4096 10 1 base_radixsort1198647449
	sslittle-na-sstrix-gcc -Wall -O3 -funroll-loops -finline-functions  -DRANDOM_SIZE=262144 -DOFFSET=5 -DSORT=base_radixsort sorts/base_radixsort829421579.c simpleMain.c -o base_radixsort1198647449
	sim-cache -cache:dl1 dl1:256:32:1:l -cache:dl2 dl2:131072:32:1:l -cache:il1 il1:256:32:1:l -cache:il2 dl2 base_radixsort1198647449
	sim-cache -cache:dl1 dl1:256:32:1:l -cache:dl2 dl2:65536:32:1:l -cache:il1 il1:256:32:1:l -cache:il2 dl2 base_radixsort1198647449
	sim-cache -cache:dl1 dl1:1:32:256:l -cache:dl2 dl2:1:32:131072:l -cache:il1 il1:1:32:256:l -cache:il2 dl2 base_radixsort1198647449
	sim-cache -cache:dl1 dl1:1:32:256:l -cache:dl2 dl2:1:32:65536:l -cache:il1 il1:1:32:256:l -cache:il2 dl2 base_radixsort1198647449
	sim-bpred -bpred bimod -bpred:bimod 512 base_radixsort1198647449
	sim-bpred -bpred bimod -bpred:bimod 1024 base_radixsort1198647449
	sim-bpred -bpred bimod -bpred:bimod 2048 base_radixsort1198647449
	sim-bpred -bpred 2lev -bpred:2lev 1 512 10 1 base_radixsort1198647449
	sim-bpred -bpred 2lev -bpred:2lev 1 1024 10 1 base_radixsort1198647449
	sim-bpred -bpred 2lev -bpred:2lev 1 2048 10 1 base_radixsort1198647449
	sim-bpred -bpred 2lev -bpred:2lev 1 4096 10 1 base_radixsort1198647449
	sslittle-na-sstrix-gcc -Wall -O3 -funroll-loops -finline-functions  -DRANDOM_SIZE=524288 -DOFFSET=5 -DSORT=base_radixsort sorts/base_radixsort829421579.c simpleMain.c -o base_radixsort1198647449
	sim-cache -cache:dl1 dl1:256:32:1:l -cache:dl2 dl2:131072:32:1:l -cache:il1 il1:256:32:1:l -cache:il2 dl2 base_radixsort1198647449
	sim-cache -cache:dl1 dl1:256:32:1:l -cache:dl2 dl2:65536:32:1:l -cache:il1 il1:256:32:1:l -cache:il2 dl2 base_radixsort1198647449
	sim-cache -cache:dl1 dl1:1:32:256:l -cache:dl2 dl2:1:32:131072:l -cache:il1 il1:1:32:256:l -cache:il2 dl2 base_radixsort1198647449
	sim-cache -cache:dl1 dl1:1:32:256:l -cache:dl2 dl2:1:32:65536:l -cache:il1 il1:1:32:256:l -cache:il2 dl2 base_radixsort1198647449
	sim-bpred -bpred bimod -bpred:bimod 512 base_radixsort1198647449
	sim-bpred -bpred bimod -bpred:bimod 1024 base_radixsort1198647449
	sim-bpred -bpred bimod -bpred:bimod 2048 base_radixsort1198647449
	sim-bpred -bpred 2lev -bpred:2lev 1 512 10 1 base_radixsort1198647449
	sim-bpred -bpred 2lev -bpred:2lev 1 1024 10 1 base_radixsort1198647449
	sim-bpred -bpred 2lev -bpred:2lev 1 2048 10 1 base_radixsort1198647449
	sim-bpred -bpred 2lev -bpred:2lev 1 4096 10 1 base_radixsort1198647449
	sslittle-na-sstrix-gcc -Wall -O3 -funroll-loops -finline-functions  -DRANDOM_SIZE=1048576 -DOFFSET=5 -DSORT=base_radixsort sorts/base_radixsort829421579.c simpleMain.c -o base_radixsort1198647449
	sim-cache -cache:dl1 dl1:256:32:1:l -cache:dl2 dl2:131072:32:1:l -cache:il1 il1:256:32:1:l -cache:il2 dl2 base_radixsort1198647449
	sim-cache -cache:dl1 dl1:256:32:1:l -cache:dl2 dl2:65536:32:1:l -cache:il1 il1:256:32:1:l -cache:il2 dl2 base_radixsort1198647449
	sim-cache -cache:dl1 dl1:1:32:256:l -cache:dl2 dl2:1:32:131072:l -cache:il1 il1:1:32:256:l -cache:il2 dl2 base_radixsort1198647449
	sim-cache -cache:dl1 dl1:1:32:256:l -cache:dl2 dl2:1:32:65536:l -cache:il1 il1:1:32:256:l -cache:il2 dl2 base_radixsort1198647449
	sim-bpred -bpred bimod -bpred:bimod 512 base_radixsort1198647449
	sim-bpred -bpred bimod -bpred:bimod 1024 base_radixsort1198647449
	sim-bpred -bpred bimod -bpred:bimod 2048 base_radixsort1198647449
	sim-bpred -bpred 2lev -bpred:2lev 1 512 10 1 base_radixsort1198647449
	sim-bpred -bpred 2lev -bpred:2lev 1 1024 10 1 base_radixsort1198647449
	sim-bpred -bpred 2lev -bpred:2lev 1 2048 10 1 base_radixsort1198647449
	sim-bpred -bpred 2lev -bpred:2lev 1 4096 10 1 base_radixsort1198647449
	sslittle-na-sstrix-gcc -Wall -O3 -funroll-loops -finline-functions  -DRANDOM_SIZE=2097152 -DOFFSET=5 -DSORT=base_radixsort sorts/base_radixsort829421579.c simpleMain.c -o base_radixsort1198647449
	sim-cache -cache:dl1 dl1:256:32:1:l -cache:dl2 dl2:131072:32:1:l -cache:il1 il1:256:32:1:l -cache:il2 dl2 base_radixsort1198647449
	sim-cache -cache:dl1 dl1:256:32:1:l -cache:dl2 dl2:65536:32:1:l -cache:il1 il1:256:32:1:l -cache:il2 dl2 base_radixsort1198647449
	sim-cache -cache:dl1 dl1:1:32:256:l -cache:dl2 dl2:1:32:131072:l -cache:il1 il1:1:32:256:l -cache:il2 dl2 base_radixsort1198647449
	sim-cache -cache:dl1 dl1:1:32:256:l -cache:dl2 dl2:1:32:65536:l -cache:il1 il1:1:32:256:l -cache:il2 dl2 base_radixsort1198647449
	sim-bpred -bpred bimod -bpred:bimod 512 base_radixsort1198647449
	sim-bpred -bpred bimod -bpred:bimod 1024 base_radixsort1198647449
	sim-bpred -bpred bimod -bpred:bimod 2048 base_radixsort1198647449
	sim-bpred -bpred 2lev -bpred:2lev 1 512 10 1 base_radixsort1198647449
	sim-bpred -bpred 2lev -bpred:2lev 1 1024 10 1 base_radixsort1198647449
	sim-bpred -bpred 2lev -bpred:2lev 1 2048 10 1 base_radixsort1198647449
	sim-bpred -bpred 2lev -bpred:2lev 1 4096 10 1 base_radixsort1198647449
	sslittle-na-sstrix-gcc -Wall -O3 -funroll-loops -finline-functions  -DRANDOM_SIZE=4194304 -DOFFSET=5 -DSORT=base_radixsort sorts/base_radixsort829421579.c simpleMain.c -o base_radixsort1198647449
	sim-cache -cache:dl1 dl1:256:32:1:l -cache:dl2 dl2:131072:32:1:l -cache:il1 il1:256:32:1:l -cache:il2 dl2 base_radixsort1198647449
	sim-cache -cache:dl1 dl1:256:32:1:l -cache:dl2 dl2:65536:32:1:l -cache:il1 il1:256:32:1:l -cache:il2 dl2 base_radixsort1198647449
	sim-cache -cache:dl1 dl1:1:32:256:l -cache:dl2 dl2:1:32:131072:l -cache:il1 il1:1:32:256:l -cache:il2 dl2 base_radixsort1198647449
	sim-cache -cache:dl1 dl1:1:32:256:l -cache:dl2 dl2:1:32:65536:l -cache:il1 il1:1:32:256:l -cache:il2 dl2 base_radixsort1198647449
	sim-bpred -bpred bimod -bpred:bimod 512 base_radixsort1198647449
	sim-bpred -bpred bimod -bpred:bimod 1024 base_radixsort1198647449
	sim-bpred -bpred bimod -bpred:bimod 2048 base_radixsort1198647449
	sim-bpred -bpred 2lev -bpred:2lev 1 512 10 1 base_radixsort1198647449
	sim-bpred -bpred 2lev -bpred:2lev 1 1024 10 1 base_radixsort1198647449
	sim-bpred -bpred 2lev -bpred:2lev 1 2048 10 1 base_radixsort1198647449
	sim-bpred -bpred 2lev -bpred:2lev 1 4096 10 1 base_radixsort1198647449
