Thu Aug  4 00:46:40 2005
Run as: "./do_simple -c random.org9 -o 9 base_mergesort"
-------------------------------------------------------------------------------------------------
sim-cache                                     4096 |         4096 |         4096 |         4096 |         8192 |         8192 |         8192 |         8192 |        16384 |        16384 |        16384 |        16384 |        32768 |        32768 |        32768 |        32768 |        65536 |        65536 |        65536 |        65536 |       131072 |       131072 |       131072 |       131072 |       262144 |       262144 |       262144 |       262144 |       524288 |       524288 |       524288 |       524288 |      1048576 |      1048576 |      1048576 |      1048576 |      2097152 |      2097152 |      2097152 |      2097152 |      4194304 |      4194304 |      4194304 |      4194304 |
-cache:dl1 dl1:256:32:1:l -cache:dl2 dl2:131072:32:1:l -cache:il1 il1:256:32:1:l -cache:il2 dl2
-cache:dl1 dl1:256:32:1:l -cache:dl2 dl2:65536:32:1:l -cache:il1 il1:256:32:1:l -cache:il2 dl2
-cache:dl1 dl1:1:32:256:l -cache:dl2 dl2:1:32:131072:l -cache:il1 il1:1:32:256:l -cache:il2 dl2
-cache:dl1 dl1:1:32:256:l -cache:dl2 dl2:1:32:65536:l -cache:il1 il1:1:32:256:l -cache:il2 dl2
-------------------------------------------------------------------------------------------------
sim_num_insn                                749700 |       749700 |       749700 |       749700 |      1652009 |      1652009 |      1652009 |      1652009 |      3528549 |      3528549 |      3528549 |      3528549 |      7674172 |      7674172 |      7674172 |      7674172 |     16256400 |     16256400 |     16256400 |     16256400 |     34997099 |     34997099 |     34997099 |     34997099 |     73658435 |     73658435 |     73658435 |     73658435 |    157259891 |    157259891 |    157259891 |    157259891 |    329200339 |    329200339 |    329200339 |    329200339 |    698301658 |    698301658 |    698301658 |    698301658 |   1455298829 |   1455298829 |   1455298829 |   1455298829 |
sim_num_refs                                205310 |       205310 |       205310 |       205310 |       460843 |       460843 |       460843 |       460843 |       959164 |       959164 |       959164 |       959164 |      2127661 |      2127661 |      2127661 |      2127661 |      4414928 |      4414928 |      4414928 |      4414928 |      9677721 |      9677721 |      9677721 |      9677721 |     20006464 |     20006464 |     20006464 |     20006464 |     43412955 |     43412955 |     43412955 |     43412955 |     89450722 |     89450722 |     89450722 |     89450722 |    192536323 |    192536323 |    192536323 |    192536323 |    395542346 |    395542346 |    395542346 |    395542346 |
sim_elapsed_time                                 1 |            1 |           10 |            5 |            1 |            1 |           15 |            8 |            1 |            1 |           26 |           13 |            2 |            2 |           47 |           24 |            5 |            4 |           89 |           43 |            9 |            9 |          163 |           75 |           20 |           20 |          278 |          106 |           42 |           43 |          387 |          132 |           88 |           88 |          440 |          185 |          187 |          187 |          556 |          300 |          388 |          388 |          786 |          529 |
sim_inst_rate                          749700.0000 |  749700.0000 |   74970.0000 |  149940.0000 | 1652009.0000 | 1652009.0000 |  110133.9333 |  206501.1250 | 3528549.0000 | 3528549.0000 |  135713.4231 |  271426.8462 | 3837086.0000 | 3837086.0000 |  163280.2553 |  319757.1667 | 3251280.0000 | 4064100.0000 |  182656.1798 |  378055.8140 | 3888566.5556 | 3888566.5556 |  214706.1288 |  466627.9867 | 3682921.7500 | 3682921.7500 |  264958.3993 |  694890.8962 | 3744283.1190 | 3657206.7674 |  406356.3075 | 1191362.8106 | 3740912.9432 | 3740912.9432 |  748182.5886 | 1779461.2919 | 3734233.4652 | 3734233.4652 | 1255938.2338 | 2327672.1933 | 3750770.1778 | 3750770.1778 | 1851525.2277 | 2751037.4839 |
il1.accesses                                749700 |       749700 |       749700 |       749700 |      1652009 |      1652009 |      1652009 |      1652009 |      3528549 |      3528549 |      3528549 |      3528549 |      7674172 |      7674172 |      7674172 |      7674172 |     16256400 |     16256400 |     16256400 |     16256400 |     34997099 |     34997099 |     34997099 |     34997099 |     73658435 |     73658435 |     73658435 |     73658435 |    157259891 |    157259891 |    157259891 |    157259891 |    329200339 |    329200339 |    329200339 |    329200339 |    698301658 |    698301658 |    698301658 |    698301658 |   1455298829 |   1455298829 |   1455298829 |   1455298829 |
il1.hits                                    749229 |       749229 |       749282 |       749282 |      1651487 |      1651487 |      1651550 |      1651550 |      3528037 |      3528037 |      3528116 |      3528116 |      7673648 |      7673648 |      7673711 |      7673711 |     16255896 |     16255896 |     16255961 |     16255961 |     34996576 |     34996576 |     34996639 |     34996639 |     73657932 |     73657932 |     73657998 |     73657998 |    157259368 |    157259368 |    157259431 |    157259431 |    329199801 |    329199801 |    329199869 |    329199869 |    698301110 |    698301110 |    698301186 |    698301186 |   1455298291 |   1455298291 |   1455298359 |   1455298359 |
il1.misses                                     471 |          471 |          418 |          418 |          522 |          522 |          459 |          459 |          512 |          512 |          433 |          433 |          524 |          524 |          461 |          461 |          504 |          504 |          439 |          439 |          523 |          523 |          460 |          460 |          503 |          503 |          437 |          437 |          523 |          523 |          460 |          460 |          538 |          538 |          470 |          470 |          548 |          548 |          472 |          472 |          538 |          538 |          470 |          470 |
il1.replacements                               267 |          267 |          162 |          162 |          305 |          305 |          203 |          203 |          312 |          312 |          177 |          177 |          308 |          308 |          205 |          205 |          302 |          302 |          183 |          183 |          307 |          307 |          204 |          204 |          301 |          301 |          181 |          181 |          307 |          307 |          204 |          204 |          309 |          309 |          214 |          214 |          319 |          319 |          216 |          216 |          309 |          309 |          214 |          214 |
il1.writebacks                                   0 |            0 |            0 |            0 |            0 |            0 |            0 |            0 |            0 |            0 |            0 |            0 |            0 |            0 |            0 |            0 |            0 |            0 |            0 |            0 |            0 |            0 |            0 |            0 |            0 |            0 |            0 |            0 |            0 |            0 |            0 |            0 |            0 |            0 |            0 |            0 |            0 |            0 |            0 |            0 |            0 |            0 |            0 |            0 |
il1.invalidations                                0 |            0 |            0 |            0 |            0 |            0 |            0 |            0 |            0 |            0 |            0 |            0 |            0 |            0 |            0 |            0 |            0 |            0 |            0 |            0 |            0 |            0 |            0 |            0 |            0 |            0 |            0 |            0 |            0 |            0 |            0 |            0 |            0 |            0 |            0 |            0 |            0 |            0 |            0 |            0 |            0 |            0 |            0 |            0 |
il1.miss_rate                               0.0006 |       0.0006 |       0.0006 |       0.0006 |       0.0003 |       0.0003 |       0.0003 |       0.0003 |       0.0001 |       0.0001 |       0.0001 |       0.0001 |       0.0001 |       0.0001 |       0.0001 |       0.0001 |       0.0000 |       0.0000 |       0.0000 |       0.0000 |       0.0000 |       0.0000 |       0.0000 |       0.0000 |       0.0000 |       0.0000 |       0.0000 |       0.0000 |       0.0000 |       0.0000 |       0.0000 |       0.0000 |       0.0000 |       0.0000 |       0.0000 |       0.0000 |       0.0000 |       0.0000 |       0.0000 |       0.0000 |       0.0000 |       0.0000 |       0.0000 |       0.0000 |
il1.repl_rate                               0.0004 |       0.0004 |       0.0002 |       0.0002 |       0.0002 |       0.0002 |       0.0001 |       0.0001 |       0.0001 |       0.0001 |       0.0001 |       0.0001 |       0.0000 |       0.0000 |       0.0000 |       0.0000 |       0.0000 |       0.0000 |       0.0000 |       0.0000 |       0.0000 |       0.0000 |       0.0000 |       0.0000 |       0.0000 |       0.0000 |       0.0000 |       0.0000 |       0.0000 |       0.0000 |       0.0000 |       0.0000 |       0.0000 |       0.0000 |       0.0000 |       0.0000 |       0.0000 |       0.0000 |       0.0000 |       0.0000 |       0.0000 |       0.0000 |       0.0000 |       0.0000 |
il1.wb_rate                                 0.0000 |       0.0000 |       0.0000 |       0.0000 |       0.0000 |       0.0000 |       0.0000 |       0.0000 |       0.0000 |       0.0000 |       0.0000 |       0.0000 |       0.0000 |       0.0000 |       0.0000 |       0.0000 |       0.0000 |       0.0000 |       0.0000 |       0.0000 |       0.0000 |       0.0000 |       0.0000 |       0.0000 |       0.0000 |       0.0000 |       0.0000 |       0.0000 |       0.0000 |       0.0000 |       0.0000 |       0.0000 |       0.0000 |       0.0000 |       0.0000 |       0.0000 |       0.0000 |       0.0000 |       0.0000 |       0.0000 |       0.0000 |       0.0000 |       0.0000 |       0.0000 |
il1.inv_rate                                0.0000 |       0.0000 |       0.0000 |       0.0000 |       0.0000 |       0.0000 |       0.0000 |       0.0000 |       0.0000 |       0.0000 |       0.0000 |       0.0000 |       0.0000 |       0.0000 |       0.0000 |       0.0000 |       0.0000 |       0.0000 |       0.0000 |       0.0000 |       0.0000 |       0.0000 |       0.0000 |       0.0000 |       0.0000 |       0.0000 |       0.0000 |       0.0000 |       0.0000 |       0.0000 |       0.0000 |       0.0000 |       0.0000 |       0.0000 |       0.0000 |       0.0000 |       0.0000 |       0.0000 |       0.0000 |       0.0000 |       0.0000 |       0.0000 |       0.0000 |       0.0000 |
dl1.accesses                                221776 |       221776 |       221776 |       221776 |       493693 |       493693 |       493693 |       493693 |      1024782 |      1024782 |      1024782 |      1024782 |      2258815 |      2258815 |      2258815 |      2258815 |      4677154 |      4677154 |      4677154 |      4677154 |     10202091 |     10202091 |     10202091 |     10202091 |     21055122 |     21055122 |     21055122 |     21055122 |     45510189 |     45510189 |     45510189 |     45510189 |     93645108 |     93645108 |     93645108 |     93645108 |    200925013 |    200925013 |    200925013 |    200925013 |    412319644 |    412319644 |    412319644 |    412319644 |
dl1.hits                                    209827 |       209827 |       210050 |       210050 |       465951 |       465951 |       466593 |       466593 |       969474 |       969474 |       971046 |       971046 |      2131422 |      2131422 |      2135411 |      2135411 |      4421036 |      4421036 |      4430810 |      4430810 |      9621273 |      9621273 |      9644319 |      9644319 |     19887511 |     19887511 |     19940042 |     19940042 |     42899215 |     42899215 |     43018337 |     43018337 |     88391818 |     88391818 |     88660709 |     88660709 |    189312623 |    189312623 |    189908482 |    189908482 |    388982593 |    388982593 |    390287437 |    390287437 |
dl1.misses                                   11949 |        11949 |        11726 |        11726 |        27742 |        27742 |        27100 |        27100 |        55308 |        55308 |        53736 |        53736 |       127393 |       127393 |       123404 |       123404 |       256118 |       256118 |       246344 |       246344 |       580818 |       580818 |       557772 |       557772 |      1167611 |      1167611 |      1115080 |      1115080 |      2610974 |      2610974 |      2491852 |      2491852 |      5253290 |      5253290 |      4984399 |      4984399 |     11612390 |     11612390 |     11016531 |     11016531 |     23337051 |     23337051 |     22032207 |     22032207 |
dl1.replacements                             11693 |        11693 |        11470 |        11470 |        27486 |        27486 |        26844 |        26844 |        55052 |        55052 |        53480 |        53480 |       127137 |       127137 |       123148 |       123148 |       255862 |       255862 |       246088 |       246088 |       580562 |       580562 |       557516 |       557516 |      1167355 |      1167355 |      1114824 |      1114824 |      2610718 |      2610718 |      2491596 |      2491596 |      5253034 |      5253034 |      4984143 |      4984143 |     11612134 |     11612134 |     11016275 |     11016275 |     23336795 |     23336795 |     22031951 |     22031951 |
dl1.writebacks                                6564 |         6564 |         6448 |         6448 |        14856 |        14856 |        14649 |        14649 |        29505 |        29505 |        28993 |        28993 |        67095 |        67095 |        65880 |        65880 |       134330 |       134330 |       131456 |       131456 |       301856 |       301856 |       295383 |       295383 |       605090 |       605090 |       590458 |       590458 |      1344517 |      1344517 |      1311692 |      1311692 |      2697079 |      2697079 |      2623840 |      2623840 |      5932805 |      5932805 |      5771662 |      5771662 |     11892753 |     11892753 |     11543015 |     11543015 |
dl1.invalidations                                0 |            0 |            0 |            0 |            0 |            0 |            0 |            0 |            0 |            0 |            0 |            0 |            0 |            0 |            0 |            0 |            0 |            0 |            0 |            0 |            0 |            0 |            0 |            0 |            0 |            0 |            0 |            0 |            0 |            0 |            0 |            0 |            0 |            0 |            0 |            0 |            0 |            0 |            0 |            0 |            0 |            0 |            0 |            0 |
dl1.miss_rate                               0.0539 |       0.0539 |       0.0529 |       0.0529 |       0.0562 |       0.0562 |       0.0549 |       0.0549 |       0.0540 |       0.0540 |       0.0524 |       0.0524 |       0.0564 |       0.0564 |       0.0546 |       0.0546 |       0.0548 |       0.0548 |       0.0527 |       0.0527 |       0.0569 |       0.0569 |       0.0547 |       0.0547 |       0.0555 |       0.0555 |       0.0530 |       0.0530 |       0.0574 |       0.0574 |       0.0548 |       0.0548 |       0.0561 |       0.0561 |       0.0532 |       0.0532 |       0.0578 |       0.0578 |       0.0548 |       0.0548 |       0.0566 |       0.0566 |       0.0534 |       0.0534 |
dl1.repl_rate                               0.0527 |       0.0527 |       0.0517 |       0.0517 |       0.0557 |       0.0557 |       0.0544 |       0.0544 |       0.0537 |       0.0537 |       0.0522 |       0.0522 |       0.0563 |       0.0563 |       0.0545 |       0.0545 |       0.0547 |       0.0547 |       0.0526 |       0.0526 |       0.0569 |       0.0569 |       0.0546 |       0.0546 |       0.0554 |       0.0554 |       0.0529 |       0.0529 |       0.0574 |       0.0574 |       0.0547 |       0.0547 |       0.0561 |       0.0561 |       0.0532 |       0.0532 |       0.0578 |       0.0578 |       0.0548 |       0.0548 |       0.0566 |       0.0566 |       0.0534 |       0.0534 |
dl1.wb_rate                                 0.0296 |       0.0296 |       0.0291 |       0.0291 |       0.0301 |       0.0301 |       0.0297 |       0.0297 |       0.0288 |       0.0288 |       0.0283 |       0.0283 |       0.0297 |       0.0297 |       0.0292 |       0.0292 |       0.0287 |       0.0287 |       0.0281 |       0.0281 |       0.0296 |       0.0296 |       0.0290 |       0.0290 |       0.0287 |       0.0287 |       0.0280 |       0.0280 |       0.0295 |       0.0295 |       0.0288 |       0.0288 |       0.0288 |       0.0288 |       0.0280 |       0.0280 |       0.0295 |       0.0295 |       0.0287 |       0.0287 |       0.0288 |       0.0288 |       0.0280 |       0.0280 |
dl1.inv_rate                                0.0000 |       0.0000 |       0.0000 |       0.0000 |       0.0000 |       0.0000 |       0.0000 |       0.0000 |       0.0000 |       0.0000 |       0.0000 |       0.0000 |       0.0000 |       0.0000 |       0.0000 |       0.0000 |       0.0000 |       0.0000 |       0.0000 |       0.0000 |       0.0000 |       0.0000 |       0.0000 |       0.0000 |       0.0000 |       0.0000 |       0.0000 |       0.0000 |       0.0000 |       0.0000 |       0.0000 |       0.0000 |       0.0000 |       0.0000 |       0.0000 |       0.0000 |       0.0000 |       0.0000 |       0.0000 |       0.0000 |       0.0000 |       0.0000 |       0.0000 |       0.0000 |
dl2.accesses                                 18984 |        18984 |        18592 |        18592 |        43120 |        43120 |        42208 |        42208 |        85325 |        85325 |        83162 |        83162 |       195012 |       195012 |       189745 |       189745 |       390952 |       390952 |       378239 |       378239 |       883197 |       883197 |       853615 |       853615 |      1773204 |      1773204 |      1705975 |      1705975 |      3956014 |      3956014 |      3804004 |      3804004 |      7950907 |      7950907 |      7608709 |      7608709 |     17545743 |     17545743 |     16788665 |     16788665 |     35230342 |     35230342 |     33575692 |     33575692 |
dl2.hits                                     17113 |        17113 |        16747 |        16747 |        40209 |        40209 |        39327 |        39327 |        80388 |        80388 |        78258 |        78258 |       185953 |       185953 |       180718 |       180718 |       373721 |       373721 |       361041 |       361041 |       849563 |       849563 |       820013 |       820013 |      1706822 |      1657383 |      1639626 |      1541491 |      3767422 |      1660418 |      3437437 |      1312776 |      3361763 |      2967965 |      2626342 |      2626278 |      6529070 |      6528730 |      5776144 |      5776144 |     13197857 |     13197028 |     11551585 |     11551585 |
dl2.misses                                    1871 |         1871 |         1845 |         1845 |         2911 |         2911 |         2881 |         2881 |         4937 |         4937 |         4904 |         4904 |         9059 |         9059 |         9027 |         9027 |        17231 |        17231 |        17198 |        17198 |        33634 |        33634 |        33602 |        33602 |        66382 |       115821 |        66349 |       164484 |       188592 |      2295596 |       366567 |      2491228 |      4589144 |      4982942 |      4982367 |      4982431 |     11016673 |     11017013 |     11012521 |     11012521 |     22032485 |     22033314 |     22024107 |     22024107 |
dl2.replacements                               254 |          254 |            0 |            0 |          281 |          281 |            0 |            0 |          281 |          281 |            0 |            0 |          305 |          305 |            0 |            0 |          286 |          286 |            0 |            0 |          305 |          305 |            0 |            0 |          286 |        51396 |            0 |        98948 |        58630 |      2230060 |       235495 |      2425692 |      4458072 |      4917406 |      4851295 |      4916895 |     10885601 |     10951477 |     10881449 |     10946985 |     21901413 |     21967778 |     21893035 |     21958571 |
dl2.writebacks                                 175 |          175 |            0 |            0 |          186 |          186 |            0 |            0 |          183 |          183 |            0 |            0 |          208 |          208 |            0 |            0 |          188 |          188 |            0 |            0 |          208 |          208 |            0 |            0 |          188 |        27972 |            0 |        98712 |        31873 |      1182782 |       235242 |      1278410 |      2449187 |      2581013 |      2557081 |      2589849 |      5641684 |      5707284 |      5703540 |      5736308 |     11455376 |     11499230 |     11472164 |     11504932 |
dl2.invalidations                                0 |            0 |            0 |            0 |            0 |            0 |            0 |            0 |            0 |            0 |            0 |            0 |            0 |            0 |            0 |            0 |            0 |            0 |            0 |            0 |            0 |            0 |            0 |            0 |            0 |            0 |            0 |            0 |            0 |            0 |            0 |            0 |            0 |            0 |            0 |            0 |            0 |            0 |            0 |            0 |            0 |            0 |            0 |            0 |
dl2.miss_rate                               0.0986 |       0.0986 |       0.0992 |       0.0992 |       0.0675 |       0.0675 |       0.0683 |       0.0683 |       0.0579 |       0.0579 |       0.0590 |       0.0590 |       0.0465 |       0.0465 |       0.0476 |       0.0476 |       0.0441 |       0.0441 |       0.0455 |       0.0455 |       0.0381 |       0.0381 |       0.0394 |       0.0394 |       0.0374 |       0.0653 |       0.0389 |       0.0964 |       0.0477 |       0.5803 |       0.0964 |       0.6549 |       0.5772 |       0.6267 |       0.6548 |       0.6548 |       0.6279 |       0.6279 |       0.6559 |       0.6559 |       0.6254 |       0.6254 |       0.6560 |       0.6560 |
dl2.repl_rate                               0.0134 |       0.0134 |       0.0000 |       0.0000 |       0.0065 |       0.0065 |       0.0000 |       0.0000 |       0.0033 |       0.0033 |       0.0000 |       0.0000 |       0.0016 |       0.0016 |       0.0000 |       0.0000 |       0.0007 |       0.0007 |       0.0000 |       0.0000 |       0.0003 |       0.0003 |       0.0000 |       0.0000 |       0.0002 |       0.0290 |       0.0000 |       0.0580 |       0.0148 |       0.5637 |       0.0619 |       0.6377 |       0.5607 |       0.6185 |       0.6376 |       0.6462 |       0.6204 |       0.6242 |       0.6481 |       0.6520 |       0.6217 |       0.6235 |       0.6521 |       0.6540 |
dl2.wb_rate                                 0.0092 |       0.0092 |       0.0000 |       0.0000 |       0.0043 |       0.0043 |       0.0000 |       0.0000 |       0.0021 |       0.0021 |       0.0000 |       0.0000 |       0.0011 |       0.0011 |       0.0000 |       0.0000 |       0.0005 |       0.0005 |       0.0000 |       0.0000 |       0.0002 |       0.0002 |       0.0000 |       0.0000 |       0.0001 |       0.0158 |       0.0000 |       0.0579 |       0.0081 |       0.2990 |       0.0618 |       0.3361 |       0.3080 |       0.3246 |       0.3361 |       0.3404 |       0.3215 |       0.3253 |       0.3397 |       0.3417 |       0.3252 |       0.3264 |       0.3417 |       0.3427 |
dl2.inv_rate                                0.0000 |       0.0000 |       0.0000 |       0.0000 |       0.0000 |       0.0000 |       0.0000 |       0.0000 |       0.0000 |       0.0000 |       0.0000 |       0.0000 |       0.0000 |       0.0000 |       0.0000 |       0.0000 |       0.0000 |       0.0000 |       0.0000 |       0.0000 |       0.0000 |       0.0000 |       0.0000 |       0.0000 |       0.0000 |       0.0000 |       0.0000 |       0.0000 |       0.0000 |       0.0000 |       0.0000 |       0.0000 |       0.0000 |       0.0000 |       0.0000 |       0.0000 |       0.0000 |       0.0000 |       0.0000 |       0.0000 |       0.0000 |       0.0000 |       0.0000 |       0.0000 |
itlb.accesses                               749700 |       749700 |       749700 |       749700 |      1652009 |      1652009 |      1652009 |      1652009 |      3528549 |      3528549 |      3528549 |      3528549 |      7674172 |      7674172 |      7674172 |      7674172 |     16256400 |     16256400 |     16256400 |     16256400 |     34997099 |     34997099 |     34997099 |     34997099 |     73658435 |     73658435 |     73658435 |     73658435 |    157259891 |    157259891 |    157259891 |    157259891 |    329200339 |    329200339 |    329200339 |    329200339 |    698301658 |    698301658 |    698301658 |    698301658 |   1455298829 |   1455298829 |   1455298829 |   1455298829 |
itlb.hits                                   749689 |       749689 |       749689 |       749689 |      1651998 |      1651998 |      1651998 |      1651998 |      3528539 |      3528539 |      3528539 |      3528539 |      7674162 |      7674162 |      7674162 |      7674162 |     16256390 |     16256390 |     16256390 |     16256390 |     34997089 |     34997089 |     34997089 |     34997089 |     73658425 |     73658425 |     73658425 |     73658425 |    157259881 |    157259881 |    157259881 |    157259881 |    329200329 |    329200329 |    329200329 |    329200329 |    698301648 |    698301648 |    698301648 |    698301648 |   1455298819 |   1455298819 |   1455298819 |   1455298819 |
itlb.misses                                     11 |           11 |           11 |           11 |           11 |           11 |           11 |           11 |           10 |           10 |           10 |           10 |           10 |           10 |           10 |           10 |           10 |           10 |           10 |           10 |           10 |           10 |           10 |           10 |           10 |           10 |           10 |           10 |           10 |           10 |           10 |           10 |           10 |           10 |           10 |           10 |           10 |           10 |           10 |           10 |           10 |           10 |           10 |           10 |
itlb.replacements                                0 |            0 |            0 |            0 |            0 |            0 |            0 |            0 |            0 |            0 |            0 |            0 |            0 |            0 |            0 |            0 |            0 |            0 |            0 |            0 |            0 |            0 |            0 |            0 |            0 |            0 |            0 |            0 |            0 |            0 |            0 |            0 |            0 |            0 |            0 |            0 |            0 |            0 |            0 |            0 |            0 |            0 |            0 |            0 |
itlb.writebacks                                  0 |            0 |            0 |            0 |            0 |            0 |            0 |            0 |            0 |            0 |            0 |            0 |            0 |            0 |            0 |            0 |            0 |            0 |            0 |            0 |            0 |            0 |            0 |            0 |            0 |            0 |            0 |            0 |            0 |            0 |            0 |            0 |            0 |            0 |            0 |            0 |            0 |            0 |            0 |            0 |            0 |            0 |            0 |            0 |
itlb.invalidations                               0 |            0 |            0 |            0 |            0 |            0 |            0 |            0 |            0 |            0 |            0 |            0 |            0 |            0 |            0 |            0 |            0 |            0 |            0 |            0 |            0 |            0 |            0 |            0 |            0 |            0 |            0 |            0 |            0 |            0 |            0 |            0 |            0 |            0 |            0 |            0 |            0 |            0 |            0 |            0 |            0 |            0 |            0 |            0 |
itlb.miss_rate                              0.0000 |       0.0000 |       0.0000 |       0.0000 |       0.0000 |       0.0000 |       0.0000 |       0.0000 |       0.0000 |       0.0000 |       0.0000 |       0.0000 |       0.0000 |       0.0000 |       0.0000 |       0.0000 |       0.0000 |       0.0000 |       0.0000 |       0.0000 |       0.0000 |       0.0000 |       0.0000 |       0.0000 |       0.0000 |       0.0000 |       0.0000 |       0.0000 |       0.0000 |       0.0000 |       0.0000 |       0.0000 |       0.0000 |       0.0000 |       0.0000 |       0.0000 |       0.0000 |       0.0000 |       0.0000 |       0.0000 |       0.0000 |       0.0000 |       0.0000 |       0.0000 |
itlb.repl_rate                              0.0000 |       0.0000 |       0.0000 |       0.0000 |       0.0000 |       0.0000 |       0.0000 |       0.0000 |       0.0000 |       0.0000 |       0.0000 |       0.0000 |       0.0000 |       0.0000 |       0.0000 |       0.0000 |       0.0000 |       0.0000 |       0.0000 |       0.0000 |       0.0000 |       0.0000 |       0.0000 |       0.0000 |       0.0000 |       0.0000 |       0.0000 |       0.0000 |       0.0000 |       0.0000 |       0.0000 |       0.0000 |       0.0000 |       0.0000 |       0.0000 |       0.0000 |       0.0000 |       0.0000 |       0.0000 |       0.0000 |       0.0000 |       0.0000 |       0.0000 |       0.0000 |
itlb.wb_rate                                0.0000 |       0.0000 |       0.0000 |       0.0000 |       0.0000 |       0.0000 |       0.0000 |       0.0000 |       0.0000 |       0.0000 |       0.0000 |       0.0000 |       0.0000 |       0.0000 |       0.0000 |       0.0000 |       0.0000 |       0.0000 |       0.0000 |       0.0000 |       0.0000 |       0.0000 |       0.0000 |       0.0000 |       0.0000 |       0.0000 |       0.0000 |       0.0000 |       0.0000 |       0.0000 |       0.0000 |       0.0000 |       0.0000 |       0.0000 |       0.0000 |       0.0000 |       0.0000 |       0.0000 |       0.0000 |       0.0000 |       0.0000 |       0.0000 |       0.0000 |       0.0000 |
itlb.inv_rate                               0.0000 |       0.0000 |       0.0000 |       0.0000 |       0.0000 |       0.0000 |       0.0000 |       0.0000 |       0.0000 |       0.0000 |       0.0000 |       0.0000 |       0.0000 |       0.0000 |       0.0000 |       0.0000 |       0.0000 |       0.0000 |       0.0000 |       0.0000 |       0.0000 |       0.0000 |       0.0000 |       0.0000 |       0.0000 |       0.0000 |       0.0000 |       0.0000 |       0.0000 |       0.0000 |       0.0000 |       0.0000 |       0.0000 |       0.0000 |       0.0000 |       0.0000 |       0.0000 |       0.0000 |       0.0000 |       0.0000 |       0.0000 |       0.0000 |       0.0000 |       0.0000 |
dtlb.accesses                               221776 |       221776 |       221776 |       221776 |       493693 |       493693 |       493693 |       493693 |      1024782 |      1024782 |      1024782 |      1024782 |      2258815 |      2258815 |      2258815 |      2258815 |      4677154 |      4677154 |      4677154 |      4677154 |     10202091 |     10202091 |     10202091 |     10202091 |     21055122 |     21055122 |     21055122 |     21055122 |     45510189 |     45510189 |     45510189 |     45510189 |     93645108 |     93645108 |     93645108 |     93645108 |    200925013 |    200925013 |    200925013 |    200925013 |    412319644 |    412319644 |    412319644 |    412319644 |
dtlb.hits                                   221761 |       221761 |       221761 |       221761 |       493670 |       493670 |       493670 |       493670 |      1024743 |      1024743 |      1024743 |      1024743 |      2258744 |      2258744 |      2258744 |      2258744 |      4676954 |      4676954 |      4676954 |      4676954 |     10197850 |     10197850 |     10197850 |     10197850 |     21046384 |     21046384 |     21046384 |     21046384 |     45490688 |     45490688 |     45490688 |     45490688 |     93606131 |     93606131 |     93606131 |     93606131 |    200838892 |    200838892 |    200838892 |    200838892 |    412147433 |    412147433 |    412147433 |    412147433 |
dtlb.misses                                     15 |           15 |           15 |           15 |           23 |           23 |           23 |           23 |           39 |           39 |           39 |           39 |           71 |           71 |           71 |           71 |          200 |          200 |          200 |          200 |         4241 |         4241 |         4241 |         4241 |         8738 |         8738 |         8738 |         8738 |        19501 |        19501 |        19501 |        19501 |        38977 |        38977 |        38977 |        38977 |        86121 |        86121 |        86121 |        86121 |       172211 |       172211 |       172211 |       172211 |
dtlb.replacements                                0 |            0 |            0 |            0 |            0 |            0 |            0 |            0 |            0 |            0 |            0 |            0 |            0 |            0 |            0 |            0 |           72 |           72 |           72 |           72 |         4113 |         4113 |         4113 |         4113 |         8610 |         8610 |         8610 |         8610 |        19373 |        19373 |        19373 |        19373 |        38849 |        38849 |        38849 |        38849 |        85993 |        85993 |        85993 |        85993 |       172083 |       172083 |       172083 |       172083 |
dtlb.writebacks                                  0 |            0 |            0 |            0 |            0 |            0 |            0 |            0 |            0 |            0 |            0 |            0 |            0 |            0 |            0 |            0 |           42 |           42 |           42 |           42 |         2152 |         2152 |         2152 |         2152 |         4564 |         4564 |         4564 |         4564 |        10205 |        10205 |        10205 |        10205 |        20458 |        20458 |        20458 |        20458 |        45063 |        45063 |        45063 |        45063 |        90172 |        90172 |        90172 |        90172 |
dtlb.invalidations                               0 |            0 |            0 |            0 |            0 |            0 |            0 |            0 |            0 |            0 |            0 |            0 |            0 |            0 |            0 |            0 |            0 |            0 |            0 |            0 |            0 |            0 |            0 |            0 |            0 |            0 |            0 |            0 |            0 |            0 |            0 |            0 |            0 |            0 |            0 |            0 |            0 |            0 |            0 |            0 |            0 |            0 |            0 |            0 |
dtlb.miss_rate                              0.0001 |       0.0001 |       0.0001 |       0.0001 |       0.0000 |       0.0000 |       0.0000 |       0.0000 |       0.0000 |       0.0000 |       0.0000 |       0.0000 |       0.0000 |       0.0000 |       0.0000 |       0.0000 |       0.0000 |       0.0000 |       0.0000 |       0.0000 |       0.0004 |       0.0004 |       0.0004 |       0.0004 |       0.0004 |       0.0004 |       0.0004 |       0.0004 |       0.0004 |       0.0004 |       0.0004 |       0.0004 |       0.0004 |       0.0004 |       0.0004 |       0.0004 |       0.0004 |       0.0004 |       0.0004 |       0.0004 |       0.0004 |       0.0004 |       0.0004 |       0.0004 |
dtlb.repl_rate                              0.0000 |       0.0000 |       0.0000 |       0.0000 |       0.0000 |       0.0000 |       0.0000 |       0.0000 |       0.0000 |       0.0000 |       0.0000 |       0.0000 |       0.0000 |       0.0000 |       0.0000 |       0.0000 |       0.0000 |       0.0000 |       0.0000 |       0.0000 |       0.0004 |       0.0004 |       0.0004 |       0.0004 |       0.0004 |       0.0004 |       0.0004 |       0.0004 |       0.0004 |       0.0004 |       0.0004 |       0.0004 |       0.0004 |       0.0004 |       0.0004 |       0.0004 |       0.0004 |       0.0004 |       0.0004 |       0.0004 |       0.0004 |       0.0004 |       0.0004 |       0.0004 |
dtlb.wb_rate                                0.0000 |       0.0000 |       0.0000 |       0.0000 |       0.0000 |       0.0000 |       0.0000 |       0.0000 |       0.0000 |       0.0000 |       0.0000 |       0.0000 |       0.0000 |       0.0000 |       0.0000 |       0.0000 |       0.0000 |       0.0000 |       0.0000 |       0.0000 |       0.0002 |       0.0002 |       0.0002 |       0.0002 |       0.0002 |       0.0002 |       0.0002 |       0.0002 |       0.0002 |       0.0002 |       0.0002 |       0.0002 |       0.0002 |       0.0002 |       0.0002 |       0.0002 |       0.0002 |       0.0002 |       0.0002 |       0.0002 |       0.0002 |       0.0002 |       0.0002 |       0.0002 |
dtlb.inv_rate                               0.0000 |       0.0000 |       0.0000 |       0.0000 |       0.0000 |       0.0000 |       0.0000 |       0.0000 |       0.0000 |       0.0000 |       0.0000 |       0.0000 |       0.0000 |       0.0000 |       0.0000 |       0.0000 |       0.0000 |       0.0000 |       0.0000 |       0.0000 |       0.0000 |       0.0000 |       0.0000 |       0.0000 |       0.0000 |       0.0000 |       0.0000 |       0.0000 |       0.0000 |       0.0000 |       0.0000 |       0.0000 |       0.0000 |       0.0000 |       0.0000 |       0.0000 |       0.0000 |       0.0000 |       0.0000 |       0.0000 |       0.0000 |       0.0000 |       0.0000 |       0.0000 |
ld_text_base                            0x00400000 |   0x00400000 |   0x00400000 |   0x00400000 |   0x00400000 |   0x00400000 |   0x00400000 |   0x00400000 |   0x00400000 |   0x00400000 |   0x00400000 |   0x00400000 |   0x00400000 |   0x00400000 |   0x00400000 |   0x00400000 |   0x00400000 |   0x00400000 |   0x00400000 |   0x00400000 |   0x00400000 |   0x00400000 |   0x00400000 |   0x00400000 |   0x00400000 |   0x00400000 |   0x00400000 |   0x00400000 |   0x00400000 |   0x00400000 |   0x00400000 |   0x00400000 |   0x00400000 |   0x00400000 |   0x00400000 |   0x00400000 |   0x00400000 |   0x00400000 |   0x00400000 |   0x00400000 |   0x00400000 |   0x00400000 |   0x00400000 |   0x00400000 |
ld_text_size                                 74928 |        74928 |        74928 |        74928 |        74960 |        74960 |        74960 |        74960 |        74976 |        74976 |        74976 |        74976 |        74992 |        74992 |        74992 |        74992 |        74992 |        74992 |        74992 |        74992 |        74992 |        74992 |        74992 |        74992 |        74992 |        74992 |        74992 |        74992 |        74992 |        74992 |        74992 |        74992 |        74992 |        74992 |        74992 |        74992 |        74992 |        74992 |        74992 |        74992 |        74992 |        74992 |        74992 |        74992 |
ld_data_base                            0x10000000 |   0x10000000 |   0x10000000 |   0x10000000 |   0x10000000 |   0x10000000 |   0x10000000 |   0x10000000 |   0x10000000 |   0x10000000 |   0x10000000 |   0x10000000 |   0x10000000 |   0x10000000 |   0x10000000 |   0x10000000 |   0x10000000 |   0x10000000 |   0x10000000 |   0x10000000 |   0x10000000 |   0x10000000 |   0x10000000 |   0x10000000 |   0x10000000 |   0x10000000 |   0x10000000 |   0x10000000 |   0x10000000 |   0x10000000 |   0x10000000 |   0x10000000 |   0x10000000 |   0x10000000 |   0x10000000 |   0x10000000 |   0x10000000 |   0x10000000 |   0x10000000 |   0x10000000 |   0x10000000 |   0x10000000 |   0x10000000 |   0x10000000 |
ld_data_size                                  8192 |         8192 |         8192 |         8192 |         8192 |         8192 |         8192 |         8192 |         8192 |         8192 |         8192 |         8192 |         8192 |         8192 |         8192 |         8192 |         8192 |         8192 |         8192 |         8192 |         8192 |         8192 |         8192 |         8192 |         8192 |         8192 |         8192 |         8192 |         8192 |         8192 |         8192 |         8192 |         8192 |         8192 |         8192 |         8192 |         8192 |         8192 |         8192 |         8192 |         8192 |         8192 |         8192 |         8192 |
ld_stack_base                           0x7fffc000 |   0x7fffc000 |   0x7fffc000 |   0x7fffc000 |   0x7fffc000 |   0x7fffc000 |   0x7fffc000 |   0x7fffc000 |   0x7fffc000 |   0x7fffc000 |   0x7fffc000 |   0x7fffc000 |   0x7fffc000 |   0x7fffc000 |   0x7fffc000 |   0x7fffc000 |   0x7fffc000 |   0x7fffc000 |   0x7fffc000 |   0x7fffc000 |   0x7fffc000 |   0x7fffc000 |   0x7fffc000 |   0x7fffc000 |   0x7fffc000 |   0x7fffc000 |   0x7fffc000 |   0x7fffc000 |   0x7fffc000 |   0x7fffc000 |   0x7fffc000 |   0x7fffc000 |   0x7fffc000 |   0x7fffc000 |   0x7fffc000 |   0x7fffc000 |   0x7fffc000 |   0x7fffc000 |   0x7fffc000 |   0x7fffc000 |   0x7fffc000 |   0x7fffc000 |   0x7fffc000 |   0x7fffc000 |
ld_stack_size                                16384 |        16384 |        16384 |        16384 |        16384 |        16384 |        16384 |        16384 |        16384 |        16384 |        16384 |        16384 |        16384 |        16384 |        16384 |        16384 |        16384 |        16384 |        16384 |        16384 |        16384 |        16384 |        16384 |        16384 |        16384 |        16384 |        16384 |        16384 |        16384 |        16384 |        16384 |        16384 |        16384 |        16384 |        16384 |        16384 |        16384 |        16384 |        16384 |        16384 |        16384 |        16384 |        16384 |        16384 |
ld_prog_entry                           0x00400140 |   0x00400140 |   0x00400140 |   0x00400140 |   0x00400140 |   0x00400140 |   0x00400140 |   0x00400140 |   0x00400140 |   0x00400140 |   0x00400140 |   0x00400140 |   0x00400140 |   0x00400140 |   0x00400140 |   0x00400140 |   0x00400140 |   0x00400140 |   0x00400140 |   0x00400140 |   0x00400140 |   0x00400140 |   0x00400140 |   0x00400140 |   0x00400140 |   0x00400140 |   0x00400140 |   0x00400140 |   0x00400140 |   0x00400140 |   0x00400140 |   0x00400140 |   0x00400140 |   0x00400140 |   0x00400140 |   0x00400140 |   0x00400140 |   0x00400140 |   0x00400140 |   0x00400140 |   0x00400140 |   0x00400140 |   0x00400140 |   0x00400140 |
ld_environ_base                         0x7fff8000 |   0x7fff8000 |   0x7fff8000 |   0x7fff8000 |   0x7fff8000 |   0x7fff8000 |   0x7fff8000 |   0x7fff8000 |   0x7fff8000 |   0x7fff8000 |   0x7fff8000 |   0x7fff8000 |   0x7fff8000 |   0x7fff8000 |   0x7fff8000 |   0x7fff8000 |   0x7fff8000 |   0x7fff8000 |   0x7fff8000 |   0x7fff8000 |   0x7fff8000 |   0x7fff8000 |   0x7fff8000 |   0x7fff8000 |   0x7fff8000 |   0x7fff8000 |   0x7fff8000 |   0x7fff8000 |   0x7fff8000 |   0x7fff8000 |   0x7fff8000 |   0x7fff8000 |   0x7fff8000 |   0x7fff8000 |   0x7fff8000 |   0x7fff8000 |   0x7fff8000 |   0x7fff8000 |   0x7fff8000 |   0x7fff8000 |   0x7fff8000 |   0x7fff8000 |   0x7fff8000 |   0x7fff8000 |
ld_target_big_endian                             0 |            0 |            0 |            0 |            0 |            0 |            0 |            0 |            0 |            0 |            0 |            0 |            0 |            0 |            0 |            0 |            0 |            0 |            0 |            0 |            0 |            0 |            0 |            0 |            0 |            0 |            0 |            0 |            0 |            0 |            0 |            0 |            0 |            0 |            0 |            0 |            0 |            0 |            0 |            0 |            0 |            0 |            0 |            0 |
mem.page_count                                  34 |           34 |           34 |           34 |           42 |           42 |           42 |           42 |           58 |           58 |           58 |           58 |           90 |           90 |           90 |           90 |          154 |          154 |          154 |          154 |          282 |          282 |          282 |          282 |          538 |          538 |          538 |          538 |         1050 |         1050 |         1050 |         1050 |         2080 |         2080 |         2080 |         2080 |         4134 |         4134 |         4134 |         4134 |         8242 |         8242 |         8242 |         8242 |
mem.page_mem                                  136k |         136k |         136k |         136k |         168k |         168k |         168k |         168k |         232k |         232k |         232k |         232k |         360k |         360k |         360k |         360k |         616k |         616k |         616k |         616k |        1128k |        1128k |        1128k |        1128k |        2152k |        2152k |        2152k |        2152k |        4200k |        4200k |        4200k |        4200k |        8320k |        8320k |        8320k |        8320k |       16536k |       16536k |       16536k |       16536k |       32968k |       32968k |       32968k |       32968k |
mem.ptab_misses                                 34 |           34 |           34 |           34 |           42 |           42 |           42 |           42 |           58 |           58 |           58 |           58 |           90 |           90 |           90 |           90 |          154 |          154 |          154 |          154 |          282 |          282 |          282 |          282 |          538 |          538 |          538 |          538 |         1050 |         1050 |         1050 |         1050 |       104967 |       104967 |       104967 |       104967 |       111649 |       111649 |       111649 |       111649 |       123047 |       123047 |       123047 |       123047 |
mem.ptab_accesses                          3906498 |      3906498 |      3906498 |      3906498 |      8059760 |      8059760 |      8059760 |      8059760 |     16628194 |     16628194 |     16628194 |     16628194 |     35678848 |     35678848 |     35678848 |     35678848 |     74844438 |     74844438 |     74844438 |     74844438 |    160857108 |    160857108 |    160857108 |    160857108 |    337208514 |    337208514 |    337208514 |    337208514 |    720524472 |    720524472 |    720524472 |    720524472 |   1504556102 |   1504556102 |   1504556102 |   1504556102 |   3195521188 |   3195521188 |   3195521188 |   3195521188 |   6646299134 |   6646299134 |   6646299134 |   6646299134 |
mem.ptab_miss_rate                          0.0000 |       0.0000 |       0.0000 |       0.0000 |       0.0000 |       0.0000 |       0.0000 |       0.0000 |       0.0000 |       0.0000 |       0.0000 |       0.0000 |       0.0000 |       0.0000 |       0.0000 |       0.0000 |       0.0000 |       0.0000 |       0.0000 |       0.0000 |       0.0000 |       0.0000 |       0.0000 |       0.0000 |       0.0000 |       0.0000 |       0.0000 |       0.0000 |       0.0000 |       0.0000 |       0.0000 |       0.0000 |       0.0001 |       0.0001 |       0.0001 |       0.0001 |       0.0000 |       0.0000 |       0.0000 |       0.0000 |       0.0000 |       0.0000 |       0.0000 |       0.0000 |
-------------------------------------------------------------------------------------------------
sim-bpred                                     4096 |         4096 |         4096 |         4096 |         4096 |         4096 |         4096 |         8192 |         8192 |         8192 |         8192 |         8192 |         8192 |         8192 |        16384 |        16384 |        16384 |        16384 |        16384 |        16384 |        16384 |        32768 |        32768 |        32768 |        32768 |        32768 |        32768 |        32768 |        65536 |        65536 |        65536 |        65536 |        65536 |        65536 |        65536 |       131072 |       131072 |       131072 |       131072 |       131072 |       131072 |       131072 |       262144 |       262144 |       262144 |       262144 |       262144 |       262144 |       262144 |       524288 |       524288 |       524288 |       524288 |       524288 |       524288 |       524288 |      1048576 |      1048576 |      1048576 |      1048576 |      1048576 |      1048576 |      1048576 |      2097152 |      2097152 |      2097152 |      2097152 |      2097152 |      2097152 |      2097152 |      4194304 |      4194304 |      4194304 |      4194304 |      4194304 |      4194304 |      4194304 |
-bpred bimod -bpred:bimod 512
-bpred bimod -bpred:bimod 1024
-bpred bimod -bpred:bimod 2048
-bpred 2lev -bpred:2lev 1 512 10 1
-bpred 2lev -bpred:2lev 1 1024 10 1
-bpred 2lev -bpred:2lev 1 2048 10 1
-bpred 2lev -bpred:2lev 1 4096 10 1
-------------------------------------------------------------------------------------------------
sim_num_insn                                749700 |       749700 |       749700 |       749700 |       749700 |       749700 |       749700 |      1652009 |      1652009 |      1652009 |      1652009 |      1652009 |      1652009 |      1652009 |      3528549 |      3528549 |      3528549 |      3528549 |      3528549 |      3528549 |      3528549 |      7674172 |      7674172 |      7674172 |      7674172 |      7674172 |      7674172 |      7674172 |     16256400 |     16256400 |     16256400 |     16256400 |     16256400 |     16256400 |     16256400 |     34997099 |     34997099 |     34997099 |     34997099 |     34997099 |     34997099 |     34997099 |     73658435 |     73658435 |     73658435 |     73658435 |     73658435 |     73658435 |     73658435 |    157259891 |    157259891 |    157259891 |    157259891 |    157259891 |    157259891 |    157259891 |    329200339 |    329200339 |    329200339 |    329200339 |    329200339 |    329200339 |    329200339 |    698301658 |    698301658 |    698301658 |    698301658 |    698301658 |    698301658 |    698301658 |   1455298829 |   1455298829 |   1455298829 |   1455298829 |   1455298829 |   1455298829 |   1455298829 |
sim_num_refs                                205310 |       205310 |       205310 |       205310 |       205310 |       205310 |       205310 |       460843 |       460843 |       460843 |       460843 |       460843 |       460843 |       460843 |       959164 |       959164 |       959164 |       959164 |       959164 |       959164 |       959164 |      2127661 |      2127661 |      2127661 |      2127661 |      2127661 |      2127661 |      2127661 |      4414928 |      4414928 |      4414928 |      4414928 |      4414928 |      4414928 |      4414928 |      9677721 |      9677721 |      9677721 |      9677721 |      9677721 |      9677721 |      9677721 |     20006464 |     20006464 |     20006464 |     20006464 |     20006464 |     20006464 |     20006464 |     43412955 |     43412955 |     43412955 |     43412955 |     43412955 |     43412955 |     43412955 |     89450722 |     89450722 |     89450722 |     89450722 |     89450722 |     89450722 |     89450722 |    192536323 |    192536323 |    192536323 |    192536323 |    192536323 |    192536323 |    192536323 |    395542346 |    395542346 |    395542346 |    395542346 |    395542346 |    395542346 |    395542346 |
sim_elapsed_time                                 1 |            1 |            1 |            1 |            1 |            1 |            1 |            1 |            1 |            1 |            1 |            1 |            1 |            1 |            1 |            1 |            1 |            1 |            1 |            1 |            1 |            1 |            1 |            1 |            1 |            1 |            1 |            1 |            2 |            2 |            2 |            2 |            3 |            1 |            2 |            4 |            4 |            3 |            4 |            6 |            4 |            4 |            8 |           10 |            8 |            9 |           11 |            9 |            8 |           18 |           20 |           17 |           18 |           25 |           18 |           17 |           36 |           43 |           37 |           38 |           52 |           38 |           37 |           77 |           92 |           78 |           79 |          111 |           79 |           79 |          161 |          191 |          162 |          164 |          231 |          165 |          164 |
sim_inst_rate                          749700.0000 |  749700.0000 |  749700.0000 |  749700.0000 |  749700.0000 |  749700.0000 |  749700.0000 | 1652009.0000 | 1652009.0000 | 1652009.0000 | 1652009.0000 | 1652009.0000 | 1652009.0000 | 1652009.0000 | 3528549.0000 | 3528549.0000 | 3528549.0000 | 3528549.0000 | 3528549.0000 | 3528549.0000 | 3528549.0000 | 7674172.0000 | 7674172.0000 | 7674172.0000 | 7674172.0000 | 7674172.0000 | 7674172.0000 | 7674172.0000 | 8128200.0000 | 8128200.0000 | 8128200.0000 | 8128200.0000 | 5418800.0000 |16256400.0000 | 8128200.0000 | 8749274.7500 | 8749274.7500 |11665699.6667 | 8749274.7500 | 5832849.8333 | 8749274.7500 | 8749274.7500 | 9207304.3750 | 7365843.5000 | 9207304.3750 | 8184270.5556 | 6696221.3636 | 8184270.5556 | 9207304.3750 | 8736660.6111 | 7862994.5500 | 9250581.8235 | 8736660.6111 | 6290395.6400 | 8736660.6111 | 9250581.8235 | 9144453.8611 | 7655821.8372 | 8897306.4595 | 8663166.8158 | 6330775.7500 | 8663166.8158 | 8897306.4595 | 9068852.7013 | 7590235.4130 | 8952585.3590 | 8839261.4937 | 6291005.9279 | 8839261.4937 | 8839261.4937 | 9039123.1615 | 7619365.5969 | 8983326.1049 | 8873773.3476 | 6299994.9307 | 8819992.9030 | 8873773.3476 |
sim_num_branches                             94221 |        94221 |        94221 |        94221 |        94221 |        94221 |        94221 |       205571 |       205571 |       205571 |       205571 |       205571 |       205571 |       205571 |       441354 |       441354 |       441354 |       441354 |       441354 |       441354 |       441354 |       951851 |       951851 |       951851 |       951851 |       951851 |       951851 |       951851 |      2025552 |      2025552 |      2025552 |      2025552 |      2025552 |      2025552 |      2025552 |      4329427 |      4329427 |      4329427 |      4329427 |      4329427 |      4329427 |      4329427 |      9150517 |      9150517 |      9150517 |      9150517 |      9150517 |      9150517 |      9150517 |     19414678 |     19414678 |     19414678 |     19414678 |     19414678 |     19414678 |     19414678 |     40797749 |     40797749 |     40797749 |     40797749 |     40797749 |     40797749 |     40797749 |     86066258 |     86066258 |     86066258 |     86066258 |     86066258 |     86066258 |     86066258 |    180007852 |    180007852 |    180007852 |    180007852 |    180007852 |    180007852 |    180007852 |
sim_IPB                                     7.9568 |       7.9568 |       7.9568 |       7.9568 |       7.9568 |       7.9568 |       7.9568 |       8.0362 |       8.0362 |       8.0362 |       8.0362 |       8.0362 |       8.0362 |       8.0362 |       7.9948 |       7.9948 |       7.9948 |       7.9948 |       7.9948 |       7.9948 |       7.9948 |       8.0624 |       8.0624 |       8.0624 |       8.0624 |       8.0624 |       8.0624 |       8.0624 |       8.0257 |       8.0257 |       8.0257 |       8.0257 |       8.0257 |       8.0257 |       8.0257 |       8.0835 |       8.0835 |       8.0835 |       8.0835 |       8.0835 |       8.0835 |       8.0835 |       8.0496 |       8.0496 |       8.0496 |       8.0496 |       8.0496 |       8.0496 |       8.0496 |       8.1001 |       8.1001 |       8.1001 |       8.1001 |       8.1001 |       8.1001 |       8.1001 |       8.0691 |       8.0691 |       8.0691 |       8.0691 |       8.0691 |       8.0691 |       8.0691 |       8.1135 |       8.1135 |       8.1135 |       8.1135 |       8.1135 |       8.1135 |       8.1135 |       8.0846 |       8.0846 |       8.0846 |       8.0846 |       8.0846 |       8.0846 |       8.0846 |
bpred_bimod.lookups                          94221 |        94221 |        94221 |xxxxxxxxxxxxx |xxxxxxxxxxxxx |xxxxxxxxxxxxx |xxxxxxxxxxxxx |       205571 |       205571 |       205571 |xxxxxxxxxxxxx |xxxxxxxxxxxxx |xxxxxxxxxxxxx |xxxxxxxxxxxxx |       441354 |       441354 |       441354 |xxxxxxxxxxxxx |xxxxxxxxxxxxx |xxxxxxxxxxxxx |xxxxxxxxxxxxx |       951851 |       951851 |       951851 |xxxxxxxxxxxxx |xxxxxxxxxxxxx |xxxxxxxxxxxxx |xxxxxxxxxxxxx |      2025552 |      2025552 |      2025552 |xxxxxxxxxxxxx |xxxxxxxxxxxxx |xxxxxxxxxxxxx |xxxxxxxxxxxxx |      4329427 |      4329427 |      4329427 |xxxxxxxxxxxxx |xxxxxxxxxxxxx |xxxxxxxxxxxxx |xxxxxxxxxxxxx |      9150517 |      9150517 |      9150517 |xxxxxxxxxxxxx |xxxxxxxxxxxxx |xxxxxxxxxxxxx |xxxxxxxxxxxxx |     19414678 |     19414678 |     19414678 |xxxxxxxxxxxxx |xxxxxxxxxxxxx |xxxxxxxxxxxxx |xxxxxxxxxxxxx |     40797749 |     40797749 |     40797749 |xxxxxxxxxxxxx |xxxxxxxxxxxxx |xxxxxxxxxxxxx |xxxxxxxxxxxxx |     86066258 |     86066258 |     86066258 |xxxxxxxxxxxxx |xxxxxxxxxxxxx |xxxxxxxxxxxxx |xxxxxxxxxxxxx |    180007852 |    180007852 |    180007852 |
bpred_bimod.updates                          94221 |        94221 |        94221 |xxxxxxxxxxxxx |xxxxxxxxxxxxx |xxxxxxxxxxxxx |xxxxxxxxxxxxx |       205571 |       205571 |       205571 |xxxxxxxxxxxxx |xxxxxxxxxxxxx |xxxxxxxxxxxxx |xxxxxxxxxxxxx |       441354 |       441354 |       441354 |xxxxxxxxxxxxx |xxxxxxxxxxxxx |xxxxxxxxxxxxx |xxxxxxxxxxxxx |       951851 |       951851 |       951851 |xxxxxxxxxxxxx |xxxxxxxxxxxxx |xxxxxxxxxxxxx |xxxxxxxxxxxxx |      2025552 |      2025552 |      2025552 |xxxxxxxxxxxxx |xxxxxxxxxxxxx |xxxxxxxxxxxxx |xxxxxxxxxxxxx |      4329427 |      4329427 |      4329427 |xxxxxxxxxxxxx |xxxxxxxxxxxxx |xxxxxxxxxxxxx |xxxxxxxxxxxxx |      9150517 |      9150517 |      9150517 |xxxxxxxxxxxxx |xxxxxxxxxxxxx |xxxxxxxxxxxxx |xxxxxxxxxxxxx |     19414678 |     19414678 |     19414678 |xxxxxxxxxxxxx |xxxxxxxxxxxxx |xxxxxxxxxxxxx |xxxxxxxxxxxxx |     40797749 |     40797749 |     40797749 |xxxxxxxxxxxxx |xxxxxxxxxxxxx |xxxxxxxxxxxxx |xxxxxxxxxxxxx |     86066258 |     86066258 |     86066258 |xxxxxxxxxxxxx |xxxxxxxxxxxxx |xxxxxxxxxxxxx |xxxxxxxxxxxxx |    180007852 |    180007852 |    180007852 |
bpred_bimod.addr_hits                        68658 |        68661 |        68666 |xxxxxxxxxxxxx |xxxxxxxxxxxxx |xxxxxxxxxxxxx |xxxxxxxxxxxxx |       150796 |       150800 |       150804 |xxxxxxxxxxxxx |xxxxxxxxxxxxx |xxxxxxxxxxxxx |xxxxxxxxxxxxx |       324203 |       324204 |       324210 |xxxxxxxxxxxxx |xxxxxxxxxxxxx |xxxxxxxxxxxxx |xxxxxxxxxxxxx |       701567 |       701570 |       701576 |xxxxxxxxxxxxx |xxxxxxxxxxxxx |xxxxxxxxxxxxx |xxxxxxxxxxxxx |      1492059 |      1492061 |      1492068 |xxxxxxxxxxxxx |xxxxxxxxxxxxx |xxxxxxxxxxxxx |xxxxxxxxxxxxx |      3197328 |      3197331 |      3197337 |xxxxxxxxxxxxx |xxxxxxxxxxxxx |xxxxxxxxxxxxx |xxxxxxxxxxxxx |      6756158 |      6756160 |      6756166 |xxxxxxxxxxxxx |xxxxxxxxxxxxx |xxxxxxxxxxxxx |xxxxxxxxxxxxx |     14366118 |     14366121 |     14366126 |xxxxxxxxxxxxx |xxxxxxxxxxxxx |xxxxxxxxxxxxx |xxxxxxxxxxxxx |     30179711 |     30179714 |     30179719 |xxxxxxxxxxxxx |xxxxxxxxxxxxx |xxxxxxxxxxxxx |xxxxxxxxxxxxx |     63788490 |     63788493 |     63788497 |xxxxxxxxxxxxx |xxxxxxxxxxxxx |xxxxxxxxxxxxx |xxxxxxxxxxxxx |    133349113 |    133349116 |    133349121 |
bpred_bimod.dir_hits                         68775 |        68777 |        68780 |xxxxxxxxxxxxx |xxxxxxxxxxxxx |xxxxxxxxxxxxx |xxxxxxxxxxxxx |       150922 |       150925 |       150929 |xxxxxxxxxxxxx |xxxxxxxxxxxxx |xxxxxxxxxxxxx |xxxxxxxxxxxxx |       324325 |       324323 |       324329 |xxxxxxxxxxxxx |xxxxxxxxxxxxx |xxxxxxxxxxxxx |xxxxxxxxxxxxx |       701695 |       701696 |       701701 |xxxxxxxxxxxxx |xxxxxxxxxxxxx |xxxxxxxxxxxxx |xxxxxxxxxxxxx |      1492181 |      1492181 |      1492187 |xxxxxxxxxxxxx |xxxxxxxxxxxxx |xxxxxxxxxxxxx |xxxxxxxxxxxxx |      3197457 |      3197458 |      3197463 |xxxxxxxxxxxxx |xxxxxxxxxxxxx |xxxxxxxxxxxxx |xxxxxxxxxxxxx |      6756281 |      6756281 |      6756286 |xxxxxxxxxxxxx |xxxxxxxxxxxxx |xxxxxxxxxxxxx |xxxxxxxxxxxxx |     14366247 |     14366248 |     14366252 |xxxxxxxxxxxxx |xxxxxxxxxxxxx |xxxxxxxxxxxxx |xxxxxxxxxxxxx |     30179845 |     30179846 |     30179850 |xxxxxxxxxxxxx |xxxxxxxxxxxxx |xxxxxxxxxxxxx |xxxxxxxxxxxxx |     63788625 |     63788626 |     63788629 |xxxxxxxxxxxxx |xxxxxxxxxxxxx |xxxxxxxxxxxxx |xxxxxxxxxxxxx |    133349247 |    133349248 |    133349252 |
bpred_bimod.misses                           25446 |        25444 |        25441 |xxxxxxxxxxxxx |xxxxxxxxxxxxx |xxxxxxxxxxxxx |xxxxxxxxxxxxx |        54649 |        54646 |        54642 |xxxxxxxxxxxxx |xxxxxxxxxxxxx |xxxxxxxxxxxxx |xxxxxxxxxxxxx |       117029 |       117031 |       117025 |xxxxxxxxxxxxx |xxxxxxxxxxxxx |xxxxxxxxxxxxx |xxxxxxxxxxxxx |       250156 |       250155 |       250150 |xxxxxxxxxxxxx |xxxxxxxxxxxxx |xxxxxxxxxxxxx |xxxxxxxxxxxxx |       533371 |       533371 |       533365 |xxxxxxxxxxxxx |xxxxxxxxxxxxx |xxxxxxxxxxxxx |xxxxxxxxxxxxx |      1131970 |      1131969 |      1131964 |xxxxxxxxxxxxx |xxxxxxxxxxxxx |xxxxxxxxxxxxx |xxxxxxxxxxxxx |      2394236 |      2394236 |      2394231 |xxxxxxxxxxxxx |xxxxxxxxxxxxx |xxxxxxxxxxxxx |xxxxxxxxxxxxx |      5048431 |      5048430 |      5048426 |xxxxxxxxxxxxx |xxxxxxxxxxxxx |xxxxxxxxxxxxx |xxxxxxxxxxxxx |     10617904 |     10617903 |     10617899 |xxxxxxxxxxxxx |xxxxxxxxxxxxx |xxxxxxxxxxxxx |xxxxxxxxxxxxx |     22277633 |     22277632 |     22277629 |xxxxxxxxxxxxx |xxxxxxxxxxxxx |xxxxxxxxxxxxx |xxxxxxxxxxxxx |     46658605 |     46658604 |     46658600 |
bpred_bimod.jr_hits                             61 |           61 |           61 |xxxxxxxxxxxxx |xxxxxxxxxxxxx |xxxxxxxxxxxxx |xxxxxxxxxxxxx |           71 |           71 |           71 |xxxxxxxxxxxxx |xxxxxxxxxxxxx |xxxxxxxxxxxxx |xxxxxxxxxxxxx |           69 |           69 |           69 |xxxxxxxxxxxxx |xxxxxxxxxxxxx |xxxxxxxxxxxxx |xxxxxxxxxxxxx |           71 |           71 |           71 |xxxxxxxxxxxxx |xxxxxxxxxxxxx |xxxxxxxxxxxxx |xxxxxxxxxxxxx |           69 |           69 |           69 |xxxxxxxxxxxxx |xxxxxxxxxxxxx |xxxxxxxxxxxxx |xxxxxxxxxxxxx |           71 |           71 |           71 |xxxxxxxxxxxxx |xxxxxxxxxxxxx |xxxxxxxxxxxxx |xxxxxxxxxxxxx |           69 |           69 |           69 |xxxxxxxxxxxxx |xxxxxxxxxxxxx |xxxxxxxxxxxxx |xxxxxxxxxxxxx |           71 |           71 |           71 |xxxxxxxxxxxxx |xxxxxxxxxxxxx |xxxxxxxxxxxxx |xxxxxxxxxxxxx |           72 |           72 |           72 |xxxxxxxxxxxxx |xxxxxxxxxxxxx |xxxxxxxxxxxxx |xxxxxxxxxxxxx |           75 |           75 |           75 |xxxxxxxxxxxxx |xxxxxxxxxxxxx |xxxxxxxxxxxxx |xxxxxxxxxxxxx |           72 |           72 |           72 |
bpred_bimod.jr_seen                             61 |           61 |           61 |xxxxxxxxxxxxx |xxxxxxxxxxxxx |xxxxxxxxxxxxx |xxxxxxxxxxxxx |           73 |           73 |           73 |xxxxxxxxxxxxx |xxxxxxxxxxxxx |xxxxxxxxxxxxx |xxxxxxxxxxxxx |           70 |           70 |           70 |xxxxxxxxxxxxx |xxxxxxxxxxxxx |xxxxxxxxxxxxx |xxxxxxxxxxxxx |           73 |           73 |           73 |xxxxxxxxxxxxx |xxxxxxxxxxxxx |xxxxxxxxxxxxx |xxxxxxxxxxxxx |           70 |           70 |           70 |xxxxxxxxxxxxx |xxxxxxxxxxxxx |xxxxxxxxxxxxx |xxxxxxxxxxxxx |           73 |           73 |           73 |xxxxxxxxxxxxx |xxxxxxxxxxxxx |xxxxxxxxxxxxx |xxxxxxxxxxxxx |           70 |           70 |           70 |xxxxxxxxxxxxx |xxxxxxxxxxxxx |xxxxxxxxxxxxx |xxxxxxxxxxxxx |           73 |           73 |           73 |xxxxxxxxxxxxx |xxxxxxxxxxxxx |xxxxxxxxxxxxx |xxxxxxxxxxxxx |           73 |           73 |           73 |xxxxxxxxxxxxx |xxxxxxxxxxxxx |xxxxxxxxxxxxx |xxxxxxxxxxxxx |           76 |           76 |           76 |xxxxxxxxxxxxx |xxxxxxxxxxxxx |xxxxxxxxxxxxx |xxxxxxxxxxxxx |           73 |           73 |           73 |
bpred_bimod.jr_non_ras_hits.PP                   0 |            0 |            0 |xxxxxxxxxxxxx |xxxxxxxxxxxxx |xxxxxxxxxxxxx |xxxxxxxxxxxxx |            0 |            0 |            0 |xxxxxxxxxxxxx |xxxxxxxxxxxxx |xxxxxxxxxxxxx |xxxxxxxxxxxxx |            0 |            0 |            0 |xxxxxxxxxxxxx |xxxxxxxxxxxxx |xxxxxxxxxxxxx |xxxxxxxxxxxxx |            0 |            0 |            0 |xxxxxxxxxxxxx |xxxxxxxxxxxxx |xxxxxxxxxxxxx |xxxxxxxxxxxxx |            0 |            0 |            0 |xxxxxxxxxxxxx |xxxxxxxxxxxxx |xxxxxxxxxxxxx |xxxxxxxxxxxxx |            0 |            0 |            0 |xxxxxxxxxxxxx |xxxxxxxxxxxxx |xxxxxxxxxxxxx |xxxxxxxxxxxxx |            0 |            0 |            0 |xxxxxxxxxxxxx |xxxxxxxxxxxxx |xxxxxxxxxxxxx |xxxxxxxxxxxxx |            0 |            0 |            0 |xxxxxxxxxxxxx |xxxxxxxxxxxxx |xxxxxxxxxxxxx |xxxxxxxxxxxxx |            0 |            0 |            0 |xxxxxxxxxxxxx |xxxxxxxxxxxxx |xxxxxxxxxxxxx |xxxxxxxxxxxxx |            1 |            1 |            1 |xxxxxxxxxxxxx |xxxxxxxxxxxxx |xxxxxxxxxxxxx |xxxxxxxxxxxxx |            0 |            0 |            0 |
bpred_bimod.jr_non_ras_seen.PP                   0 |            0 |            0 |xxxxxxxxxxxxx |xxxxxxxxxxxxx |xxxxxxxxxxxxx |xxxxxxxxxxxxx |            1 |            1 |            1 |xxxxxxxxxxxxx |xxxxxxxxxxxxx |xxxxxxxxxxxxx |xxxxxxxxxxxxx |            0 |            0 |            0 |xxxxxxxxxxxxx |xxxxxxxxxxxxx |xxxxxxxxxxxxx |xxxxxxxxxxxxx |            1 |            1 |            1 |xxxxxxxxxxxxx |xxxxxxxxxxxxx |xxxxxxxxxxxxx |xxxxxxxxxxxxx |            0 |            0 |            0 |xxxxxxxxxxxxx |xxxxxxxxxxxxx |xxxxxxxxxxxxx |xxxxxxxxxxxxx |            1 |            1 |            1 |xxxxxxxxxxxxx |xxxxxxxxxxxxx |xxxxxxxxxxxxx |xxxxxxxxxxxxx |            0 |            0 |            0 |xxxxxxxxxxxxx |xxxxxxxxxxxxx |xxxxxxxxxxxxx |xxxxxxxxxxxxx |            1 |            1 |            1 |xxxxxxxxxxxxx |xxxxxxxxxxxxx |xxxxxxxxxxxxx |xxxxxxxxxxxxx |            1 |            1 |            1 |xxxxxxxxxxxxx |xxxxxxxxxxxxx |xxxxxxxxxxxxx |xxxxxxxxxxxxx |            2 |            2 |            2 |xxxxxxxxxxxxx |xxxxxxxxxxxxx |xxxxxxxxxxxxx |xxxxxxxxxxxxx |            1 |            1 |            1 |
bpred_bimod.bpred_addr_rate                 0.7287 |       0.7287 |       0.7288 |xxxxxxxxxxxxx |xxxxxxxxxxxxx |xxxxxxxxxxxxx |xxxxxxxxxxxxx |       0.7335 |       0.7336 |       0.7336 |xxxxxxxxxxxxx |xxxxxxxxxxxxx |xxxxxxxxxxxxx |xxxxxxxxxxxxx |       0.7346 |       0.7346 |       0.7346 |xxxxxxxxxxxxx |xxxxxxxxxxxxx |xxxxxxxxxxxxx |xxxxxxxxxxxxx |       0.7371 |       0.7371 |       0.7371 |xxxxxxxxxxxxx |xxxxxxxxxxxxx |xxxxxxxxxxxxx |xxxxxxxxxxxxx |       0.7366 |       0.7366 |       0.7366 |xxxxxxxxxxxxx |xxxxxxxxxxxxx |xxxxxxxxxxxxx |xxxxxxxxxxxxx |       0.7385 |       0.7385 |       0.7385 |xxxxxxxxxxxxx |xxxxxxxxxxxxx |xxxxxxxxxxxxx |xxxxxxxxxxxxx |       0.7383 |       0.7383 |       0.7383 |xxxxxxxxxxxxx |xxxxxxxxxxxxx |xxxxxxxxxxxxx |xxxxxxxxxxxxx |       0.7400 |       0.7400 |       0.7400 |xxxxxxxxxxxxx |xxxxxxxxxxxxx |xxxxxxxxxxxxx |xxxxxxxxxxxxx |       0.7397 |       0.7397 |       0.7397 |xxxxxxxxxxxxx |xxxxxxxxxxxxx |xxxxxxxxxxxxx |xxxxxxxxxxxxx |       0.7412 |       0.7412 |       0.7412 |xxxxxxxxxxxxx |xxxxxxxxxxxxx |xxxxxxxxxxxxx |xxxxxxxxxxxxx |       0.7408 |       0.7408 |       0.7408 |
bpred_bimod.bpred_dir_rate                  0.7299 |       0.7300 |       0.7300 |xxxxxxxxxxxxx |xxxxxxxxxxxxx |xxxxxxxxxxxxx |xxxxxxxxxxxxx |       0.7342 |       0.7342 |       0.7342 |xxxxxxxxxxxxx |xxxxxxxxxxxxx |xxxxxxxxxxxxx |xxxxxxxxxxxxx |       0.7348 |       0.7348 |       0.7349 |xxxxxxxxxxxxx |xxxxxxxxxxxxx |xxxxxxxxxxxxx |xxxxxxxxxxxxx |       0.7372 |       0.7372 |       0.7372 |xxxxxxxxxxxxx |xxxxxxxxxxxxx |xxxxxxxxxxxxx |xxxxxxxxxxxxx |       0.7367 |       0.7367 |       0.7367 |xxxxxxxxxxxxx |xxxxxxxxxxxxx |xxxxxxxxxxxxx |xxxxxxxxxxxxx |       0.7385 |       0.7385 |       0.7385 |xxxxxxxxxxxxx |xxxxxxxxxxxxx |xxxxxxxxxxxxx |xxxxxxxxxxxxx |       0.7383 |       0.7383 |       0.7384 |xxxxxxxxxxxxx |xxxxxxxxxxxxx |xxxxxxxxxxxxx |xxxxxxxxxxxxx |       0.7400 |       0.7400 |       0.7400 |xxxxxxxxxxxxx |xxxxxxxxxxxxx |xxxxxxxxxxxxx |xxxxxxxxxxxxx |       0.7397 |       0.7397 |       0.7397 |xxxxxxxxxxxxx |xxxxxxxxxxxxx |xxxxxxxxxxxxx |xxxxxxxxxxxxx |       0.7412 |       0.7412 |       0.7412 |xxxxxxxxxxxxx |xxxxxxxxxxxxx |xxxxxxxxxxxxx |xxxxxxxxxxxxx |       0.7408 |       0.7408 |       0.7408 |
bpred_bimod.bpred_jr_rate                   1.0000 |       1.0000 |       1.0000 |xxxxxxxxxxxxx |xxxxxxxxxxxxx |xxxxxxxxxxxxx |xxxxxxxxxxxxx |       0.9726 |       0.9726 |       0.9726 |xxxxxxxxxxxxx |xxxxxxxxxxxxx |xxxxxxxxxxxxx |xxxxxxxxxxxxx |       0.9857 |       0.9857 |       0.9857 |xxxxxxxxxxxxx |xxxxxxxxxxxxx |xxxxxxxxxxxxx |xxxxxxxxxxxxx |       0.9726 |       0.9726 |       0.9726 |xxxxxxxxxxxxx |xxxxxxxxxxxxx |xxxxxxxxxxxxx |xxxxxxxxxxxxx |       0.9857 |       0.9857 |       0.9857 |xxxxxxxxxxxxx |xxxxxxxxxxxxx |xxxxxxxxxxxxx |xxxxxxxxxxxxx |       0.9726 |       0.9726 |       0.9726 |xxxxxxxxxxxxx |xxxxxxxxxxxxx |xxxxxxxxxxxxx |xxxxxxxxxxxxx |       0.9857 |       0.9857 |       0.9857 |xxxxxxxxxxxxx |xxxxxxxxxxxxx |xxxxxxxxxxxxx |xxxxxxxxxxxxx |       0.9726 |       0.9726 |       0.9726 |xxxxxxxxxxxxx |xxxxxxxxxxxxx |xxxxxxxxxxxxx |xxxxxxxxxxxxx |       0.9863 |       0.9863 |       0.9863 |xxxxxxxxxxxxx |xxxxxxxxxxxxx |xxxxxxxxxxxxx |xxxxxxxxxxxxx |       0.9868 |       0.9868 |       0.9868 |xxxxxxxxxxxxx |xxxxxxxxxxxxx |xxxxxxxxxxxxx |xxxxxxxxxxxxx |       0.9863 |       0.9863 |       0.9863 |
bpred_bimod.bpred_jr_non_ras_rate.PP       <error: |      <error: |      <error: |xxxxxxxxxxxxx |xxxxxxxxxxxxx |xxxxxxxxxxxxx |xxxxxxxxxxxxx |       0.0000 |       0.0000 |       0.0000 |xxxxxxxxxxxxx |xxxxxxxxxxxxx |xxxxxxxxxxxxx |xxxxxxxxxxxxx |      <error: |      <error: |      <error: |xxxxxxxxxxxxx |xxxxxxxxxxxxx |xxxxxxxxxxxxx |xxxxxxxxxxxxx |       0.0000 |       0.0000 |       0.0000 |xxxxxxxxxxxxx |xxxxxxxxxxxxx |xxxxxxxxxxxxx |xxxxxxxxxxxxx |      <error: |      <error: |      <error: |xxxxxxxxxxxxx |xxxxxxxxxxxxx |xxxxxxxxxxxxx |xxxxxxxxxxxxx |       0.0000 |       0.0000 |       0.0000 |xxxxxxxxxxxxx |xxxxxxxxxxxxx |xxxxxxxxxxxxx |xxxxxxxxxxxxx |      <error: |      <error: |      <error: |xxxxxxxxxxxxx |xxxxxxxxxxxxx |xxxxxxxxxxxxx |xxxxxxxxxxxxx |       0.0000 |       0.0000 |       0.0000 |xxxxxxxxxxxxx |xxxxxxxxxxxxx |xxxxxxxxxxxxx |xxxxxxxxxxxxx |       0.0000 |       0.0000 |       0.0000 |xxxxxxxxxxxxx |xxxxxxxxxxxxx |xxxxxxxxxxxxx |xxxxxxxxxxxxx |       0.5000 |       0.5000 |       0.5000 |xxxxxxxxxxxxx |xxxxxxxxxxxxx |xxxxxxxxxxxxx |xxxxxxxxxxxxx |       0.0000 |       0.0000 |       0.0000 |
bpred_bimod.retstack_pushes                     63 |           63 |           63 |xxxxxxxxxxxxx |xxxxxxxxxxxxx |xxxxxxxxxxxxx |xxxxxxxxxxxxx |           74 |           74 |           74 |xxxxxxxxxxxxx |xxxxxxxxxxxxx |xxxxxxxxxxxxx |xxxxxxxxxxxxx |           72 |           72 |           72 |xxxxxxxxxxxxx |xxxxxxxxxxxxx |xxxxxxxxxxxxx |xxxxxxxxxxxxx |           74 |           74 |           74 |xxxxxxxxxxxxx |xxxxxxxxxxxxx |xxxxxxxxxxxxx |xxxxxxxxxxxxx |           72 |           72 |           72 |xxxxxxxxxxxxx |xxxxxxxxxxxxx |xxxxxxxxxxxxx |xxxxxxxxxxxxx |           74 |           74 |           74 |xxxxxxxxxxxxx |xxxxxxxxxxxxx |xxxxxxxxxxxxx |xxxxxxxxxxxxx |           72 |           72 |           72 |xxxxxxxxxxxxx |xxxxxxxxxxxxx |xxxxxxxxxxxxx |xxxxxxxxxxxxx |           74 |           74 |           74 |xxxxxxxxxxxxx |xxxxxxxxxxxxx |xxxxxxxxxxxxx |xxxxxxxxxxxxx |           74 |           74 |           74 |xxxxxxxxxxxxx |xxxxxxxxxxxxx |xxxxxxxxxxxxx |xxxxxxxxxxxxx |           76 |           76 |           76 |xxxxxxxxxxxxx |xxxxxxxxxxxxx |xxxxxxxxxxxxx |xxxxxxxxxxxxx |           74 |           74 |           74 |
bpred_bimod.retstack_pops                       61 |           61 |           61 |xxxxxxxxxxxxx |xxxxxxxxxxxxx |xxxxxxxxxxxxx |xxxxxxxxxxxxx |           72 |           72 |           72 |xxxxxxxxxxxxx |xxxxxxxxxxxxx |xxxxxxxxxxxxx |xxxxxxxxxxxxx |           70 |           70 |           70 |xxxxxxxxxxxxx |xxxxxxxxxxxxx |xxxxxxxxxxxxx |xxxxxxxxxxxxx |           72 |           72 |           72 |xxxxxxxxxxxxx |xxxxxxxxxxxxx |xxxxxxxxxxxxx |xxxxxxxxxxxxx |           70 |           70 |           70 |xxxxxxxxxxxxx |xxxxxxxxxxxxx |xxxxxxxxxxxxx |xxxxxxxxxxxxx |           72 |           72 |           72 |xxxxxxxxxxxxx |xxxxxxxxxxxxx |xxxxxxxxxxxxx |xxxxxxxxxxxxx |           70 |           70 |           70 |xxxxxxxxxxxxx |xxxxxxxxxxxxx |xxxxxxxxxxxxx |xxxxxxxxxxxxx |           72 |           72 |           72 |xxxxxxxxxxxxx |xxxxxxxxxxxxx |xxxxxxxxxxxxx |xxxxxxxxxxxxx |           72 |           72 |           72 |xxxxxxxxxxxxx |xxxxxxxxxxxxx |xxxxxxxxxxxxx |xxxxxxxxxxxxx |           74 |           74 |           74 |xxxxxxxxxxxxx |xxxxxxxxxxxxx |xxxxxxxxxxxxx |xxxxxxxxxxxxx |           72 |           72 |           72 |
bpred_bimod.used_ras.PP                         61 |           61 |           61 |xxxxxxxxxxxxx |xxxxxxxxxxxxx |xxxxxxxxxxxxx |xxxxxxxxxxxxx |           72 |           72 |           72 |xxxxxxxxxxxxx |xxxxxxxxxxxxx |xxxxxxxxxxxxx |xxxxxxxxxxxxx |           70 |           70 |           70 |xxxxxxxxxxxxx |xxxxxxxxxxxxx |xxxxxxxxxxxxx |xxxxxxxxxxxxx |           72 |           72 |           72 |xxxxxxxxxxxxx |xxxxxxxxxxxxx |xxxxxxxxxxxxx |xxxxxxxxxxxxx |           70 |           70 |           70 |xxxxxxxxxxxxx |xxxxxxxxxxxxx |xxxxxxxxxxxxx |xxxxxxxxxxxxx |           72 |           72 |           72 |xxxxxxxxxxxxx |xxxxxxxxxxxxx |xxxxxxxxxxxxx |xxxxxxxxxxxxx |           70 |           70 |           70 |xxxxxxxxxxxxx |xxxxxxxxxxxxx |xxxxxxxxxxxxx |xxxxxxxxxxxxx |           72 |           72 |           72 |xxxxxxxxxxxxx |xxxxxxxxxxxxx |xxxxxxxxxxxxx |xxxxxxxxxxxxx |           72 |           72 |           72 |xxxxxxxxxxxxx |xxxxxxxxxxxxx |xxxxxxxxxxxxx |xxxxxxxxxxxxx |           74 |           74 |           74 |xxxxxxxxxxxxx |xxxxxxxxxxxxx |xxxxxxxxxxxxx |xxxxxxxxxxxxx |           72 |           72 |           72 |
bpred_bimod.ras_hits.PP                         61 |           61 |           61 |xxxxxxxxxxxxx |xxxxxxxxxxxxx |xxxxxxxxxxxxx |xxxxxxxxxxxxx |           71 |           71 |           71 |xxxxxxxxxxxxx |xxxxxxxxxxxxx |xxxxxxxxxxxxx |xxxxxxxxxxxxx |           69 |           69 |           69 |xxxxxxxxxxxxx |xxxxxxxxxxxxx |xxxxxxxxxxxxx |xxxxxxxxxxxxx |           71 |           71 |           71 |xxxxxxxxxxxxx |xxxxxxxxxxxxx |xxxxxxxxxxxxx |xxxxxxxxxxxxx |           69 |           69 |           69 |xxxxxxxxxxxxx |xxxxxxxxxxxxx |xxxxxxxxxxxxx |xxxxxxxxxxxxx |           71 |           71 |           71 |xxxxxxxxxxxxx |xxxxxxxxxxxxx |xxxxxxxxxxxxx |xxxxxxxxxxxxx |           69 |           69 |           69 |xxxxxxxxxxxxx |xxxxxxxxxxxxx |xxxxxxxxxxxxx |xxxxxxxxxxxxx |           71 |           71 |           71 |xxxxxxxxxxxxx |xxxxxxxxxxxxx |xxxxxxxxxxxxx |xxxxxxxxxxxxx |           72 |           72 |           72 |xxxxxxxxxxxxx |xxxxxxxxxxxxx |xxxxxxxxxxxxx |xxxxxxxxxxxxx |           74 |           74 |           74 |xxxxxxxxxxxxx |xxxxxxxxxxxxx |xxxxxxxxxxxxx |xxxxxxxxxxxxx |           72 |           72 |           72 |
bpred_bimod.ras_rate.PP                     1.0000 |       1.0000 |       1.0000 |xxxxxxxxxxxxx |xxxxxxxxxxxxx |xxxxxxxxxxxxx |xxxxxxxxxxxxx |       0.9861 |       0.9861 |       0.9861 |xxxxxxxxxxxxx |xxxxxxxxxxxxx |xxxxxxxxxxxxx |xxxxxxxxxxxxx |       0.9857 |       0.9857 |       0.9857 |xxxxxxxxxxxxx |xxxxxxxxxxxxx |xxxxxxxxxxxxx |xxxxxxxxxxxxx |       0.9861 |       0.9861 |       0.9861 |xxxxxxxxxxxxx |xxxxxxxxxxxxx |xxxxxxxxxxxxx |xxxxxxxxxxxxx |       0.9857 |       0.9857 |       0.9857 |xxxxxxxxxxxxx |xxxxxxxxxxxxx |xxxxxxxxxxxxx |xxxxxxxxxxxxx |       0.9861 |       0.9861 |       0.9861 |xxxxxxxxxxxxx |xxxxxxxxxxxxx |xxxxxxxxxxxxx |xxxxxxxxxxxxx |       0.9857 |       0.9857 |       0.9857 |xxxxxxxxxxxxx |xxxxxxxxxxxxx |xxxxxxxxxxxxx |xxxxxxxxxxxxx |       0.9861 |       0.9861 |       0.9861 |xxxxxxxxxxxxx |xxxxxxxxxxxxx |xxxxxxxxxxxxx |xxxxxxxxxxxxx |       1.0000 |       1.0000 |       1.0000 |xxxxxxxxxxxxx |xxxxxxxxxxxxx |xxxxxxxxxxxxx |xxxxxxxxxxxxx |       1.0000 |       1.0000 |       1.0000 |xxxxxxxxxxxxx |xxxxxxxxxxxxx |xxxxxxxxxxxxx |xxxxxxxxxxxxx |       1.0000 |       1.0000 |       1.0000 |
bpred_2lev.lookups                   xxxxxxxxxxxxx |xxxxxxxxxxxxx |xxxxxxxxxxxxx |        94221 |        94221 |        94221 |        94221 |xxxxxxxxxxxxx |xxxxxxxxxxxxx |xxxxxxxxxxxxx |       205571 |       205571 |       205571 |       205571 |xxxxxxxxxxxxx |xxxxxxxxxxxxx |xxxxxxxxxxxxx |       441354 |       441354 |       441354 |       441354 |xxxxxxxxxxxxx |xxxxxxxxxxxxx |xxxxxxxxxxxxx |       951851 |       951851 |       951851 |       951851 |xxxxxxxxxxxxx |xxxxxxxxxxxxx |xxxxxxxxxxxxx |      2025552 |      2025552 |      2025552 |      2025552 |xxxxxxxxxxxxx |xxxxxxxxxxxxx |xxxxxxxxxxxxx |      4329427 |      4329427 |      4329427 |      4329427 |xxxxxxxxxxxxx |xxxxxxxxxxxxx |xxxxxxxxxxxxx |      9150517 |      9150517 |      9150517 |      9150517 |xxxxxxxxxxxxx |xxxxxxxxxxxxx |xxxxxxxxxxxxx |     19414678 |     19414678 |     19414678 |     19414678 |xxxxxxxxxxxxx |xxxxxxxxxxxxx |xxxxxxxxxxxxx |     40797749 |     40797749 |     40797749 |     40797749 |xxxxxxxxxxxxx |xxxxxxxxxxxxx |xxxxxxxxxxxxx |     86066258 |     86066258 |     86066258 |     86066258 |xxxxxxxxxxxxx |xxxxxxxxxxxxx |xxxxxxxxxxxxx |    180007852 |    180007852 |    180007852 |    180007852 |
[...]
bpred_2lev.retstack_pushes           xxxxxxxxxxxxx |xxxxxxxxxxxxx |xxxxxxxxxxxxx |           63 |           63 |           63 |           63 |xxxxxxxxxxxxx |xxxxxxxxxxxxx |xxxxxxxxxxxxx |           74 |           74 |           74 |           74 |xxxxxxxxxxxxx |xxxxxxxxxxxxx |xxxxxxxxxxxxx |           72 |           72 |           72 |           72 |xxxxxxxxxxxxx |xxxxxxxxxxxxx |xxxxxxxxxxxxx |           74 |           74 |           74 |           74 |xxxxxxxxxxxxx |xxxxxxxxxxxxx |xxxxxxxxxxxxx |           72 |           72 |           72 |           72 |xxxxxxxxxxxxx |xxxxxxxxxxxxx |xxxxxxxxxxxxx |           74 |           74 |           74 |           74 |xxxxxxxxxxxxx |xxxxxxxxxxxxx |xxxxxxxxxxxxx |           72 |           72 |           72 |           72 |xxxxxxxxxxxxx |xxxxxxxxxxxxx |xxxxxxxxxxxxx |           74 |           74 |           74 |           74 |xxxxxxxxxxxxx |xxxxxxxxxxxxx |xxxxxxxxxxxxx |           74 |           74 |           74 |           74 |xxxxxxxxxxxxx |xxxxxxxxxxxxx |xxxxxxxxxxxxx |           76 |           76 |           76 |           76 |xxxxxxxxxxxxx |xxxxxxxxxxxxx |xxxxxxxxxxxxx |           74 |           74 |           74 |           74 |
bpred_2lev.retstack_pops             xxxxxxxxxxxxx |xxxxxxxxxxxxx |xxxxxxxxxxxxx |           61 |           61 |           61 |           61 |xxxxxxxxxxxxx |xxxxxxxxxxxxx |xxxxxxxxxxxxx |           72 |           72 |           72 |           72 |xxxxxxxxxxxxx |xxxxxxxxxxxxx |xxxxxxxxxxxxx |           70 |           70 |           70 |           70 |xxxxxxxxxxxxx |xxxxxxxxxxxxx |xxxxxxxxxxxxx |           72 |           72 |           72 |           72 |xxxxxxxxxxxxx |xxxxxxxxxxxxx |xxxxxxxxxxxxx |           70 |           70 |           70 |           70 |xxxxxxxxxxxxx |xxxxxxxxxxxxx |xxxxxxxxxxxxx |           72 |           72 |           72 |           72 |xxxxxxxxxxxxx |xxxxxxxxxxxxx |xxxxxxxxxxxxx |           70 |           70 |           70 |           70 |xxxxxxxxxxxxx |xxxxxxxxxxxxx |xxxxxxxxxxxxx |           72 |           72 |           72 |           72 |xxxxxxxxxxxxx |xxxxxxxxxxxxx |xxxxxxxxxxxxx |           72 |           72 |           72 |           72 |xxxxxxxxxxxxx |xxxxxxxxxxxxx |xxxxxxxxxxxxx |           74 |           74 |           74 |           74 |xxxxxxxxxxxxx |xxxxxxxxxxxxx |xxxxxxxxxxxxx |           72 |           72 |           72 |           72 |
bpred_2lev.used_ras.PP               xxxxxxxxxxxxx |xxxxxxxxxxxxx |xxxxxxxxxxxxx |           61 |           61 |           61 |           61 |xxxxxxxxxxxxx |xxxxxxxxxxxxx |xxxxxxxxxxxxx |           72 |           72 |           72 |           72 |xxxxxxxxxxxxx |xxxxxxxxxxxxx |xxxxxxxxxxxxx |           70 |           70 |           70 |           70 |xxxxxxxxxxxxx |xxxxxxxxxxxxx |xxxxxxxxxxxxx |           72 |           72 |           72 |           72 |xxxxxxxxxxxxx |xxxxxxxxxxxxx |xxxxxxxxxxxxx |           70 |           70 |           70 |           70 |xxxxxxxxxxxxx |xxxxxxxxxxxxx |xxxxxxxxxxxxx |           72 |           72 |           72 |           72 |xxxxxxxxxxxxx |xxxxxxxxxxxxx |xxxxxxxxxxxxx |           70 |           70 |           70 |           70 |xxxxxxxxxxxxx |xxxxxxxxxxxxx |xxxxxxxxxxxxx |           72 |           72 |           72 |           72 |xxxxxxxxxxxxx |xxxxxxxxxxxxx |xxxxxxxxxxxxx |           72 |           72 |           72 |           72 |xxxxxxxxxxxxx |xxxxxxxxxxxxx |xxxxxxxxxxxxx |           74 |           74 |           74 |           74 |xxxxxxxxxxxxx |xxxxxxxxxxxxx |xxxxxxxxxxxxx |           72 |           72 |           72 |           72 |
bpred_2lev.ras_hits.PP               xxxxxxxxxxxxx |xxxxxxxxxxxxx |xxxxxxxxxxxxx |           61 |           61 |           61 |           61 |xxxxxxxxxxxxx |xxxxxxxxxxxxx |xxxxxxxxxxxxx |           71 |           71 |           71 |           71 |xxxxxxxxxxxxx |xxxxxxxxxxxxx |xxxxxxxxxxxxx |           69 |           69 |           69 |           69 |xxxxxxxxxxxxx |xxxxxxxxxxxxx |xxxxxxxxxxxxx |           71 |           71 |           71 |           71 |xxxxxxxxxxxxx |xxxxxxxxxxxxx |xxxxxxxxxxxxx |           69 |           69 |           69 |           69 |xxxxxxxxxxxxx |xxxxxxxxxxxxx |xxxxxxxxxxxxx |           71 |           71 |           71 |           71 |xxxxxxxxxxxxx |xxxxxxxxxxxxx |xxxxxxxxxxxxx |           69 |           69 |           69 |           69 |xxxxxxxxxxxxx |xxxxxxxxxxxxx |xxxxxxxxxxxxx |           71 |           71 |           71 |           71 |xxxxxxxxxxxxx |xxxxxxxxxxxxx |xxxxxxxxxxxxx |           72 |           72 |           72 |           72 |xxxxxxxxxxxxx |xxxxxxxxxxxxx |xxxxxxxxxxxxx |           74 |           74 |           74 |           74 |xxxxxxxxxxxxx |xxxxxxxxxxxxx |xxxxxxxxxxxxx |           72 |           72 |           72 |           72 |
bpred_2lev.ras_rate.PP               xxxxxxxxxxxxx |xxxxxxxxxxxxx |xxxxxxxxxxxxx |       1.0000 |       1.0000 |       1.0000 |       1.0000 |xxxxxxxxxxxxx |xxxxxxxxxxxxx |xxxxxxxxxxxxx |       0.9861 |       0.9861 |       0.9861 |       0.9861 |xxxxxxxxxxxxx |xxxxxxxxxxxxx |xxxxxxxxxxxxx |       0.9857 |       0.9857 |       0.9857 |       0.9857 |xxxxxxxxxxxxx |xxxxxxxxxxxxx |xxxxxxxxxxxxx |       0.9861 |       0.9861 |       0.9861 |       0.9861 |xxxxxxxxxxxxx |xxxxxxxxxxxxx |xxxxxxxxxxxxx |       0.9857 |       0.9857 |       0.9857 |       0.9857 |xxxxxxxxxxxxx |xxxxxxxxxxxxx |xxxxxxxxxxxxx |       0.9861 |       0.9861 |       0.9861 |       0.9861 |xxxxxxxxxxxxx |xxxxxxxxxxxxx |xxxxxxxxxxxxx |       0.9857 |       0.9857 |       0.9857 |       0.9857 |xxxxxxxxxxxxx |xxxxxxxxxxxxx |xxxxxxxxxxxxx |       0.9861 |       0.9861 |       0.9861 |       0.9861 |xxxxxxxxxxxxx |xxxxxxxxxxxxx |xxxxxxxxxxxxx |       1.0000 |       1.0000 |       1.0000 |       1.0000 |xxxxxxxxxxxxx |xxxxxxxxxxxxx |xxxxxxxxxxxxx |       1.0000 |       1.0000 |       1.0000 |       1.0000 |xxxxxxxxxxxxx |xxxxxxxxxxxxx |xxxxxxxxxxxxx |       1.0000 |       1.0000 |       1.0000 |       1.0000 |

Command list: 
	sslittle-na-sstrix-gcc -Wall -O3 -funroll-loops -finline-functions  -DRANDOM_SIZE=4096 -DOFFSET=9 -DSORT=base_mergesort sorts/base_mergesort1846111561.c simpleMain.c -o base_mergesort1296467967
	sim-cache -cache:dl1 dl1:256:32:1:l -cache:dl2 dl2:131072:32:1:l -cache:il1 il1:256:32:1:l -cache:il2 dl2 base_mergesort1296467967
	sim-cache -cache:dl1 dl1:256:32:1:l -cache:dl2 dl2:65536:32:1:l -cache:il1 il1:256:32:1:l -cache:il2 dl2 base_mergesort1296467967
	sim-cache -cache:dl1 dl1:1:32:256:l -cache:dl2 dl2:1:32:131072:l -cache:il1 il1:1:32:256:l -cache:il2 dl2 base_mergesort1296467967
	sim-cache -cache:dl1 dl1:1:32:256:l -cache:dl2 dl2:1:32:65536:l -cache:il1 il1:1:32:256:l -cache:il2 dl2 base_mergesort1296467967
	sim-bpred -bpred bimod -bpred:bimod 512 base_mergesort1296467967
	sim-bpred -bpred bimod -bpred:bimod 1024 base_mergesort1296467967
	sim-bpred -bpred bimod -bpred:bimod 2048 base_mergesort1296467967
	sim-bpred -bpred 2lev -bpred:2lev 1 512 10 1 base_mergesort1296467967
	sim-bpred -bpred 2lev -bpred:2lev 1 1024 10 1 base_mergesort1296467967
	sim-bpred -bpred 2lev -bpred:2lev 1 2048 10 1 base_mergesort1296467967
	sim-bpred -bpred 2lev -bpred:2lev 1 4096 10 1 base_mergesort1296467967
	sslittle-na-sstrix-gcc -Wall -O3 -funroll-loops -finline-functions  -DRANDOM_SIZE=8192 -DOFFSET=9 -DSORT=base_mergesort sorts/base_mergesort1846111561.c simpleMain.c -o base_mergesort1296467967
	sim-cache -cache:dl1 dl1:256:32:1:l -cache:dl2 dl2:131072:32:1:l -cache:il1 il1:256:32:1:l -cache:il2 dl2 base_mergesort1296467967
	sim-cache -cache:dl1 dl1:256:32:1:l -cache:dl2 dl2:65536:32:1:l -cache:il1 il1:256:32:1:l -cache:il2 dl2 base_mergesort1296467967
	sim-cache -cache:dl1 dl1:1:32:256:l -cache:dl2 dl2:1:32:131072:l -cache:il1 il1:1:32:256:l -cache:il2 dl2 base_mergesort1296467967
	sim-cache -cache:dl1 dl1:1:32:256:l -cache:dl2 dl2:1:32:65536:l -cache:il1 il1:1:32:256:l -cache:il2 dl2 base_mergesort1296467967
	sim-bpred -bpred bimod -bpred:bimod 512 base_mergesort1296467967
	sim-bpred -bpred bimod -bpred:bimod 1024 base_mergesort1296467967
	sim-bpred -bpred bimod -bpred:bimod 2048 base_mergesort1296467967
	sim-bpred -bpred 2lev -bpred:2lev 1 512 10 1 base_mergesort1296467967
	sim-bpred -bpred 2lev -bpred:2lev 1 1024 10 1 base_mergesort1296467967
	sim-bpred -bpred 2lev -bpred:2lev 1 2048 10 1 base_mergesort1296467967
	sim-bpred -bpred 2lev -bpred:2lev 1 4096 10 1 base_mergesort1296467967
	sslittle-na-sstrix-gcc -Wall -O3 -funroll-loops -finline-functions  -DRANDOM_SIZE=16384 -DOFFSET=9 -DSORT=base_mergesort sorts/base_mergesort1846111561.c simpleMain.c -o base_mergesort1296467967
	sim-cache -cache:dl1 dl1:256:32:1:l -cache:dl2 dl2:131072:32:1:l -cache:il1 il1:256:32:1:l -cache:il2 dl2 base_mergesort1296467967
	sim-cache -cache:dl1 dl1:256:32:1:l -cache:dl2 dl2:65536:32:1:l -cache:il1 il1:256:32:1:l -cache:il2 dl2 base_mergesort1296467967
	sim-cache -cache:dl1 dl1:1:32:256:l -cache:dl2 dl2:1:32:131072:l -cache:il1 il1:1:32:256:l -cache:il2 dl2 base_mergesort1296467967
	sim-cache -cache:dl1 dl1:1:32:256:l -cache:dl2 dl2:1:32:65536:l -cache:il1 il1:1:32:256:l -cache:il2 dl2 base_mergesort1296467967
	sim-bpred -bpred bimod -bpred:bimod 512 base_mergesort1296467967
	sim-bpred -bpred bimod -bpred:bimod 1024 base_mergesort1296467967
	sim-bpred -bpred bimod -bpred:bimod 2048 base_mergesort1296467967
	sim-bpred -bpred 2lev -bpred:2lev 1 512 10 1 base_mergesort1296467967
	sim-bpred -bpred 2lev -bpred:2lev 1 1024 10 1 base_mergesort1296467967
	sim-bpred -bpred 2lev -bpred:2lev 1 2048 10 1 base_mergesort1296467967
	sim-bpred -bpred 2lev -bpred:2lev 1 4096 10 1 base_mergesort1296467967
	sslittle-na-sstrix-gcc -Wall -O3 -funroll-loops -finline-functions  -DRANDOM_SIZE=32768 -DOFFSET=9 -DSORT=base_mergesort sorts/base_mergesort1846111561.c simpleMain.c -o base_mergesort1296467967
	sim-cache -cache:dl1 dl1:256:32:1:l -cache:dl2 dl2:131072:32:1:l -cache:il1 il1:256:32:1:l -cache:il2 dl2 base_mergesort1296467967
	sim-cache -cache:dl1 dl1:256:32:1:l -cache:dl2 dl2:65536:32:1:l -cache:il1 il1:256:32:1:l -cache:il2 dl2 base_mergesort1296467967
	sim-cache -cache:dl1 dl1:1:32:256:l -cache:dl2 dl2:1:32:131072:l -cache:il1 il1:1:32:256:l -cache:il2 dl2 base_mergesort1296467967
	sim-cache -cache:dl1 dl1:1:32:256:l -cache:dl2 dl2:1:32:65536:l -cache:il1 il1:1:32:256:l -cache:il2 dl2 base_mergesort1296467967
	sim-bpred -bpred bimod -bpred:bimod 512 base_mergesort1296467967
	sim-bpred -bpred bimod -bpred:bimod 1024 base_mergesort1296467967
	sim-bpred -bpred bimod -bpred:bimod 2048 base_mergesort1296467967
	sim-bpred -bpred 2lev -bpred:2lev 1 512 10 1 base_mergesort1296467967
	sim-bpred -bpred 2lev -bpred:2lev 1 1024 10 1 base_mergesort1296467967
	sim-bpred -bpred 2lev -bpred:2lev 1 2048 10 1 base_mergesort1296467967
	sim-bpred -bpred 2lev -bpred:2lev 1 4096 10 1 base_mergesort1296467967
	sslittle-na-sstrix-gcc -Wall -O3 -funroll-loops -finline-functions  -DRANDOM_SIZE=65536 -DOFFSET=9 -DSORT=base_mergesort sorts/base_mergesort1846111561.c simpleMain.c -o base_mergesort1296467967
	sim-cache -cache:dl1 dl1:256:32:1:l -cache:dl2 dl2:131072:32:1:l -cache:il1 il1:256:32:1:l -cache:il2 dl2 base_mergesort1296467967
	sim-cache -cache:dl1 dl1:256:32:1:l -cache:dl2 dl2:65536:32:1:l -cache:il1 il1:256:32:1:l -cache:il2 dl2 base_mergesort1296467967
	sim-cache -cache:dl1 dl1:1:32:256:l -cache:dl2 dl2:1:32:131072:l -cache:il1 il1:1:32:256:l -cache:il2 dl2 base_mergesort1296467967
	sim-cache -cache:dl1 dl1:1:32:256:l -cache:dl2 dl2:1:32:65536:l -cache:il1 il1:1:32:256:l -cache:il2 dl2 base_mergesort1296467967
	sim-bpred -bpred bimod -bpred:bimod 512 base_mergesort1296467967
	sim-bpred -bpred bimod -bpred:bimod 1024 base_mergesort1296467967
	sim-bpred -bpred bimod -bpred:bimod 2048 base_mergesort1296467967
	sim-bpred -bpred 2lev -bpred:2lev 1 512 10 1 base_mergesort1296467967
	sim-bpred -bpred 2lev -bpred:2lev 1 1024 10 1 base_mergesort1296467967
	sim-bpred -bpred 2lev -bpred:2lev 1 2048 10 1 base_mergesort1296467967
	sim-bpred -bpred 2lev -bpred:2lev 1 4096 10 1 base_mergesort1296467967
	sslittle-na-sstrix-gcc -Wall -O3 -funroll-loops -finline-functions  -DRANDOM_SIZE=131072 -DOFFSET=9 -DSORT=base_mergesort sorts/base_mergesort1846111561.c simpleMain.c -o base_mergesort1296467967
	sim-cache -cache:dl1 dl1:256:32:1:l -cache:dl2 dl2:131072:32:1:l -cache:il1 il1:256:32:1:l -cache:il2 dl2 base_mergesort1296467967
	sim-cache -cache:dl1 dl1:256:32:1:l -cache:dl2 dl2:65536:32:1:l -cache:il1 il1:256:32:1:l -cache:il2 dl2 base_mergesort1296467967
	sim-cache -cache:dl1 dl1:1:32:256:l -cache:dl2 dl2:1:32:131072:l -cache:il1 il1:1:32:256:l -cache:il2 dl2 base_mergesort1296467967
	sim-cache -cache:dl1 dl1:1:32:256:l -cache:dl2 dl2:1:32:65536:l -cache:il1 il1:1:32:256:l -cache:il2 dl2 base_mergesort1296467967
	sim-bpred -bpred bimod -bpred:bimod 512 base_mergesort1296467967
	sim-bpred -bpred bimod -bpred:bimod 1024 base_mergesort1296467967
	sim-bpred -bpred bimod -bpred:bimod 2048 base_mergesort1296467967
	sim-bpred -bpred 2lev -bpred:2lev 1 512 10 1 base_mergesort1296467967
	sim-bpred -bpred 2lev -bpred:2lev 1 1024 10 1 base_mergesort1296467967
	sim-bpred -bpred 2lev -bpred:2lev 1 2048 10 1 base_mergesort1296467967
	sim-bpred -bpred 2lev -bpred:2lev 1 4096 10 1 base_mergesort1296467967
	sslittle-na-sstrix-gcc -Wall -O3 -funroll-loops -finline-functions  -DRANDOM_SIZE=262144 -DOFFSET=9 -DSORT=base_mergesort sorts/base_mergesort1846111561.c simpleMain.c -o base_mergesort1296467967
	sim-cache -cache:dl1 dl1:256:32:1:l -cache:dl2 dl2:131072:32:1:l -cache:il1 il1:256:32:1:l -cache:il2 dl2 base_mergesort1296467967
	sim-cache -cache:dl1 dl1:256:32:1:l -cache:dl2 dl2:65536:32:1:l -cache:il1 il1:256:32:1:l -cache:il2 dl2 base_mergesort1296467967
	sim-cache -cache:dl1 dl1:1:32:256:l -cache:dl2 dl2:1:32:131072:l -cache:il1 il1:1:32:256:l -cache:il2 dl2 base_mergesort1296467967
	sim-cache -cache:dl1 dl1:1:32:256:l -cache:dl2 dl2:1:32:65536:l -cache:il1 il1:1:32:256:l -cache:il2 dl2 base_mergesort1296467967
	sim-bpred -bpred bimod -bpred:bimod 512 base_mergesort1296467967
	sim-bpred -bpred bimod -bpred:bimod 1024 base_mergesort1296467967
	sim-bpred -bpred bimod -bpred:bimod 2048 base_mergesort1296467967
	sim-bpred -bpred 2lev -bpred:2lev 1 512 10 1 base_mergesort1296467967
	sim-bpred -bpred 2lev -bpred:2lev 1 1024 10 1 base_mergesort1296467967
	sim-bpred -bpred 2lev -bpred:2lev 1 2048 10 1 base_mergesort1296467967
	sim-bpred -bpred 2lev -bpred:2lev 1 4096 10 1 base_mergesort1296467967
	sslittle-na-sstrix-gcc -Wall -O3 -funroll-loops -finline-functions  -DRANDOM_SIZE=524288 -DOFFSET=9 -DSORT=base_mergesort sorts/base_mergesort1846111561.c simpleMain.c -o base_mergesort1296467967
	sim-cache -cache:dl1 dl1:256:32:1:l -cache:dl2 dl2:131072:32:1:l -cache:il1 il1:256:32:1:l -cache:il2 dl2 base_mergesort1296467967
	sim-cache -cache:dl1 dl1:256:32:1:l -cache:dl2 dl2:65536:32:1:l -cache:il1 il1:256:32:1:l -cache:il2 dl2 base_mergesort1296467967
	sim-cache -cache:dl1 dl1:1:32:256:l -cache:dl2 dl2:1:32:131072:l -cache:il1 il1:1:32:256:l -cache:il2 dl2 base_mergesort1296467967
	sim-cache -cache:dl1 dl1:1:32:256:l -cache:dl2 dl2:1:32:65536:l -cache:il1 il1:1:32:256:l -cache:il2 dl2 base_mergesort1296467967
	sim-bpred -bpred bimod -bpred:bimod 512 base_mergesort1296467967
	sim-bpred -bpred bimod -bpred:bimod 1024 base_mergesort1296467967
	sim-bpred -bpred bimod -bpred:bimod 2048 base_mergesort1296467967
	sim-bpred -bpred 2lev -bpred:2lev 1 512 10 1 base_mergesort1296467967
	sim-bpred -bpred 2lev -bpred:2lev 1 1024 10 1 base_mergesort1296467967
	sim-bpred -bpred 2lev -bpred:2lev 1 2048 10 1 base_mergesort1296467967
	sim-bpred -bpred 2lev -bpred:2lev 1 4096 10 1 base_mergesort1296467967
	sslittle-na-sstrix-gcc -Wall -O3 -funroll-loops -finline-functions  -DRANDOM_SIZE=1048576 -DOFFSET=9 -DSORT=base_mergesort sorts/base_mergesort1846111561.c simpleMain.c -o base_mergesort1296467967
	sim-cache -cache:dl1 dl1:256:32:1:l -cache:dl2 dl2:131072:32:1:l -cache:il1 il1:256:32:1:l -cache:il2 dl2 base_mergesort1296467967
	sim-cache -cache:dl1 dl1:256:32:1:l -cache:dl2 dl2:65536:32:1:l -cache:il1 il1:256:32:1:l -cache:il2 dl2 base_mergesort1296467967
	sim-cache -cache:dl1 dl1:1:32:256:l -cache:dl2 dl2:1:32:131072:l -cache:il1 il1:1:32:256:l -cache:il2 dl2 base_mergesort1296467967
	sim-cache -cache:dl1 dl1:1:32:256:l -cache:dl2 dl2:1:32:65536:l -cache:il1 il1:1:32:256:l -cache:il2 dl2 base_mergesort1296467967
	sim-bpred -bpred bimod -bpred:bimod 512 base_mergesort1296467967
	sim-bpred -bpred bimod -bpred:bimod 1024 base_mergesort1296467967
	sim-bpred -bpred bimod -bpred:bimod 2048 base_mergesort1296467967
	sim-bpred -bpred 2lev -bpred:2lev 1 512 10 1 base_mergesort1296467967
	sim-bpred -bpred 2lev -bpred:2lev 1 1024 10 1 base_mergesort1296467967
	sim-bpred -bpred 2lev -bpred:2lev 1 2048 10 1 base_mergesort1296467967
	sim-bpred -bpred 2lev -bpred:2lev 1 4096 10 1 base_mergesort1296467967
	sslittle-na-sstrix-gcc -Wall -O3 -funroll-loops -finline-functions  -DRANDOM_SIZE=2097152 -DOFFSET=9 -DSORT=base_mergesort sorts/base_mergesort1846111561.c simpleMain.c -o base_mergesort1296467967
	sim-cache -cache:dl1 dl1:256:32:1:l -cache:dl2 dl2:131072:32:1:l -cache:il1 il1:256:32:1:l -cache:il2 dl2 base_mergesort1296467967
	sim-cache -cache:dl1 dl1:256:32:1:l -cache:dl2 dl2:65536:32:1:l -cache:il1 il1:256:32:1:l -cache:il2 dl2 base_mergesort1296467967
	sim-cache -cache:dl1 dl1:1:32:256:l -cache:dl2 dl2:1:32:131072:l -cache:il1 il1:1:32:256:l -cache:il2 dl2 base_mergesort1296467967
	sim-cache -cache:dl1 dl1:1:32:256:l -cache:dl2 dl2:1:32:65536:l -cache:il1 il1:1:32:256:l -cache:il2 dl2 base_mergesort1296467967
	sim-bpred -bpred bimod -bpred:bimod 512 base_mergesort1296467967
	sim-bpred -bpred bimod -bpred:bimod 1024 base_mergesort1296467967
	sim-bpred -bpred bimod -bpred:bimod 2048 base_mergesort1296467967
	sim-bpred -bpred 2lev -bpred:2lev 1 512 10 1 base_mergesort1296467967
	sim-bpred -bpred 2lev -bpred:2lev 1 1024 10 1 base_mergesort1296467967
	sim-bpred -bpred 2lev -bpred:2lev 1 2048 10 1 base_mergesort1296467967
	sim-bpred -bpred 2lev -bpred:2lev 1 4096 10 1 base_mergesort1296467967
	sslittle-na-sstrix-gcc -Wall -O3 -funroll-loops -finline-functions  -DRANDOM_SIZE=4194304 -DOFFSET=9 -DSORT=base_mergesort sorts/base_mergesort1846111561.c simpleMain.c -o base_mergesort1296467967
	sim-cache -cache:dl1 dl1:256:32:1:l -cache:dl2 dl2:131072:32:1:l -cache:il1 il1:256:32:1:l -cache:il2 dl2 base_mergesort1296467967
	sim-cache -cache:dl1 dl1:256:32:1:l -cache:dl2 dl2:65536:32:1:l -cache:il1 il1:256:32:1:l -cache:il2 dl2 base_mergesort1296467967
	sim-cache -cache:dl1 dl1:1:32:256:l -cache:dl2 dl2:1:32:131072:l -cache:il1 il1:1:32:256:l -cache:il2 dl2 base_mergesort1296467967
	sim-cache -cache:dl1 dl1:1:32:256:l -cache:dl2 dl2:1:32:65536:l -cache:il1 il1:1:32:256:l -cache:il2 dl2 base_mergesort1296467967
	sim-bpred -bpred bimod -bpred:bimod 512 base_mergesort1296467967
	sim-bpred -bpred bimod -bpred:bimod 1024 base_mergesort1296467967
	sim-bpred -bpred bimod -bpred:bimod 2048 base_mergesort1296467967
	sim-bpred -bpred 2lev -bpred:2lev 1 512 10 1 base_mergesort1296467967
	sim-bpred -bpred 2lev -bpred:2lev 1 1024 10 1 base_mergesort1296467967
	sim-bpred -bpred 2lev -bpred:2lev 1 2048 10 1 base_mergesort1296467967
	sim-bpred -bpred 2lev -bpred:2lev 1 4096 10 1 base_mergesort1296467967
