Mon Jul 25 02:58:00 2005
Run as: "./do_simple -c random.org7 -o 7 base_radixsort"
-------------------------------------------------------------------------------------------------
sim-cache                                     4096 |         4096 |         4096 |         4096 |         8192 |         8192 |         8192 |         8192 |        16384 |        16384 |        16384 |        16384 |        32768 |        32768 |        32768 |        32768 |        65536 |        65536 |        65536 |        65536 |       131072 |       131072 |       131072 |       131072 |       262144 |       262144 |       262144 |       262144 |       524288 |       524288 |       524288 |       524288 |      1048576 |      1048576 |      1048576 |      1048576 |      2097152 |      2097152 |      2097152 |      2097152 |      4194304 |      4194304 |      4194304 |      4194304 |
-cache:dl1 dl1:256:32:1:l -cache:dl2 dl2:131072:32:1:l -cache:il1 il1:256:32:1:l -cache:il2 dl2
-cache:dl1 dl1:256:32:1:l -cache:dl2 dl2:65536:32:1:l -cache:il1 il1:256:32:1:l -cache:il2 dl2
-cache:dl1 dl1:1:32:256:l -cache:dl2 dl2:1:32:131072:l -cache:il1 il1:1:32:256:l -cache:il2 dl2
-cache:dl1 dl1:1:32:256:l -cache:dl2 dl2:1:32:65536:l -cache:il1 il1:1:32:256:l -cache:il2 dl2
-------------------------------------------------------------------------------------------------
sim_num_insn                                431107 |       431107 |       431107 |       431107 |       849041 |       849041 |       849041 |       849041 |      1684627 |      1684627 |      1684627 |      1684627 |      3355796 |      3355796 |      3355796 |      3355796 |      6698132 |      6698132 |      6698132 |      6698132 |     13382805 |     13382805 |     13382805 |     13382805 |     26752149 |     26752149 |     26752149 |     26752149 |     53490837 |     53490837 |     53490837 |     53490837 |    106980689 |    106980689 |    106980689 |    106980689 |    213944665 |    213944665 |    213944665 |    213944665 |    427872609 |    427872609 |    427872609 |    427872609 |
sim_num_refs                                171671 |       171671 |       171671 |       171671 |       335555 |       335555 |       335555 |       335555 |       663235 |       663235 |       663235 |       663235 |      1318595 |      1318595 |      1318595 |      1318595 |      2629315 |      2629315 |      2629315 |      2629315 |      5250755 |      5250755 |      5250755 |      5250755 |     10493635 |     10493635 |     10493635 |     10493635 |     20979395 |     20979395 |     20979395 |     20979395 |     41960177 |     41960177 |     41960177 |     41960177 |     83909361 |     83909361 |     83909361 |     83909361 |    167807729 |    167807729 |    167807729 |    167807729 |
sim_elapsed_time                                 1 |            1 |            9 |            5 |            1 |            1 |           15 |            7 |            1 |            1 |           25 |           13 |            1 |            1 |           47 |           23 |            2 |            2 |           87 |           42 |            4 |            5 |          158 |           71 |            8 |            8 |          270 |           96 |           17 |           17 |          365 |          107 |           36 |           35 |          385 |          127 |           74 |           71 |          428 |          169 |          142 |          142 |          515 |          255 |
sim_inst_rate                          431107.0000 |  431107.0000 |   47900.7778 |   86221.4000 |  849041.0000 |  849041.0000 |   56602.7333 |  121291.5714 | 1684627.0000 | 1684627.0000 |   67385.0800 |  129586.6923 | 3355796.0000 | 3355796.0000 |   71399.9149 |  145904.1739 | 3349066.0000 | 3349066.0000 |   76990.0230 |  159479.3333 | 3345701.2500 | 2676561.0000 |   84701.2975 |  188490.2113 | 3344018.6250 | 3344018.6250 |   99082.0333 |  278668.2188 | 3146519.8235 | 3146519.8235 |  146550.2384 |  499914.3645 | 2971685.8056 | 3056591.1143 |  277871.9195 |  842367.6299 | 2891144.1216 | 3013305.1408 |  499870.7126 | 1265944.7633 | 3013187.3873 | 3013187.3873 |  830820.6000 | 1677931.8000 |
il1.accesses                                431107 |       431107 |       431107 |       431107 |       849041 |       849041 |       849041 |       849041 |      1684627 |      1684627 |      1684627 |      1684627 |      3355796 |      3355796 |      3355796 |      3355796 |      6698132 |      6698132 |      6698132 |      6698132 |     13382805 |     13382805 |     13382805 |     13382805 |     26752149 |     26752149 |     26752149 |     26752149 |     53490837 |     53490837 |     53490837 |     53490837 |    106980689 |    106980689 |    106980689 |    106980689 |    213944665 |    213944665 |    213944665 |    213944665 |    427872609 |    427872609 |    427872609 |    427872609 |
il1.hits                                    430683 |       430683 |       430735 |       430735 |       848598 |       848598 |       848679 |       848679 |      1684170 |      1684170 |      1684259 |      1684259 |      3355353 |      3355353 |      3355433 |      3355433 |      6697689 |      6697689 |      6697769 |      6697769 |     13382363 |     13382363 |     13382443 |     13382443 |     26751707 |     26751707 |     26751787 |     26751787 |     53490395 |     53490395 |     53490475 |     53490475 |    106980197 |    106980197 |    106980257 |    106980257 |    213944173 |    213944173 |    213944233 |    213944233 |    427872117 |    427872117 |    427872177 |    427872177 |
il1.misses                                     424 |          424 |          372 |          372 |          443 |          443 |          362 |          362 |          457 |          457 |          368 |          368 |          443 |          443 |          363 |          363 |          443 |          443 |          363 |          363 |          442 |          442 |          362 |          362 |          442 |          442 |          362 |          362 |          442 |          442 |          362 |          362 |          492 |          492 |          432 |          432 |          492 |          492 |          432 |          432 |          492 |          492 |          432 |          432 |
il1.replacements                               222 |          222 |          116 |          116 |          243 |          243 |          106 |          106 |          255 |          255 |          112 |          112 |          241 |          241 |          107 |          107 |          241 |          241 |          107 |          107 |          241 |          241 |          106 |          106 |          241 |          241 |          106 |          106 |          241 |          241 |          106 |          106 |          276 |          276 |          176 |          176 |          276 |          276 |          176 |          176 |          276 |          276 |          176 |          176 |
il1.writebacks                                   0 |            0 |            0 |            0 |            0 |            0 |            0 |            0 |            0 |            0 |            0 |            0 |            0 |            0 |            0 |            0 |            0 |            0 |            0 |            0 |            0 |            0 |            0 |            0 |            0 |            0 |            0 |            0 |            0 |            0 |            0 |            0 |            0 |            0 |            0 |            0 |            0 |            0 |            0 |            0 |            0 |            0 |            0 |            0 |
il1.invalidations                                0 |            0 |            0 |            0 |            0 |            0 |            0 |            0 |            0 |            0 |            0 |            0 |            0 |            0 |            0 |            0 |            0 |            0 |            0 |            0 |            0 |            0 |            0 |            0 |            0 |            0 |            0 |            0 |            0 |            0 |            0 |            0 |            0 |            0 |            0 |            0 |            0 |            0 |            0 |            0 |            0 |            0 |            0 |            0 |
il1.miss_rate                               0.0010 |       0.0010 |       0.0009 |       0.0009 |       0.0005 |       0.0005 |       0.0004 |       0.0004 |       0.0003 |       0.0003 |       0.0002 |       0.0002 |       0.0001 |       0.0001 |       0.0001 |       0.0001 |       0.0001 |       0.0001 |       0.0001 |       0.0001 |       0.0000 |       0.0000 |       0.0000 |       0.0000 |       0.0000 |       0.0000 |       0.0000 |       0.0000 |       0.0000 |       0.0000 |       0.0000 |       0.0000 |       0.0000 |       0.0000 |       0.0000 |       0.0000 |       0.0000 |       0.0000 |       0.0000 |       0.0000 |       0.0000 |       0.0000 |       0.0000 |       0.0000 |
il1.repl_rate                               0.0005 |       0.0005 |       0.0003 |       0.0003 |       0.0003 |       0.0003 |       0.0001 |       0.0001 |       0.0002 |       0.0002 |       0.0001 |       0.0001 |       0.0001 |       0.0001 |       0.0000 |       0.0000 |       0.0000 |       0.0000 |       0.0000 |       0.0000 |       0.0000 |       0.0000 |       0.0000 |       0.0000 |       0.0000 |       0.0000 |       0.0000 |       0.0000 |       0.0000 |       0.0000 |       0.0000 |       0.0000 |       0.0000 |       0.0000 |       0.0000 |       0.0000 |       0.0000 |       0.0000 |       0.0000 |       0.0000 |       0.0000 |       0.0000 |       0.0000 |       0.0000 |
il1.wb_rate                                 0.0000 |       0.0000 |       0.0000 |       0.0000 |       0.0000 |       0.0000 |       0.0000 |       0.0000 |       0.0000 |       0.0000 |       0.0000 |       0.0000 |       0.0000 |       0.0000 |       0.0000 |       0.0000 |       0.0000 |       0.0000 |       0.0000 |       0.0000 |       0.0000 |       0.0000 |       0.0000 |       0.0000 |       0.0000 |       0.0000 |       0.0000 |       0.0000 |       0.0000 |       0.0000 |       0.0000 |       0.0000 |       0.0000 |       0.0000 |       0.0000 |       0.0000 |       0.0000 |       0.0000 |       0.0000 |       0.0000 |       0.0000 |       0.0000 |       0.0000 |       0.0000 |
il1.inv_rate                                0.0000 |       0.0000 |       0.0000 |       0.0000 |       0.0000 |       0.0000 |       0.0000 |       0.0000 |       0.0000 |       0.0000 |       0.0000 |       0.0000 |       0.0000 |       0.0000 |       0.0000 |       0.0000 |       0.0000 |       0.0000 |       0.0000 |       0.0000 |       0.0000 |       0.0000 |       0.0000 |       0.0000 |       0.0000 |       0.0000 |       0.0000 |       0.0000 |       0.0000 |       0.0000 |       0.0000 |       0.0000 |       0.0000 |       0.0000 |       0.0000 |       0.0000 |       0.0000 |       0.0000 |       0.0000 |       0.0000 |       0.0000 |       0.0000 |       0.0000 |       0.0000 |
dl1.accesses                                188137 |       188137 |       188137 |       188137 |       368405 |       368405 |       368405 |       368405 |       728853 |       728853 |       728853 |       728853 |      1449749 |      1449749 |      1449749 |      1449749 |      2891541 |      2891541 |      2891541 |      2891541 |      5775125 |      5775125 |      5775125 |      5775125 |     11542293 |     11542293 |     11542293 |     11542293 |     23076629 |     23076629 |     23076629 |     23076629 |     46154563 |     46154563 |     46154563 |     46154563 |     92298051 |     92298051 |     92298051 |     92298051 |    184585027 |    184585027 |    184585027 |    184585027 |
dl1.hits                                    167917 |       167917 |       171925 |       171925 |       327630 |       327630 |       336776 |       336776 |       647572 |       647572 |       666147 |       666147 |      1286204 |      1286204 |      1325018 |      1325018 |      2561310 |      2561310 |      2643196 |      2643196 |      5092835 |      5092835 |      5279263 |      5279263 |     10130511 |     10130511 |     10552360 |     10552360 |     20071896 |     20071896 |     21098585 |     21098585 |     40357519 |     40357519 |     42195627 |     42195627 |     80967722 |     80967722 |     84382779 |     84382779 |    162991320 |    162991320 |    168758618 |    168758618 |
dl1.misses                                   20220 |        20220 |        16212 |        16212 |        40775 |        40775 |        31629 |        31629 |        81281 |        81281 |        62706 |        62706 |       163545 |       163545 |       124731 |       124731 |       330231 |       330231 |       248345 |       248345 |       682290 |       682290 |       495862 |       495862 |      1411782 |      1411782 |       989933 |       989933 |      3004733 |      3004733 |      1978044 |      1978044 |      5797044 |      5797044 |      3958936 |      3958936 |     11330329 |     11330329 |      7915272 |      7915272 |     21593707 |     21593707 |     15826409 |     15826409 |
dl1.replacements                             19964 |        19964 |        15956 |        15956 |        40519 |        40519 |        31373 |        31373 |        81025 |        81025 |        62450 |        62450 |       163289 |       163289 |       124475 |       124475 |       329975 |       329975 |       248089 |       248089 |       682034 |       682034 |       495606 |       495606 |      1411526 |      1411526 |       989677 |       989677 |      3004477 |      3004477 |      1977788 |      1977788 |      5796788 |      5796788 |      3958680 |      3958680 |     11330073 |     11330073 |      7915016 |      7915016 |     21593451 |     21593451 |     15826153 |     15826153 |
dl1.writebacks                               13877 |        13877 |         9997 |         9997 |        28071 |        28071 |        19222 |        19222 |        55900 |        55900 |        37991 |        37991 |       112860 |       112860 |        75431 |        75431 |       228963 |       228963 |       149885 |       149885 |       480067 |       480067 |       299097 |       299097 |      1007106 |      1007106 |       596558 |       596558 |      2195201 |      2195201 |      1191453 |      1191453 |      4178109 |      4178109 |      2385525 |      2385525 |      8094021 |      8094021 |      4768997 |      4768997 |     15121458 |     15121458 |      9534406 |      9534406 |
dl1.invalidations                                0 |            0 |            0 |            0 |            0 |            0 |            0 |            0 |            0 |            0 |            0 |            0 |            0 |            0 |            0 |            0 |            0 |            0 |            0 |            0 |            0 |            0 |            0 |            0 |            0 |            0 |            0 |            0 |            0 |            0 |            0 |            0 |            0 |            0 |            0 |            0 |            0 |            0 |            0 |            0 |            0 |            0 |            0 |            0 |
dl1.miss_rate                               0.1075 |       0.1075 |       0.0862 |       0.0862 |       0.1107 |       0.1107 |       0.0859 |       0.0859 |       0.1115 |       0.1115 |       0.0860 |       0.0860 |       0.1128 |       0.1128 |       0.0860 |       0.0860 |       0.1142 |       0.1142 |       0.0859 |       0.0859 |       0.1181 |       0.1181 |       0.0859 |       0.0859 |       0.1223 |       0.1223 |       0.0858 |       0.0858 |       0.1302 |       0.1302 |       0.0857 |       0.0857 |       0.1256 |       0.1256 |       0.0858 |       0.0858 |       0.1228 |       0.1228 |       0.0858 |       0.0858 |       0.1170 |       0.1170 |       0.0857 |       0.0857 |
dl1.repl_rate                               0.1061 |       0.1061 |       0.0848 |       0.0848 |       0.1100 |       0.1100 |       0.0852 |       0.0852 |       0.1112 |       0.1112 |       0.0857 |       0.0857 |       0.1126 |       0.1126 |       0.0859 |       0.0859 |       0.1141 |       0.1141 |       0.0858 |       0.0858 |       0.1181 |       0.1181 |       0.0858 |       0.0858 |       0.1223 |       0.1223 |       0.0857 |       0.0857 |       0.1302 |       0.1302 |       0.0857 |       0.0857 |       0.1256 |       0.1256 |       0.0858 |       0.0858 |       0.1228 |       0.1228 |       0.0858 |       0.0858 |       0.1170 |       0.1170 |       0.0857 |       0.0857 |
dl1.wb_rate                                 0.0738 |       0.0738 |       0.0531 |       0.0531 |       0.0762 |       0.0762 |       0.0522 |       0.0522 |       0.0767 |       0.0767 |       0.0521 |       0.0521 |       0.0778 |       0.0778 |       0.0520 |       0.0520 |       0.0792 |       0.0792 |       0.0518 |       0.0518 |       0.0831 |       0.0831 |       0.0518 |       0.0518 |       0.0873 |       0.0873 |       0.0517 |       0.0517 |       0.0951 |       0.0951 |       0.0516 |       0.0516 |       0.0905 |       0.0905 |       0.0517 |       0.0517 |       0.0877 |       0.0877 |       0.0517 |       0.0517 |       0.0819 |       0.0819 |       0.0517 |       0.0517 |
dl1.inv_rate                                0.0000 |       0.0000 |       0.0000 |       0.0000 |       0.0000 |       0.0000 |       0.0000 |       0.0000 |       0.0000 |       0.0000 |       0.0000 |       0.0000 |       0.0000 |       0.0000 |       0.0000 |       0.0000 |       0.0000 |       0.0000 |       0.0000 |       0.0000 |       0.0000 |       0.0000 |       0.0000 |       0.0000 |       0.0000 |       0.0000 |       0.0000 |       0.0000 |       0.0000 |       0.0000 |       0.0000 |       0.0000 |       0.0000 |       0.0000 |       0.0000 |       0.0000 |       0.0000 |       0.0000 |       0.0000 |       0.0000 |       0.0000 |       0.0000 |       0.0000 |       0.0000 |
dl2.accesses                                 34521 |        34521 |        26581 |        26581 |        69289 |        69289 |        51213 |        51213 |       137638 |       137638 |       101065 |       101065 |       276848 |       276848 |       200525 |       200525 |       559637 |       559637 |       398593 |       398593 |      1162799 |      1162799 |       795321 |       795321 |      2419330 |      2419330 |      1586853 |      1586853 |      5200376 |      5200376 |      3169859 |      3169859 |      9975645 |      9975645 |      6344893 |      6344893 |     19424842 |     19424842 |     12684701 |     12684701 |     36715657 |     36715657 |     25361247 |     25361247 |
dl2.hits                                     32672 |        32672 |        24741 |        24741 |        66423 |        66423 |        48359 |        48359 |       132713 |       132713 |        96158 |        96158 |       267836 |       267836 |       191526 |       191526 |       542432 |       542432 |       381402 |       381402 |      1129212 |      1129212 |       761747 |       761747 |      2352975 |      2327354 |      1520511 |      1516004 |      5042980 |      4331284 |      3032521 |      1827838 |      8253171 |      7245651 |      3661516 |      3606442 |     13965432 |     13810660 |      7209955 |      7184002 |     25644654 |     25460877 |     14362131 |     14349260 |
dl2.misses                                    1849 |         1849 |         1840 |         1840 |         2866 |         2866 |         2854 |         2854 |         4925 |         4925 |         4907 |         4907 |         9012 |         9012 |         8999 |         8999 |        17205 |        17205 |        17191 |        17191 |        33587 |        33587 |        33574 |        33574 |        66355 |        91976 |        66342 |        70849 |       157396 |       869092 |       137338 |      1342021 |      1722474 |      2729994 |      2683377 |      2738451 |      5459410 |      5614182 |      5474746 |      5500699 |     11071003 |     11254780 |     10999116 |     11011987 |
dl2.replacements                               206 |          206 |            0 |            0 |          226 |          226 |            0 |            0 |          257 |          257 |            0 |            0 |          248 |          248 |            0 |            0 |          249 |          249 |            0 |            0 |          248 |          248 |            0 |            0 |          248 |        27572 |            0 |         5313 |        27456 |       803556 |         6266 |      1276485 |      1591402 |      2664458 |      2552305 |      2672915 |      5328338 |      5548646 |      5343674 |      5435163 |     10939931 |     11189244 |     10868044 |     10946451 |
dl2.writebacks                                 135 |          135 |            0 |            0 |          141 |          141 |            0 |            0 |          166 |          166 |            0 |            0 |          162 |          162 |            0 |            0 |          162 |          162 |            0 |            0 |          162 |          162 |            0 |            0 |          162 |        17312 |            0 |         4942 |        17230 |       530463 |         5906 |       558570 |      1055499 |      1140508 |      1116359 |      1149236 |      2269197 |      2415412 |      2296873 |      2329841 |      4677895 |      4905947 |      4657873 |      4691066 |
dl2.invalidations                                0 |            0 |            0 |            0 |            0 |            0 |            0 |            0 |            0 |            0 |            0 |            0 |            0 |            0 |            0 |            0 |            0 |            0 |            0 |            0 |            0 |            0 |            0 |            0 |            0 |            0 |            0 |            0 |            0 |            0 |            0 |            0 |            0 |            0 |            0 |            0 |            0 |            0 |            0 |            0 |            0 |            0 |            0 |            0 |
dl2.miss_rate                               0.0536 |       0.0536 |       0.0692 |       0.0692 |       0.0414 |       0.0414 |       0.0557 |       0.0557 |       0.0358 |       0.0358 |       0.0486 |       0.0486 |       0.0326 |       0.0326 |       0.0449 |       0.0449 |       0.0307 |       0.0307 |       0.0431 |       0.0431 |       0.0289 |       0.0289 |       0.0422 |       0.0422 |       0.0274 |       0.0380 |       0.0418 |       0.0446 |       0.0303 |       0.1671 |       0.0433 |       0.4234 |       0.1727 |       0.2737 |       0.4229 |       0.4316 |       0.2811 |       0.2890 |       0.4316 |       0.4336 |       0.3015 |       0.3065 |       0.4337 |       0.4342 |
dl2.repl_rate                               0.0060 |       0.0060 |       0.0000 |       0.0000 |       0.0033 |       0.0033 |       0.0000 |       0.0000 |       0.0019 |       0.0019 |       0.0000 |       0.0000 |       0.0009 |       0.0009 |       0.0000 |       0.0000 |       0.0004 |       0.0004 |       0.0000 |       0.0000 |       0.0002 |       0.0002 |       0.0000 |       0.0000 |       0.0001 |       0.0114 |       0.0000 |       0.0033 |       0.0053 |       0.1545 |       0.0020 |       0.4027 |       0.1595 |       0.2671 |       0.4023 |       0.4213 |       0.2743 |       0.2856 |       0.4213 |       0.4285 |       0.2980 |       0.3048 |       0.4285 |       0.4316 |
dl2.wb_rate                                 0.0039 |       0.0039 |       0.0000 |       0.0000 |       0.0020 |       0.0020 |       0.0000 |       0.0000 |       0.0012 |       0.0012 |       0.0000 |       0.0000 |       0.0006 |       0.0006 |       0.0000 |       0.0000 |       0.0003 |       0.0003 |       0.0000 |       0.0000 |       0.0001 |       0.0001 |       0.0000 |       0.0000 |       0.0001 |       0.0072 |       0.0000 |       0.0031 |       0.0033 |       0.1020 |       0.0019 |       0.1762 |       0.1058 |       0.1143 |       0.1759 |       0.1811 |       0.1168 |       0.1243 |       0.1811 |       0.1837 |       0.1274 |       0.1336 |       0.1837 |       0.1850 |
dl2.inv_rate                                0.0000 |       0.0000 |       0.0000 |       0.0000 |       0.0000 |       0.0000 |       0.0000 |       0.0000 |       0.0000 |       0.0000 |       0.0000 |       0.0000 |       0.0000 |       0.0000 |       0.0000 |       0.0000 |       0.0000 |       0.0000 |       0.0000 |       0.0000 |       0.0000 |       0.0000 |       0.0000 |       0.0000 |       0.0000 |       0.0000 |       0.0000 |       0.0000 |       0.0000 |       0.0000 |       0.0000 |       0.0000 |       0.0000 |       0.0000 |       0.0000 |       0.0000 |       0.0000 |       0.0000 |       0.0000 |       0.0000 |       0.0000 |       0.0000 |       0.0000 |       0.0000 |
itlb.accesses                               431107 |       431107 |       431107 |       431107 |       849041 |       849041 |       849041 |       849041 |      1684627 |      1684627 |      1684627 |      1684627 |      3355796 |      3355796 |      3355796 |      3355796 |      6698132 |      6698132 |      6698132 |      6698132 |     13382805 |     13382805 |     13382805 |     13382805 |     26752149 |     26752149 |     26752149 |     26752149 |     53490837 |     53490837 |     53490837 |     53490837 |    106980689 |    106980689 |    106980689 |    106980689 |    213944665 |    213944665 |    213944665 |    213944665 |    427872609 |    427872609 |    427872609 |    427872609 |
itlb.hits                                   431096 |       431096 |       431096 |       431096 |       849031 |       849031 |       849031 |       849031 |      1684617 |      1684617 |      1684617 |      1684617 |      3355786 |      3355786 |      3355786 |      3355786 |      6698122 |      6698122 |      6698122 |      6698122 |     13382795 |     13382795 |     13382795 |     13382795 |     26752139 |     26752139 |     26752139 |     26752139 |     53490827 |     53490827 |     53490827 |     53490827 |    106980679 |    106980679 |    106980679 |    106980679 |    213944655 |    213944655 |    213944655 |    213944655 |    427872599 |    427872599 |    427872599 |    427872599 |
itlb.misses                                     11 |           11 |           11 |           11 |           10 |           10 |           10 |           10 |           10 |           10 |           10 |           10 |           10 |           10 |           10 |           10 |           10 |           10 |           10 |           10 |           10 |           10 |           10 |           10 |           10 |           10 |           10 |           10 |           10 |           10 |           10 |           10 |           10 |           10 |           10 |           10 |           10 |           10 |           10 |           10 |           10 |           10 |           10 |           10 |
itlb.replacements                                0 |            0 |            0 |            0 |            0 |            0 |            0 |            0 |            0 |            0 |            0 |            0 |            0 |            0 |            0 |            0 |            0 |            0 |            0 |            0 |            0 |            0 |            0 |            0 |            0 |            0 |            0 |            0 |            0 |            0 |            0 |            0 |            0 |            0 |            0 |            0 |            0 |            0 |            0 |            0 |            0 |            0 |            0 |            0 |
itlb.writebacks                                  0 |            0 |            0 |            0 |            0 |            0 |            0 |            0 |            0 |            0 |            0 |            0 |            0 |            0 |            0 |            0 |            0 |            0 |            0 |            0 |            0 |            0 |            0 |            0 |            0 |            0 |            0 |            0 |            0 |            0 |            0 |            0 |            0 |            0 |            0 |            0 |            0 |            0 |            0 |            0 |            0 |            0 |            0 |            0 |
itlb.invalidations                               0 |            0 |            0 |            0 |            0 |            0 |            0 |            0 |            0 |            0 |            0 |            0 |            0 |            0 |            0 |            0 |            0 |            0 |            0 |            0 |            0 |            0 |            0 |            0 |            0 |            0 |            0 |            0 |            0 |            0 |            0 |            0 |            0 |            0 |            0 |            0 |            0 |            0 |            0 |            0 |            0 |            0 |            0 |            0 |
itlb.miss_rate                              0.0000 |       0.0000 |       0.0000 |       0.0000 |       0.0000 |       0.0000 |       0.0000 |       0.0000 |       0.0000 |       0.0000 |       0.0000 |       0.0000 |       0.0000 |       0.0000 |       0.0000 |       0.0000 |       0.0000 |       0.0000 |       0.0000 |       0.0000 |       0.0000 |       0.0000 |       0.0000 |       0.0000 |       0.0000 |       0.0000 |       0.0000 |       0.0000 |       0.0000 |       0.0000 |       0.0000 |       0.0000 |       0.0000 |       0.0000 |       0.0000 |       0.0000 |       0.0000 |       0.0000 |       0.0000 |       0.0000 |       0.0000 |       0.0000 |       0.0000 |       0.0000 |
itlb.repl_rate                              0.0000 |       0.0000 |       0.0000 |       0.0000 |       0.0000 |       0.0000 |       0.0000 |       0.0000 |       0.0000 |       0.0000 |       0.0000 |       0.0000 |       0.0000 |       0.0000 |       0.0000 |       0.0000 |       0.0000 |       0.0000 |       0.0000 |       0.0000 |       0.0000 |       0.0000 |       0.0000 |       0.0000 |       0.0000 |       0.0000 |       0.0000 |       0.0000 |       0.0000 |       0.0000 |       0.0000 |       0.0000 |       0.0000 |       0.0000 |       0.0000 |       0.0000 |       0.0000 |       0.0000 |       0.0000 |       0.0000 |       0.0000 |       0.0000 |       0.0000 |       0.0000 |
itlb.wb_rate                                0.0000 |       0.0000 |       0.0000 |       0.0000 |       0.0000 |       0.0000 |       0.0000 |       0.0000 |       0.0000 |       0.0000 |       0.0000 |       0.0000 |       0.0000 |       0.0000 |       0.0000 |       0.0000 |       0.0000 |       0.0000 |       0.0000 |       0.0000 |       0.0000 |       0.0000 |       0.0000 |       0.0000 |       0.0000 |       0.0000 |       0.0000 |       0.0000 |       0.0000 |       0.0000 |       0.0000 |       0.0000 |       0.0000 |       0.0000 |       0.0000 |       0.0000 |       0.0000 |       0.0000 |       0.0000 |       0.0000 |       0.0000 |       0.0000 |       0.0000 |       0.0000 |
itlb.inv_rate                               0.0000 |       0.0000 |       0.0000 |       0.0000 |       0.0000 |       0.0000 |       0.0000 |       0.0000 |       0.0000 |       0.0000 |       0.0000 |       0.0000 |       0.0000 |       0.0000 |       0.0000 |       0.0000 |       0.0000 |       0.0000 |       0.0000 |       0.0000 |       0.0000 |       0.0000 |       0.0000 |       0.0000 |       0.0000 |       0.0000 |       0.0000 |       0.0000 |       0.0000 |       0.0000 |       0.0000 |       0.0000 |       0.0000 |       0.0000 |       0.0000 |       0.0000 |       0.0000 |       0.0000 |       0.0000 |       0.0000 |       0.0000 |       0.0000 |       0.0000 |       0.0000 |
dtlb.accesses                               188137 |       188137 |       188137 |       188137 |       368405 |       368405 |       368405 |       368405 |       728853 |       728853 |       728853 |       728853 |      1449749 |      1449749 |      1449749 |      1449749 |      2891541 |      2891541 |      2891541 |      2891541 |      5775125 |      5775125 |      5775125 |      5775125 |     11542293 |     11542293 |     11542293 |     11542293 |     23076629 |     23076629 |     23076629 |     23076629 |     46154563 |     46154563 |     46154563 |     46154563 |     92298051 |     92298051 |     92298051 |     92298051 |    184585027 |    184585027 |    184585027 |    184585027 |
dtlb.hits                                   188122 |       188122 |       188122 |       188122 |       368382 |       368382 |       368382 |       368382 |       728814 |       728814 |       728814 |       728814 |      1449678 |      1449678 |      1449678 |      1449678 |      2891374 |      2891374 |      2891374 |      2891374 |      5763737 |      5763737 |      5763737 |      5763737 |     11013273 |     11013273 |     11013273 |     11013273 |     21712633 |     21712633 |     21712633 |     21712633 |     42884854 |     42884854 |     42884854 |     42884854 |     84987968 |     84987968 |     84987968 |     84987968 |    169292892 |    169292892 |    169292892 |    169292892 |
dtlb.misses                                     15 |           15 |           15 |           15 |           23 |           23 |           23 |           23 |           39 |           39 |           39 |           39 |           71 |           71 |           71 |           71 |          167 |          167 |          167 |          167 |        11388 |        11388 |        11388 |        11388 |       529020 |       529020 |       529020 |       529020 |      1363996 |      1363996 |      1363996 |      1363996 |      3269709 |      3269709 |      3269709 |      3269709 |      7310083 |      7310083 |      7310083 |      7310083 |     15292135 |     15292135 |     15292135 |     15292135 |
dtlb.replacements                                0 |            0 |            0 |            0 |            0 |            0 |            0 |            0 |            0 |            0 |            0 |            0 |            0 |            0 |            0 |            0 |           39 |           39 |           39 |           39 |        11260 |        11260 |        11260 |        11260 |       528892 |       528892 |       528892 |       528892 |      1363868 |      1363868 |      1363868 |      1363868 |      3269581 |      3269581 |      3269581 |      3269581 |      7309955 |      7309955 |      7309955 |      7309955 |     15292007 |     15292007 |     15292007 |     15292007 |
dtlb.writebacks                                  0 |            0 |            0 |            0 |            0 |            0 |            0 |            0 |            0 |            0 |            0 |            0 |            0 |            0 |            0 |            0 |           27 |           27 |           27 |           27 |        10132 |        10132 |        10132 |        10132 |       525966 |       525966 |       525966 |       525966 |      1357826 |      1357826 |      1357826 |      1357826 |      3257370 |      3257370 |      3257370 |      3257370 |      7285443 |      7285443 |      7285443 |      7285443 |     15242917 |     15242917 |     15242917 |     15242917 |
dtlb.invalidations                               0 |            0 |            0 |            0 |            0 |            0 |            0 |            0 |            0 |            0 |            0 |            0 |            0 |            0 |            0 |            0 |            0 |            0 |            0 |            0 |            0 |            0 |            0 |            0 |            0 |            0 |            0 |            0 |            0 |            0 |            0 |            0 |            0 |            0 |            0 |            0 |            0 |            0 |            0 |            0 |            0 |            0 |            0 |            0 |
dtlb.miss_rate                              0.0001 |       0.0001 |       0.0001 |       0.0001 |       0.0001 |       0.0001 |       0.0001 |       0.0001 |       0.0001 |       0.0001 |       0.0001 |       0.0001 |       0.0000 |       0.0000 |       0.0000 |       0.0000 |       0.0001 |       0.0001 |       0.0001 |       0.0001 |       0.0020 |       0.0020 |       0.0020 |       0.0020 |       0.0458 |       0.0458 |       0.0458 |       0.0458 |       0.0591 |       0.0591 |       0.0591 |       0.0591 |       0.0708 |       0.0708 |       0.0708 |       0.0708 |       0.0792 |       0.0792 |       0.0792 |       0.0792 |       0.0828 |       0.0828 |       0.0828 |       0.0828 |
dtlb.repl_rate                              0.0000 |       0.0000 |       0.0000 |       0.0000 |       0.0000 |       0.0000 |       0.0000 |       0.0000 |       0.0000 |       0.0000 |       0.0000 |       0.0000 |       0.0000 |       0.0000 |       0.0000 |       0.0000 |       0.0000 |       0.0000 |       0.0000 |       0.0000 |       0.0019 |       0.0019 |       0.0019 |       0.0019 |       0.0458 |       0.0458 |       0.0458 |       0.0458 |       0.0591 |       0.0591 |       0.0591 |       0.0591 |       0.0708 |       0.0708 |       0.0708 |       0.0708 |       0.0792 |       0.0792 |       0.0792 |       0.0792 |       0.0828 |       0.0828 |       0.0828 |       0.0828 |
dtlb.wb_rate                                0.0000 |       0.0000 |       0.0000 |       0.0000 |       0.0000 |       0.0000 |       0.0000 |       0.0000 |       0.0000 |       0.0000 |       0.0000 |       0.0000 |       0.0000 |       0.0000 |       0.0000 |       0.0000 |       0.0000 |       0.0000 |       0.0000 |       0.0000 |       0.0018 |       0.0018 |       0.0018 |       0.0018 |       0.0456 |       0.0456 |       0.0456 |       0.0456 |       0.0588 |       0.0588 |       0.0588 |       0.0588 |       0.0706 |       0.0706 |       0.0706 |       0.0706 |       0.0789 |       0.0789 |       0.0789 |       0.0789 |       0.0826 |       0.0826 |       0.0826 |       0.0826 |
dtlb.inv_rate                               0.0000 |       0.0000 |       0.0000 |       0.0000 |       0.0000 |       0.0000 |       0.0000 |       0.0000 |       0.0000 |       0.0000 |       0.0000 |       0.0000 |       0.0000 |       0.0000 |       0.0000 |       0.0000 |       0.0000 |       0.0000 |       0.0000 |       0.0000 |       0.0000 |       0.0000 |       0.0000 |       0.0000 |       0.0000 |       0.0000 |       0.0000 |       0.0000 |       0.0000 |       0.0000 |       0.0000 |       0.0000 |       0.0000 |       0.0000 |       0.0000 |       0.0000 |       0.0000 |       0.0000 |       0.0000 |       0.0000 |       0.0000 |       0.0000 |       0.0000 |       0.0000 |
ld_text_base                            0x00400000 |   0x00400000 |   0x00400000 |   0x00400000 |   0x00400000 |   0x00400000 |   0x00400000 |   0x00400000 |   0x00400000 |   0x00400000 |   0x00400000 |   0x00400000 |   0x00400000 |   0x00400000 |   0x00400000 |   0x00400000 |   0x00400000 |   0x00400000 |   0x00400000 |   0x00400000 |   0x00400000 |   0x00400000 |   0x00400000 |   0x00400000 |   0x00400000 |   0x00400000 |   0x00400000 |   0x00400000 |   0x00400000 |   0x00400000 |   0x00400000 |   0x00400000 |   0x00400000 |   0x00400000 |   0x00400000 |   0x00400000 |   0x00400000 |   0x00400000 |   0x00400000 |   0x00400000 |   0x00400000 |   0x00400000 |   0x00400000 |   0x00400000 |
ld_text_size                                 73136 |        73136 |        73136 |        73136 |        73168 |        73168 |        73168 |        73168 |        73184 |        73184 |        73184 |        73184 |        73200 |        73200 |        73200 |        73200 |        73200 |        73200 |        73200 |        73200 |        73200 |        73200 |        73200 |        73200 |        73200 |        73200 |        73200 |        73200 |        73200 |        73200 |        73200 |        73200 |        73200 |        73200 |        73200 |        73200 |        73200 |        73200 |        73200 |        73200 |        73200 |        73200 |        73200 |        73200 |
ld_data_base                            0x10000000 |   0x10000000 |   0x10000000 |   0x10000000 |   0x10000000 |   0x10000000 |   0x10000000 |   0x10000000 |   0x10000000 |   0x10000000 |   0x10000000 |   0x10000000 |   0x10000000 |   0x10000000 |   0x10000000 |   0x10000000 |   0x10000000 |   0x10000000 |   0x10000000 |   0x10000000 |   0x10000000 |   0x10000000 |   0x10000000 |   0x10000000 |   0x10000000 |   0x10000000 |   0x10000000 |   0x10000000 |   0x10000000 |   0x10000000 |   0x10000000 |   0x10000000 |   0x10000000 |   0x10000000 |   0x10000000 |   0x10000000 |   0x10000000 |   0x10000000 |   0x10000000 |   0x10000000 |   0x10000000 |   0x10000000 |   0x10000000 |   0x10000000 |
ld_data_size                                  8192 |         8192 |         8192 |         8192 |         8192 |         8192 |         8192 |         8192 |         8192 |         8192 |         8192 |         8192 |         8192 |         8192 |         8192 |         8192 |         8192 |         8192 |         8192 |         8192 |         8192 |         8192 |         8192 |         8192 |         8192 |         8192 |         8192 |         8192 |         8192 |         8192 |         8192 |         8192 |         8192 |         8192 |         8192 |         8192 |         8192 |         8192 |         8192 |         8192 |         8192 |         8192 |         8192 |         8192 |
ld_stack_base                           0x7fffc000 |   0x7fffc000 |   0x7fffc000 |   0x7fffc000 |   0x7fffc000 |   0x7fffc000 |   0x7fffc000 |   0x7fffc000 |   0x7fffc000 |   0x7fffc000 |   0x7fffc000 |   0x7fffc000 |   0x7fffc000 |   0x7fffc000 |   0x7fffc000 |   0x7fffc000 |   0x7fffc000 |   0x7fffc000 |   0x7fffc000 |   0x7fffc000 |   0x7fffc000 |   0x7fffc000 |   0x7fffc000 |   0x7fffc000 |   0x7fffc000 |   0x7fffc000 |   0x7fffc000 |   0x7fffc000 |   0x7fffc000 |   0x7fffc000 |   0x7fffc000 |   0x7fffc000 |   0x7fffc000 |   0x7fffc000 |   0x7fffc000 |   0x7fffc000 |   0x7fffc000 |   0x7fffc000 |   0x7fffc000 |   0x7fffc000 |   0x7fffc000 |   0x7fffc000 |   0x7fffc000 |   0x7fffc000 |
ld_stack_size                                16384 |        16384 |        16384 |        16384 |        16384 |        16384 |        16384 |        16384 |        16384 |        16384 |        16384 |        16384 |        16384 |        16384 |        16384 |        16384 |        16384 |        16384 |        16384 |        16384 |        16384 |        16384 |        16384 |        16384 |        16384 |        16384 |        16384 |        16384 |        16384 |        16384 |        16384 |        16384 |        16384 |        16384 |        16384 |        16384 |        16384 |        16384 |        16384 |        16384 |        16384 |        16384 |        16384 |        16384 |
ld_prog_entry                           0x00400140 |   0x00400140 |   0x00400140 |   0x00400140 |   0x00400140 |   0x00400140 |   0x00400140 |   0x00400140 |   0x00400140 |   0x00400140 |   0x00400140 |   0x00400140 |   0x00400140 |   0x00400140 |   0x00400140 |   0x00400140 |   0x00400140 |   0x00400140 |   0x00400140 |   0x00400140 |   0x00400140 |   0x00400140 |   0x00400140 |   0x00400140 |   0x00400140 |   0x00400140 |   0x00400140 |   0x00400140 |   0x00400140 |   0x00400140 |   0x00400140 |   0x00400140 |   0x00400140 |   0x00400140 |   0x00400140 |   0x00400140 |   0x00400140 |   0x00400140 |   0x00400140 |   0x00400140 |   0x00400140 |   0x00400140 |   0x00400140 |   0x00400140 |
ld_environ_base                         0x7fff8000 |   0x7fff8000 |   0x7fff8000 |   0x7fff8000 |   0x7fff8000 |   0x7fff8000 |   0x7fff8000 |   0x7fff8000 |   0x7fff8000 |   0x7fff8000 |   0x7fff8000 |   0x7fff8000 |   0x7fff8000 |   0x7fff8000 |   0x7fff8000 |   0x7fff8000 |   0x7fff8000 |   0x7fff8000 |   0x7fff8000 |   0x7fff8000 |   0x7fff8000 |   0x7fff8000 |   0x7fff8000 |   0x7fff8000 |   0x7fff8000 |   0x7fff8000 |   0x7fff8000 |   0x7fff8000 |   0x7fff8000 |   0x7fff8000 |   0x7fff8000 |   0x7fff8000 |   0x7fff8000 |   0x7fff8000 |   0x7fff8000 |   0x7fff8000 |   0x7fff8000 |   0x7fff8000 |   0x7fff8000 |   0x7fff8000 |   0x7fff8000 |   0x7fff8000 |   0x7fff8000 |   0x7fff8000 |
ld_target_big_endian                             0 |            0 |            0 |            0 |            0 |            0 |            0 |            0 |            0 |            0 |            0 |            0 |            0 |            0 |            0 |            0 |            0 |            0 |            0 |            0 |            0 |            0 |            0 |            0 |            0 |            0 |            0 |            0 |            0 |            0 |            0 |            0 |            0 |            0 |            0 |            0 |            0 |            0 |            0 |            0 |            0 |            0 |            0 |            0 |
mem.page_count                                  33 |           33 |           33 |           33 |           41 |           41 |           41 |           41 |           57 |           57 |           57 |           57 |           89 |           89 |           89 |           89 |          153 |          153 |          153 |          153 |          281 |          281 |          281 |          281 |          537 |          537 |          537 |          537 |         1049 |         1049 |         1049 |         1049 |         2079 |         2079 |         2079 |         2079 |         4133 |         4133 |         4133 |         4133 |         8241 |         8241 |         8241 |         8241 |
mem.page_mem                                  132k |         132k |         132k |         132k |         164k |         164k |         164k |         164k |         228k |         228k |         228k |         228k |         356k |         356k |         356k |         356k |         612k |         612k |         612k |         612k |        1124k |        1124k |        1124k |        1124k |        2148k |        2148k |        2148k |        2148k |        4196k |        4196k |        4196k |        4196k |        8316k |        8316k |        8316k |        8316k |       16532k |       16532k |       16532k |       16532k |       32964k |       32964k |       32964k |       32964k |
mem.ptab_misses                                 33 |           33 |           33 |           33 |           41 |           41 |           41 |           41 |           57 |           57 |           57 |           57 |           89 |           89 |           89 |           89 |          153 |          153 |          153 |          153 |          281 |          281 |          281 |          281 |          537 |          537 |          537 |          537 |         1049 |         1049 |         1049 |         1049 |        20514 |        20514 |        20514 |        20514 |        20524 |        20524 |        20524 |        20524 |        24632 |        24632 |        24632 |        24632 |
mem.ptab_accesses                          2554094 |      2554094 |      2554094 |      2554094 |      4586558 |      4586558 |      4586558 |      4586558 |      8649894 |      8649894 |      8649894 |      8649894 |     16776458 |     16776458 |     16776458 |     16776458 |     33029386 |     33029386 |     33029386 |     33029386 |     65535246 |     65535246 |     65535246 |     65535246 |    130546958 |    130546958 |    130546958 |    130546958 |    260570382 |    260570382 |    260570382 |    260570382 |    520685658 |    520685658 |    520685658 |    520685658 |   1040828538 |   1040828538 |   1040828538 |   1040828538 |   2081114266 |   2081114266 |   2081114266 |   2081114266 |
mem.ptab_miss_rate                          0.0000 |       0.0000 |       0.0000 |       0.0000 |       0.0000 |       0.0000 |       0.0000 |       0.0000 |       0.0000 |       0.0000 |       0.0000 |       0.0000 |       0.0000 |       0.0000 |       0.0000 |       0.0000 |       0.0000 |       0.0000 |       0.0000 |       0.0000 |       0.0000 |       0.0000 |       0.0000 |       0.0000 |       0.0000 |       0.0000 |       0.0000 |       0.0000 |       0.0000 |       0.0000 |       0.0000 |       0.0000 |       0.0000 |       0.0000 |       0.0000 |       0.0000 |       0.0000 |       0.0000 |       0.0000 |       0.0000 |       0.0000 |       0.0000 |       0.0000 |       0.0000 |
-------------------------------------------------------------------------------------------------
sim-bpred                                     4096 |         4096 |         4096 |         4096 |         4096 |         4096 |         4096 |         8192 |         8192 |         8192 |         8192 |         8192 |         8192 |         8192 |        16384 |        16384 |        16384 |        16384 |        16384 |        16384 |        16384 |        32768 |        32768 |        32768 |        32768 |        32768 |        32768 |        32768 |        65536 |        65536 |        65536 |        65536 |        65536 |        65536 |        65536 |       131072 |       131072 |       131072 |       131072 |       131072 |       131072 |       131072 |       262144 |       262144 |       262144 |       262144 |       262144 |       262144 |       262144 |       524288 |       524288 |       524288 |       524288 |       524288 |       524288 |       524288 |      1048576 |      1048576 |      1048576 |      1048576 |      1048576 |      1048576 |      1048576 |      2097152 |      2097152 |      2097152 |      2097152 |      2097152 |      2097152 |      2097152 |      4194304 |      4194304 |      4194304 |      4194304 |      4194304 |      4194304 |      4194304 |
-bpred bimod -bpred:bimod 512
-bpred bimod -bpred:bimod 1024
-bpred bimod -bpred:bimod 2048
-bpred 2lev -bpred:2lev 1 512 10 1
-bpred 2lev -bpred:2lev 1 1024 10 1
-bpred 2lev -bpred:2lev 1 2048 10 1
-bpred 2lev -bpred:2lev 1 4096 10 1
-------------------------------------------------------------------------------------------------
sim_num_insn                                431107 |       431107 |       431107 |       431107 |       431107 |       431107 |       431107 |       849041 |       849041 |       849041 |       849041 |       849041 |       849041 |       849041 |      1684627 |      1684627 |      1684627 |      1684627 |      1684627 |      1684627 |      1684627 |      3355796 |      3355796 |      3355796 |      3355796 |      3355796 |      3355796 |      3355796 |      6698132 |      6698132 |      6698132 |      6698132 |      6698132 |      6698132 |      6698132 |     13382805 |     13382805 |     13382805 |     13382805 |     13382805 |     13382805 |     13382805 |     26752149 |     26752149 |     26752149 |     26752149 |     26752149 |     26752149 |     26752149 |     53490837 |     53490837 |     53490837 |     53490837 |     53490837 |     53490837 |     53490837 |    106980689 |    106980689 |    106980689 |    106980689 |    106980689 |    106980689 |    106980689 |    213944665 |    213944665 |    213944665 |    213944665 |    213944665 |    213944665 |    213944665 |    427872609 |    427872609 |    427872609 |    427872609 |    427872609 |    427872609 |    427872609 |
sim_num_refs                                171671 |       171671 |       171671 |       171671 |       171671 |       171671 |       171671 |       335555 |       335555 |       335555 |       335555 |       335555 |       335555 |       335555 |       663235 |       663235 |       663235 |       663235 |       663235 |       663235 |       663235 |      1318595 |      1318595 |      1318595 |      1318595 |      1318595 |      1318595 |      1318595 |      2629315 |      2629315 |      2629315 |      2629315 |      2629315 |      2629315 |      2629315 |      5250755 |      5250755 |      5250755 |      5250755 |      5250755 |      5250755 |      5250755 |     10493635 |     10493635 |     10493635 |     10493635 |     10493635 |     10493635 |     10493635 |     20979395 |     20979395 |     20979395 |     20979395 |     20979395 |     20979395 |     20979395 |     41960177 |     41960177 |     41960177 |     41960177 |     41960177 |     41960177 |     41960177 |     83909361 |     83909361 |     83909361 |     83909361 |     83909361 |     83909361 |     83909361 |    167807729 |    167807729 |    167807729 |    167807729 |    167807729 |    167807729 |    167807729 |
sim_elapsed_time                                 1 |            1 |            1 |            1 |            1 |            1 |            1 |            1 |            1 |            1 |            1 |            1 |            1 |            1 |            1 |            1 |            1 |            1 |            1 |            1 |            1 |            1 |            1 |            1 |            1 |            1 |            1 |            1 |            1 |            1 |            1 |            1 |            1 |            1 |            1 |            1 |            2 |            1 |            1 |            2 |            1 |            1 |            3 |            3 |            3 |            2 |            3 |            3 |            3 |            5 |            6 |            5 |            6 |            5 |            6 |            5 |           11 |           11 |           10 |           11 |           11 |           11 |           11 |           22 |           21 |           22 |           22 |           22 |           22 |           21 |           43 |           44 |           43 |           44 |           43 |           44 |           44 |
sim_inst_rate                          431107.0000 |  431107.0000 |  431107.0000 |  431107.0000 |  431107.0000 |  431107.0000 |  431107.0000 |  849041.0000 |  849041.0000 |  849041.0000 |  849041.0000 |  849041.0000 |  849041.0000 |  849041.0000 | 1684627.0000 | 1684627.0000 | 1684627.0000 | 1684627.0000 | 1684627.0000 | 1684627.0000 | 1684627.0000 | 3355796.0000 | 3355796.0000 | 3355796.0000 | 3355796.0000 | 3355796.0000 | 3355796.0000 | 3355796.0000 | 6698132.0000 | 6698132.0000 | 6698132.0000 | 6698132.0000 | 6698132.0000 | 6698132.0000 | 6698132.0000 |13382805.0000 | 6691402.5000 |13382805.0000 |13382805.0000 | 6691402.5000 |13382805.0000 |13382805.0000 | 8917383.0000 | 8917383.0000 | 8917383.0000 |13376074.5000 | 8917383.0000 | 8917383.0000 | 8917383.0000 |10698167.4000 | 8915139.5000 |10698167.4000 | 8915139.5000 |10698167.4000 | 8915139.5000 |10698167.4000 | 9725517.1818 | 9725517.1818 |10698068.9000 | 9725517.1818 | 9725517.1818 | 9725517.1818 | 9725517.1818 | 9724757.5000 |10187841.1905 | 9724757.5000 | 9724757.5000 | 9724757.5000 | 9724757.5000 |10187841.1905 | 9950525.7907 | 9724377.4773 | 9950525.7907 | 9724377.4773 | 9950525.7907 | 9724377.4773 | 9724377.4773 |
sim_num_branches                             13419 |        13419 |        13419 |        13419 |        13419 |        13419 |        13419 |        25747 |        25747 |        25747 |        25747 |        25747 |        25747 |        25747 |        50323 |        50323 |        50323 |        50323 |        50323 |        50323 |        50323 |        99475 |        99475 |        99475 |        99475 |        99475 |        99475 |        99475 |       197779 |       197779 |       197779 |       197779 |       197779 |       197779 |       197779 |       394387 |       394387 |       394387 |       394387 |       394387 |       394387 |       394387 |       787603 |       787603 |       787603 |       787603 |       787603 |       787603 |       787603 |      1574035 |      1574035 |      1574035 |      1574035 |      1574035 |      1574035 |      1574035 |      3147692 |      3147692 |      3147692 |      3147692 |      3147692 |      3147692 |      3147692 |      6294191 |      6294191 |      6294191 |      6294191 |      6294191 |      6294191 |      6294191 |     12587186 |     12587186 |     12587186 |     12587186 |     12587186 |     12587186 |     12587186 |
sim_IPB                                    32.1266 |      32.1266 |      32.1266 |      32.1266 |      32.1266 |      32.1266 |      32.1266 |      32.9763 |      32.9763 |      32.9763 |      32.9763 |      32.9763 |      32.9763 |      32.9763 |      33.4763 |      33.4763 |      33.4763 |      33.4763 |      33.4763 |      33.4763 |      33.4763 |      33.7351 |      33.7351 |      33.7351 |      33.7351 |      33.7351 |      33.7351 |      33.7351 |      33.8668 |      33.8668 |      33.8668 |      33.8668 |      33.8668 |      33.8668 |      33.8668 |      33.9332 |      33.9332 |      33.9332 |      33.9332 |      33.9332 |      33.9332 |      33.9332 |      33.9665 |      33.9665 |      33.9665 |      33.9665 |      33.9665 |      33.9665 |      33.9665 |      33.9833 |      33.9833 |      33.9833 |      33.9833 |      33.9833 |      33.9833 |      33.9833 |      33.9870 |      33.9870 |      33.9870 |      33.9870 |      33.9870 |      33.9870 |      33.9870 |      33.9908 |      33.9908 |      33.9908 |      33.9908 |      33.9908 |      33.9908 |      33.9908 |      33.9927 |      33.9927 |      33.9927 |      33.9927 |      33.9927 |      33.9927 |      33.9927 |
bpred_bimod.lookups                          13419 |        13419 |        13419 |xxxxxxxxxxxxx |xxxxxxxxxxxxx |xxxxxxxxxxxxx |xxxxxxxxxxxxx |        25747 |        25747 |        25747 |xxxxxxxxxxxxx |xxxxxxxxxxxxx |xxxxxxxxxxxxx |xxxxxxxxxxxxx |        50323 |        50323 |        50323 |xxxxxxxxxxxxx |xxxxxxxxxxxxx |xxxxxxxxxxxxx |xxxxxxxxxxxxx |        99475 |        99475 |        99475 |xxxxxxxxxxxxx |xxxxxxxxxxxxx |xxxxxxxxxxxxx |xxxxxxxxxxxxx |       197779 |       197779 |       197779 |xxxxxxxxxxxxx |xxxxxxxxxxxxx |xxxxxxxxxxxxx |xxxxxxxxxxxxx |       394387 |       394387 |       394387 |xxxxxxxxxxxxx |xxxxxxxxxxxxx |xxxxxxxxxxxxx |xxxxxxxxxxxxx |       787603 |       787603 |       787603 |xxxxxxxxxxxxx |xxxxxxxxxxxxx |xxxxxxxxxxxxx |xxxxxxxxxxxxx |      1574035 |      1574035 |      1574035 |xxxxxxxxxxxxx |xxxxxxxxxxxxx |xxxxxxxxxxxxx |xxxxxxxxxxxxx |      3147692 |      3147692 |      3147692 |xxxxxxxxxxxxx |xxxxxxxxxxxxx |xxxxxxxxxxxxx |xxxxxxxxxxxxx |      6294191 |      6294191 |      6294191 |xxxxxxxxxxxxx |xxxxxxxxxxxxx |xxxxxxxxxxxxx |xxxxxxxxxxxxx |     12587186 |     12587186 |     12587186 |
bpred_bimod.updates                          13419 |        13419 |        13419 |xxxxxxxxxxxxx |xxxxxxxxxxxxx |xxxxxxxxxxxxx |xxxxxxxxxxxxx |        25747 |        25747 |        25747 |xxxxxxxxxxxxx |xxxxxxxxxxxxx |xxxxxxxxxxxxx |xxxxxxxxxxxxx |        50323 |        50323 |        50323 |xxxxxxxxxxxxx |xxxxxxxxxxxxx |xxxxxxxxxxxxx |xxxxxxxxxxxxx |        99475 |        99475 |        99475 |xxxxxxxxxxxxx |xxxxxxxxxxxxx |xxxxxxxxxxxxx |xxxxxxxxxxxxx |       197779 |       197779 |       197779 |xxxxxxxxxxxxx |xxxxxxxxxxxxx |xxxxxxxxxxxxx |xxxxxxxxxxxxx |       394387 |       394387 |       394387 |xxxxxxxxxxxxx |xxxxxxxxxxxxx |xxxxxxxxxxxxx |xxxxxxxxxxxxx |       787603 |       787603 |       787603 |xxxxxxxxxxxxx |xxxxxxxxxxxxx |xxxxxxxxxxxxx |xxxxxxxxxxxxx |      1574035 |      1574035 |      1574035 |xxxxxxxxxxxxx |xxxxxxxxxxxxx |xxxxxxxxxxxxx |xxxxxxxxxxxxx |      3147692 |      3147692 |      3147692 |xxxxxxxxxxxxx |xxxxxxxxxxxxx |xxxxxxxxxxxxx |xxxxxxxxxxxxx |      6294191 |      6294191 |      6294191 |xxxxxxxxxxxxx |xxxxxxxxxxxxx |xxxxxxxxxxxxx |xxxxxxxxxxxxx |     12587186 |     12587186 |     12587186 |
bpred_bimod.addr_hits                        13209 |        13210 |        13210 |xxxxxxxxxxxxx |xxxxxxxxxxxxx |xxxxxxxxxxxxx |xxxxxxxxxxxxx |        25529 |        25531 |        25531 |xxxxxxxxxxxxx |xxxxxxxxxxxxx |xxxxxxxxxxxxx |xxxxxxxxxxxxx |        50101 |        50105 |        50108 |xxxxxxxxxxxxx |xxxxxxxxxxxxx |xxxxxxxxxxxxx |xxxxxxxxxxxxx |        99258 |        99260 |        99260 |xxxxxxxxxxxxx |xxxxxxxxxxxxx |xxxxxxxxxxxxx |xxxxxxxxxxxxx |       197562 |       197564 |       197564 |xxxxxxxxxxxxx |xxxxxxxxxxxxx |xxxxxxxxxxxxx |xxxxxxxxxxxxx |       394170 |       394172 |       394172 |xxxxxxxxxxxxx |xxxxxxxxxxxxx |xxxxxxxxxxxxx |xxxxxxxxxxxxx |       787386 |       787388 |       787388 |xxxxxxxxxxxxx |xxxxxxxxxxxxx |xxxxxxxxxxxxx |xxxxxxxxxxxxx |      1573818 |      1573820 |      1573820 |xxxxxxxxxxxxx |xxxxxxxxxxxxx |xxxxxxxxxxxxx |xxxxxxxxxxxxx |      3147452 |      3147453 |      3147452 |xxxxxxxxxxxxx |xxxxxxxxxxxxx |xxxxxxxxxxxxx |xxxxxxxxxxxxx |      6293951 |      6293952 |      6293951 |xxxxxxxxxxxxx |xxxxxxxxxxxxx |xxxxxxxxxxxxx |xxxxxxxxxxxxx |     12586946 |     12586947 |     12586946 |
bpred_bimod.dir_hits                         13301 |        13305 |        13306 |xxxxxxxxxxxxx |xxxxxxxxxxxxx |xxxxxxxxxxxxx |xxxxxxxxxxxxx |        25624 |        25630 |        25631 |xxxxxxxxxxxxx |xxxxxxxxxxxxx |xxxxxxxxxxxxx |xxxxxxxxxxxxx |        50198 |        50204 |        50208 |xxxxxxxxxxxxx |xxxxxxxxxxxxx |xxxxxxxxxxxxx |xxxxxxxxxxxxx |        99354 |        99358 |        99359 |xxxxxxxxxxxxx |xxxxxxxxxxxxx |xxxxxxxxxxxxx |xxxxxxxxxxxxx |       197658 |       197662 |       197663 |xxxxxxxxxxxxx |xxxxxxxxxxxxx |xxxxxxxxxxxxx |xxxxxxxxxxxxx |       394267 |       394271 |       394272 |xxxxxxxxxxxxx |xxxxxxxxxxxxx |xxxxxxxxxxxxx |xxxxxxxxxxxxx |       787483 |       787487 |       787488 |xxxxxxxxxxxxx |xxxxxxxxxxxxx |xxxxxxxxxxxxx |xxxxxxxxxxxxx |      1573915 |      1573919 |      1573920 |xxxxxxxxxxxxx |xxxxxxxxxxxxx |xxxxxxxxxxxxx |xxxxxxxxxxxxx |      3147560 |      3147562 |      3147563 |xxxxxxxxxxxxx |xxxxxxxxxxxxx |xxxxxxxxxxxxx |xxxxxxxxxxxxx |      6294059 |      6294061 |      6294062 |xxxxxxxxxxxxx |xxxxxxxxxxxxx |xxxxxxxxxxxxx |xxxxxxxxxxxxx |     12587054 |     12587056 |     12587057 |
bpred_bimod.misses                             118 |          114 |          113 |xxxxxxxxxxxxx |xxxxxxxxxxxxx |xxxxxxxxxxxxx |xxxxxxxxxxxxx |          123 |          117 |          116 |xxxxxxxxxxxxx |xxxxxxxxxxxxx |xxxxxxxxxxxxx |xxxxxxxxxxxxx |          125 |          119 |          115 |xxxxxxxxxxxxx |xxxxxxxxxxxxx |xxxxxxxxxxxxx |xxxxxxxxxxxxx |          121 |          117 |          116 |xxxxxxxxxxxxx |xxxxxxxxxxxxx |xxxxxxxxxxxxx |xxxxxxxxxxxxx |          121 |          117 |          116 |xxxxxxxxxxxxx |xxxxxxxxxxxxx |xxxxxxxxxxxxx |xxxxxxxxxxxxx |          120 |          116 |          115 |xxxxxxxxxxxxx |xxxxxxxxxxxxx |xxxxxxxxxxxxx |xxxxxxxxxxxxx |          120 |          116 |          115 |xxxxxxxxxxxxx |xxxxxxxxxxxxx |xxxxxxxxxxxxx |xxxxxxxxxxxxx |          120 |          116 |          115 |xxxxxxxxxxxxx |xxxxxxxxxxxxx |xxxxxxxxxxxxx |xxxxxxxxxxxxx |          132 |          130 |          129 |xxxxxxxxxxxxx |xxxxxxxxxxxxx |xxxxxxxxxxxxx |xxxxxxxxxxxxx |          132 |          130 |          129 |xxxxxxxxxxxxx |xxxxxxxxxxxxx |xxxxxxxxxxxxx |xxxxxxxxxxxxx |          132 |          130 |          129 |
bpred_bimod.jr_hits                             61 |           61 |           61 |xxxxxxxxxxxxx |xxxxxxxxxxxxx |xxxxxxxxxxxxx |xxxxxxxxxxxxx |           69 |           69 |           69 |xxxxxxxxxxxxx |xxxxxxxxxxxxx |xxxxxxxxxxxxx |xxxxxxxxxxxxx |           69 |           69 |           69 |xxxxxxxxxxxxx |xxxxxxxxxxxxx |xxxxxxxxxxxxx |xxxxxxxxxxxxx |           69 |           69 |           69 |xxxxxxxxxxxxx |xxxxxxxxxxxxx |xxxxxxxxxxxxx |xxxxxxxxxxxxx |           69 |           69 |           69 |xxxxxxxxxxxxx |xxxxxxxxxxxxx |xxxxxxxxxxxxx |xxxxxxxxxxxxx |           69 |           69 |           69 |xxxxxxxxxxxxx |xxxxxxxxxxxxx |xxxxxxxxxxxxx |xxxxxxxxxxxxx |           69 |           69 |           69 |xxxxxxxxxxxxx |xxxxxxxxxxxxx |xxxxxxxxxxxxx |xxxxxxxxxxxxx |           69 |           69 |           69 |xxxxxxxxxxxxx |xxxxxxxxxxxxx |xxxxxxxxxxxxx |xxxxxxxxxxxxx |           72 |           72 |           72 |xxxxxxxxxxxxx |xxxxxxxxxxxxx |xxxxxxxxxxxxx |xxxxxxxxxxxxx |           72 |           72 |           72 |xxxxxxxxxxxxx |xxxxxxxxxxxxx |xxxxxxxxxxxxx |xxxxxxxxxxxxx |           72 |           72 |           72 |
bpred_bimod.jr_seen                             61 |           61 |           61 |xxxxxxxxxxxxx |xxxxxxxxxxxxx |xxxxxxxxxxxxx |xxxxxxxxxxxxx |           70 |           70 |           70 |xxxxxxxxxxxxx |xxxxxxxxxxxxx |xxxxxxxxxxxxx |xxxxxxxxxxxxx |           70 |           70 |           70 |xxxxxxxxxxxxx |xxxxxxxxxxxxx |xxxxxxxxxxxxx |xxxxxxxxxxxxx |           70 |           70 |           70 |xxxxxxxxxxxxx |xxxxxxxxxxxxx |xxxxxxxxxxxxx |xxxxxxxxxxxxx |           70 |           70 |           70 |xxxxxxxxxxxxx |xxxxxxxxxxxxx |xxxxxxxxxxxxx |xxxxxxxxxxxxx |           70 |           70 |           70 |xxxxxxxxxxxxx |xxxxxxxxxxxxx |xxxxxxxxxxxxx |xxxxxxxxxxxxx |           70 |           70 |           70 |xxxxxxxxxxxxx |xxxxxxxxxxxxx |xxxxxxxxxxxxx |xxxxxxxxxxxxx |           70 |           70 |           70 |xxxxxxxxxxxxx |xxxxxxxxxxxxx |xxxxxxxxxxxxx |xxxxxxxxxxxxx |           73 |           73 |           73 |xxxxxxxxxxxxx |xxxxxxxxxxxxx |xxxxxxxxxxxxx |xxxxxxxxxxxxx |           73 |           73 |           73 |xxxxxxxxxxxxx |xxxxxxxxxxxxx |xxxxxxxxxxxxx |xxxxxxxxxxxxx |           73 |           73 |           73 |
bpred_bimod.jr_non_ras_hits.PP                   0 |            0 |            0 |xxxxxxxxxxxxx |xxxxxxxxxxxxx |xxxxxxxxxxxxx |xxxxxxxxxxxxx |            0 |            0 |            0 |xxxxxxxxxxxxx |xxxxxxxxxxxxx |xxxxxxxxxxxxx |xxxxxxxxxxxxx |            0 |            0 |            0 |xxxxxxxxxxxxx |xxxxxxxxxxxxx |xxxxxxxxxxxxx |xxxxxxxxxxxxx |            0 |            0 |            0 |xxxxxxxxxxxxx |xxxxxxxxxxxxx |xxxxxxxxxxxxx |xxxxxxxxxxxxx |            0 |            0 |            0 |xxxxxxxxxxxxx |xxxxxxxxxxxxx |xxxxxxxxxxxxx |xxxxxxxxxxxxx |            0 |            0 |            0 |xxxxxxxxxxxxx |xxxxxxxxxxxxx |xxxxxxxxxxxxx |xxxxxxxxxxxxx |            0 |            0 |            0 |xxxxxxxxxxxxx |xxxxxxxxxxxxx |xxxxxxxxxxxxx |xxxxxxxxxxxxx |            0 |            0 |            0 |xxxxxxxxxxxxx |xxxxxxxxxxxxx |xxxxxxxxxxxxx |xxxxxxxxxxxxx |            0 |            0 |            0 |xxxxxxxxxxxxx |xxxxxxxxxxxxx |xxxxxxxxxxxxx |xxxxxxxxxxxxx |            0 |            0 |            0 |xxxxxxxxxxxxx |xxxxxxxxxxxxx |xxxxxxxxxxxxx |xxxxxxxxxxxxx |            0 |            0 |            0 |
bpred_bimod.jr_non_ras_seen.PP                   0 |            0 |            0 |xxxxxxxxxxxxx |xxxxxxxxxxxxx |xxxxxxxxxxxxx |xxxxxxxxxxxxx |            0 |            0 |            0 |xxxxxxxxxxxxx |xxxxxxxxxxxxx |xxxxxxxxxxxxx |xxxxxxxxxxxxx |            0 |            0 |            0 |xxxxxxxxxxxxx |xxxxxxxxxxxxx |xxxxxxxxxxxxx |xxxxxxxxxxxxx |            0 |            0 |            0 |xxxxxxxxxxxxx |xxxxxxxxxxxxx |xxxxxxxxxxxxx |xxxxxxxxxxxxx |            0 |            0 |            0 |xxxxxxxxxxxxx |xxxxxxxxxxxxx |xxxxxxxxxxxxx |xxxxxxxxxxxxx |            0 |            0 |            0 |xxxxxxxxxxxxx |xxxxxxxxxxxxx |xxxxxxxxxxxxx |xxxxxxxxxxxxx |            0 |            0 |            0 |xxxxxxxxxxxxx |xxxxxxxxxxxxx |xxxxxxxxxxxxx |xxxxxxxxxxxxx |            0 |            0 |            0 |xxxxxxxxxxxxx |xxxxxxxxxxxxx |xxxxxxxxxxxxx |xxxxxxxxxxxxx |            1 |            1 |            1 |xxxxxxxxxxxxx |xxxxxxxxxxxxx |xxxxxxxxxxxxx |xxxxxxxxxxxxx |            1 |            1 |            1 |xxxxxxxxxxxxx |xxxxxxxxxxxxx |xxxxxxxxxxxxx |xxxxxxxxxxxxx |            1 |            1 |            1 |
bpred_bimod.bpred_addr_rate                 0.9844 |       0.9844 |       0.9844 |xxxxxxxxxxxxx |xxxxxxxxxxxxx |xxxxxxxxxxxxx |xxxxxxxxxxxxx |       0.9915 |       0.9916 |       0.9916 |xxxxxxxxxxxxx |xxxxxxxxxxxxx |xxxxxxxxxxxxx |xxxxxxxxxxxxx |       0.9956 |       0.9957 |       0.9957 |xxxxxxxxxxxxx |xxxxxxxxxxxxx |xxxxxxxxxxxxx |xxxxxxxxxxxxx |       0.9978 |       0.9978 |       0.9978 |xxxxxxxxxxxxx |xxxxxxxxxxxxx |xxxxxxxxxxxxx |xxxxxxxxxxxxx |       0.9989 |       0.9989 |       0.9989 |xxxxxxxxxxxxx |xxxxxxxxxxxxx |xxxxxxxxxxxxx |xxxxxxxxxxxxx |       0.9994 |       0.9995 |       0.9995 |xxxxxxxxxxxxx |xxxxxxxxxxxxx |xxxxxxxxxxxxx |xxxxxxxxxxxxx |       0.9997 |       0.9997 |       0.9997 |xxxxxxxxxxxxx |xxxxxxxxxxxxx |xxxxxxxxxxxxx |xxxxxxxxxxxxx |       0.9999 |       0.9999 |       0.9999 |xxxxxxxxxxxxx |xxxxxxxxxxxxx |xxxxxxxxxxxxx |xxxxxxxxxxxxx |       0.9999 |       0.9999 |       0.9999 |xxxxxxxxxxxxx |xxxxxxxxxxxxx |xxxxxxxxxxxxx |xxxxxxxxxxxxx |       1.0000 |       1.0000 |       1.0000 |xxxxxxxxxxxxx |xxxxxxxxxxxxx |xxxxxxxxxxxxx |xxxxxxxxxxxxx |       1.0000 |       1.0000 |       1.0000 |
bpred_bimod.bpred_dir_rate                  0.9912 |       0.9915 |       0.9916 |xxxxxxxxxxxxx |xxxxxxxxxxxxx |xxxxxxxxxxxxx |xxxxxxxxxxxxx |       0.9952 |       0.9955 |       0.9955 |xxxxxxxxxxxxx |xxxxxxxxxxxxx |xxxxxxxxxxxxx |xxxxxxxxxxxxx |       0.9975 |       0.9976 |       0.9977 |xxxxxxxxxxxxx |xxxxxxxxxxxxx |xxxxxxxxxxxxx |xxxxxxxxxxxxx |       0.9988 |       0.9988 |       0.9988 |xxxxxxxxxxxxx |xxxxxxxxxxxxx |xxxxxxxxxxxxx |xxxxxxxxxxxxx |       0.9994 |       0.9994 |       0.9994 |xxxxxxxxxxxxx |xxxxxxxxxxxxx |xxxxxxxxxxxxx |xxxxxxxxxxxxx |       0.9997 |       0.9997 |       0.9997 |xxxxxxxxxxxxx |xxxxxxxxxxxxx |xxxxxxxxxxxxx |xxxxxxxxxxxxx |       0.9998 |       0.9999 |       0.9999 |xxxxxxxxxxxxx |xxxxxxxxxxxxx |xxxxxxxxxxxxx |xxxxxxxxxxxxx |       0.9999 |       0.9999 |       0.9999 |xxxxxxxxxxxxx |xxxxxxxxxxxxx |xxxxxxxxxxxxx |xxxxxxxxxxxxx |       1.0000 |       1.0000 |       1.0000 |xxxxxxxxxxxxx |xxxxxxxxxxxxx |xxxxxxxxxxxxx |xxxxxxxxxxxxx |       1.0000 |       1.0000 |       1.0000 |xxxxxxxxxxxxx |xxxxxxxxxxxxx |xxxxxxxxxxxxx |xxxxxxxxxxxxx |       1.0000 |       1.0000 |       1.0000 |
bpred_bimod.bpred_jr_rate                   1.0000 |       1.0000 |       1.0000 |xxxxxxxxxxxxx |xxxxxxxxxxxxx |xxxxxxxxxxxxx |xxxxxxxxxxxxx |       0.9857 |       0.9857 |       0.9857 |xxxxxxxxxxxxx |xxxxxxxxxxxxx |xxxxxxxxxxxxx |xxxxxxxxxxxxx |       0.9857 |       0.9857 |       0.9857 |xxxxxxxxxxxxx |xxxxxxxxxxxxx |xxxxxxxxxxxxx |xxxxxxxxxxxxx |       0.9857 |       0.9857 |       0.9857 |xxxxxxxxxxxxx |xxxxxxxxxxxxx |xxxxxxxxxxxxx |xxxxxxxxxxxxx |       0.9857 |       0.9857 |       0.9857 |xxxxxxxxxxxxx |xxxxxxxxxxxxx |xxxxxxxxxxxxx |xxxxxxxxxxxxx |       0.9857 |       0.9857 |       0.9857 |xxxxxxxxxxxxx |xxxxxxxxxxxxx |xxxxxxxxxxxxx |xxxxxxxxxxxxx |       0.9857 |       0.9857 |       0.9857 |xxxxxxxxxxxxx |xxxxxxxxxxxxx |xxxxxxxxxxxxx |xxxxxxxxxxxxx |       0.9857 |       0.9857 |       0.9857 |xxxxxxxxxxxxx |xxxxxxxxxxxxx |xxxxxxxxxxxxx |xxxxxxxxxxxxx |       0.9863 |       0.9863 |       0.9863 |xxxxxxxxxxxxx |xxxxxxxxxxxxx |xxxxxxxxxxxxx |xxxxxxxxxxxxx |       0.9863 |       0.9863 |       0.9863 |xxxxxxxxxxxxx |xxxxxxxxxxxxx |xxxxxxxxxxxxx |xxxxxxxxxxxxx |       0.9863 |       0.9863 |       0.9863 |
bpred_bimod.bpred_jr_non_ras_rate.PP       <error: |      <error: |      <error: |xxxxxxxxxxxxx |xxxxxxxxxxxxx |xxxxxxxxxxxxx |xxxxxxxxxxxxx |      <error: |      <error: |      <error: |xxxxxxxxxxxxx |xxxxxxxxxxxxx |xxxxxxxxxxxxx |xxxxxxxxxxxxx |      <error: |      <error: |      <error: |xxxxxxxxxxxxx |xxxxxxxxxxxxx |xxxxxxxxxxxxx |xxxxxxxxxxxxx |      <error: |      <error: |      <error: |xxxxxxxxxxxxx |xxxxxxxxxxxxx |xxxxxxxxxxxxx |xxxxxxxxxxxxx |      <error: |      <error: |      <error: |xxxxxxxxxxxxx |xxxxxxxxxxxxx |xxxxxxxxxxxxx |xxxxxxxxxxxxx |      <error: |      <error: |      <error: |xxxxxxxxxxxxx |xxxxxxxxxxxxx |xxxxxxxxxxxxx |xxxxxxxxxxxxx |      <error: |      <error: |      <error: |xxxxxxxxxxxxx |xxxxxxxxxxxxx |xxxxxxxxxxxxx |xxxxxxxxxxxxx |      <error: |      <error: |      <error: |xxxxxxxxxxxxx |xxxxxxxxxxxxx |xxxxxxxxxxxxx |xxxxxxxxxxxxx |       0.0000 |       0.0000 |       0.0000 |xxxxxxxxxxxxx |xxxxxxxxxxxxx |xxxxxxxxxxxxx |xxxxxxxxxxxxx |       0.0000 |       0.0000 |       0.0000 |xxxxxxxxxxxxx |xxxxxxxxxxxxx |xxxxxxxxxxxxx |xxxxxxxxxxxxx |       0.0000 |       0.0000 |       0.0000 |
bpred_bimod.retstack_pushes                     63 |           63 |           63 |xxxxxxxxxxxxx |xxxxxxxxxxxxx |xxxxxxxxxxxxx |xxxxxxxxxxxxx |           72 |           72 |           72 |xxxxxxxxxxxxx |xxxxxxxxxxxxx |xxxxxxxxxxxxx |xxxxxxxxxxxxx |           72 |           72 |           72 |xxxxxxxxxxxxx |xxxxxxxxxxxxx |xxxxxxxxxxxxx |xxxxxxxxxxxxx |           72 |           72 |           72 |xxxxxxxxxxxxx |xxxxxxxxxxxxx |xxxxxxxxxxxxx |xxxxxxxxxxxxx |           72 |           72 |           72 |xxxxxxxxxxxxx |xxxxxxxxxxxxx |xxxxxxxxxxxxx |xxxxxxxxxxxxx |           72 |           72 |           72 |xxxxxxxxxxxxx |xxxxxxxxxxxxx |xxxxxxxxxxxxx |xxxxxxxxxxxxx |           72 |           72 |           72 |xxxxxxxxxxxxx |xxxxxxxxxxxxx |xxxxxxxxxxxxx |xxxxxxxxxxxxx |           72 |           72 |           72 |xxxxxxxxxxxxx |xxxxxxxxxxxxx |xxxxxxxxxxxxx |xxxxxxxxxxxxx |           74 |           74 |           74 |xxxxxxxxxxxxx |xxxxxxxxxxxxx |xxxxxxxxxxxxx |xxxxxxxxxxxxx |           74 |           74 |           74 |xxxxxxxxxxxxx |xxxxxxxxxxxxx |xxxxxxxxxxxxx |xxxxxxxxxxxxx |           74 |           74 |           74 |
bpred_bimod.retstack_pops                       61 |           61 |           61 |xxxxxxxxxxxxx |xxxxxxxxxxxxx |xxxxxxxxxxxxx |xxxxxxxxxxxxx |           70 |           70 |           70 |xxxxxxxxxxxxx |xxxxxxxxxxxxx |xxxxxxxxxxxxx |xxxxxxxxxxxxx |           70 |           70 |           70 |xxxxxxxxxxxxx |xxxxxxxxxxxxx |xxxxxxxxxxxxx |xxxxxxxxxxxxx |           70 |           70 |           70 |xxxxxxxxxxxxx |xxxxxxxxxxxxx |xxxxxxxxxxxxx |xxxxxxxxxxxxx |           70 |           70 |           70 |xxxxxxxxxxxxx |xxxxxxxxxxxxx |xxxxxxxxxxxxx |xxxxxxxxxxxxx |           70 |           70 |           70 |xxxxxxxxxxxxx |xxxxxxxxxxxxx |xxxxxxxxxxxxx |xxxxxxxxxxxxx |           70 |           70 |           70 |xxxxxxxxxxxxx |xxxxxxxxxxxxx |xxxxxxxxxxxxx |xxxxxxxxxxxxx |           70 |           70 |           70 |xxxxxxxxxxxxx |xxxxxxxxxxxxx |xxxxxxxxxxxxx |xxxxxxxxxxxxx |           72 |           72 |           72 |xxxxxxxxxxxxx |xxxxxxxxxxxxx |xxxxxxxxxxxxx |xxxxxxxxxxxxx |           72 |           72 |           72 |xxxxxxxxxxxxx |xxxxxxxxxxxxx |xxxxxxxxxxxxx |xxxxxxxxxxxxx |           72 |           72 |           72 |
bpred_bimod.used_ras.PP                         61 |           61 |           61 |xxxxxxxxxxxxx |xxxxxxxxxxxxx |xxxxxxxxxxxxx |xxxxxxxxxxxxx |           70 |           70 |           70 |xxxxxxxxxxxxx |xxxxxxxxxxxxx |xxxxxxxxxxxxx |xxxxxxxxxxxxx |           70 |           70 |           70 |xxxxxxxxxxxxx |xxxxxxxxxxxxx |xxxxxxxxxxxxx |xxxxxxxxxxxxx |           70 |           70 |           70 |xxxxxxxxxxxxx |xxxxxxxxxxxxx |xxxxxxxxxxxxx |xxxxxxxxxxxxx |           70 |           70 |           70 |xxxxxxxxxxxxx |xxxxxxxxxxxxx |xxxxxxxxxxxxx |xxxxxxxxxxxxx |           70 |           70 |           70 |xxxxxxxxxxxxx |xxxxxxxxxxxxx |xxxxxxxxxxxxx |xxxxxxxxxxxxx |           70 |           70 |           70 |xxxxxxxxxxxxx |xxxxxxxxxxxxx |xxxxxxxxxxxxx |xxxxxxxxxxxxx |           70 |           70 |           70 |xxxxxxxxxxxxx |xxxxxxxxxxxxx |xxxxxxxxxxxxx |xxxxxxxxxxxxx |           72 |           72 |           72 |xxxxxxxxxxxxx |xxxxxxxxxxxxx |xxxxxxxxxxxxx |xxxxxxxxxxxxx |           72 |           72 |           72 |xxxxxxxxxxxxx |xxxxxxxxxxxxx |xxxxxxxxxxxxx |xxxxxxxxxxxxx |           72 |           72 |           72 |
bpred_bimod.ras_hits.PP                         61 |           61 |           61 |xxxxxxxxxxxxx |xxxxxxxxxxxxx |xxxxxxxxxxxxx |xxxxxxxxxxxxx |           69 |           69 |           69 |xxxxxxxxxxxxx |xxxxxxxxxxxxx |xxxxxxxxxxxxx |xxxxxxxxxxxxx |           69 |           69 |           69 |xxxxxxxxxxxxx |xxxxxxxxxxxxx |xxxxxxxxxxxxx |xxxxxxxxxxxxx |           69 |           69 |           69 |xxxxxxxxxxxxx |xxxxxxxxxxxxx |xxxxxxxxxxxxx |xxxxxxxxxxxxx |           69 |           69 |           69 |xxxxxxxxxxxxx |xxxxxxxxxxxxx |xxxxxxxxxxxxx |xxxxxxxxxxxxx |           69 |           69 |           69 |xxxxxxxxxxxxx |xxxxxxxxxxxxx |xxxxxxxxxxxxx |xxxxxxxxxxxxx |           69 |           69 |           69 |xxxxxxxxxxxxx |xxxxxxxxxxxxx |xxxxxxxxxxxxx |xxxxxxxxxxxxx |           69 |           69 |           69 |xxxxxxxxxxxxx |xxxxxxxxxxxxx |xxxxxxxxxxxxx |xxxxxxxxxxxxx |           72 |           72 |           72 |xxxxxxxxxxxxx |xxxxxxxxxxxxx |xxxxxxxxxxxxx |xxxxxxxxxxxxx |           72 |           72 |           72 |xxxxxxxxxxxxx |xxxxxxxxxxxxx |xxxxxxxxxxxxx |xxxxxxxxxxxxx |           72 |           72 |           72 |
bpred_bimod.ras_rate.PP                     1.0000 |       1.0000 |       1.0000 |xxxxxxxxxxxxx |xxxxxxxxxxxxx |xxxxxxxxxxxxx |xxxxxxxxxxxxx |       0.9857 |       0.9857 |       0.9857 |xxxxxxxxxxxxx |xxxxxxxxxxxxx |xxxxxxxxxxxxx |xxxxxxxxxxxxx |       0.9857 |       0.9857 |       0.9857 |xxxxxxxxxxxxx |xxxxxxxxxxxxx |xxxxxxxxxxxxx |xxxxxxxxxxxxx |       0.9857 |       0.9857 |       0.9857 |xxxxxxxxxxxxx |xxxxxxxxxxxxx |xxxxxxxxxxxxx |xxxxxxxxxxxxx |       0.9857 |       0.9857 |       0.9857 |xxxxxxxxxxxxx |xxxxxxxxxxxxx |xxxxxxxxxxxxx |xxxxxxxxxxxxx |       0.9857 |       0.9857 |       0.9857 |xxxxxxxxxxxxx |xxxxxxxxxxxxx |xxxxxxxxxxxxx |xxxxxxxxxxxxx |       0.9857 |       0.9857 |       0.9857 |xxxxxxxxxxxxx |xxxxxxxxxxxxx |xxxxxxxxxxxxx |xxxxxxxxxxxxx |       0.9857 |       0.9857 |       0.9857 |xxxxxxxxxxxxx |xxxxxxxxxxxxx |xxxxxxxxxxxxx |xxxxxxxxxxxxx |       1.0000 |       1.0000 |       1.0000 |xxxxxxxxxxxxx |xxxxxxxxxxxxx |xxxxxxxxxxxxx |xxxxxxxxxxxxx |       1.0000 |       1.0000 |       1.0000 |xxxxxxxxxxxxx |xxxxxxxxxxxxx |xxxxxxxxxxxxx |xxxxxxxxxxxxx |       1.0000 |       1.0000 |       1.0000 |
bpred_2lev.lookups                   xxxxxxxxxxxxx |xxxxxxxxxxxxx |xxxxxxxxxxxxx |        13419 |        13419 |        13419 |        13419 |xxxxxxxxxxxxx |xxxxxxxxxxxxx |xxxxxxxxxxxxx |        25747 |        25747 |        25747 |        25747 |xxxxxxxxxxxxx |xxxxxxxxxxxxx |xxxxxxxxxxxxx |        50323 |        50323 |        50323 |        50323 |xxxxxxxxxxxxx |xxxxxxxxxxxxx |xxxxxxxxxxxxx |        99475 |        99475 |        99475 |        99475 |xxxxxxxxxxxxx |xxxxxxxxxxxxx |xxxxxxxxxxxxx |       197779 |       197779 |       197779 |       197779 |xxxxxxxxxxxxx |xxxxxxxxxxxxx |xxxxxxxxxxxxx |       394387 |       394387 |       394387 |       394387 |xxxxxxxxxxxxx |xxxxxxxxxxxxx |xxxxxxxxxxxxx |       787603 |       787603 |       787603 |       787603 |xxxxxxxxxxxxx |xxxxxxxxxxxxx |xxxxxxxxxxxxx |      1574035 |      1574035 |      1574035 |      1574035 |xxxxxxxxxxxxx |xxxxxxxxxxxxx |xxxxxxxxxxxxx |      3147692 |      3147692 |      3147692 |      3147692 |xxxxxxxxxxxxx |xxxxxxxxxxxxx |xxxxxxxxxxxxx |      6294191 |      6294191 |      6294191 |      6294191 |xxxxxxxxxxxxx |xxxxxxxxxxxxx |xxxxxxxxxxxxx |     12587186 |     12587186 |     12587186 |     12587186 |
[...]
bpred_2lev.retstack_pushes           xxxxxxxxxxxxx |xxxxxxxxxxxxx |xxxxxxxxxxxxx |           63 |           63 |           63 |           63 |xxxxxxxxxxxxx |xxxxxxxxxxxxx |xxxxxxxxxxxxx |           72 |           72 |           72 |           72 |xxxxxxxxxxxxx |xxxxxxxxxxxxx |xxxxxxxxxxxxx |           72 |           72 |           72 |           72 |xxxxxxxxxxxxx |xxxxxxxxxxxxx |xxxxxxxxxxxxx |           72 |           72 |           72 |           72 |xxxxxxxxxxxxx |xxxxxxxxxxxxx |xxxxxxxxxxxxx |           72 |           72 |           72 |           72 |xxxxxxxxxxxxx |xxxxxxxxxxxxx |xxxxxxxxxxxxx |           72 |           72 |           72 |           72 |xxxxxxxxxxxxx |xxxxxxxxxxxxx |xxxxxxxxxxxxx |           72 |           72 |           72 |           72 |xxxxxxxxxxxxx |xxxxxxxxxxxxx |xxxxxxxxxxxxx |           72 |           72 |           72 |           72 |xxxxxxxxxxxxx |xxxxxxxxxxxxx |xxxxxxxxxxxxx |           74 |           74 |           74 |           74 |xxxxxxxxxxxxx |xxxxxxxxxxxxx |xxxxxxxxxxxxx |           74 |           74 |           74 |           74 |xxxxxxxxxxxxx |xxxxxxxxxxxxx |xxxxxxxxxxxxx |           74 |           74 |           74 |           74 |
bpred_2lev.retstack_pops             xxxxxxxxxxxxx |xxxxxxxxxxxxx |xxxxxxxxxxxxx |           61 |           61 |           61 |           61 |xxxxxxxxxxxxx |xxxxxxxxxxxxx |xxxxxxxxxxxxx |           70 |           70 |           70 |           70 |xxxxxxxxxxxxx |xxxxxxxxxxxxx |xxxxxxxxxxxxx |           70 |           70 |           70 |           70 |xxxxxxxxxxxxx |xxxxxxxxxxxxx |xxxxxxxxxxxxx |           70 |           70 |           70 |           70 |xxxxxxxxxxxxx |xxxxxxxxxxxxx |xxxxxxxxxxxxx |           70 |           70 |           70 |           70 |xxxxxxxxxxxxx |xxxxxxxxxxxxx |xxxxxxxxxxxxx |           70 |           70 |           70 |           70 |xxxxxxxxxxxxx |xxxxxxxxxxxxx |xxxxxxxxxxxxx |           70 |           70 |           70 |           70 |xxxxxxxxxxxxx |xxxxxxxxxxxxx |xxxxxxxxxxxxx |           70 |           70 |           70 |           70 |xxxxxxxxxxxxx |xxxxxxxxxxxxx |xxxxxxxxxxxxx |           72 |           72 |           72 |           72 |xxxxxxxxxxxxx |xxxxxxxxxxxxx |xxxxxxxxxxxxx |           72 |           72 |           72 |           72 |xxxxxxxxxxxxx |xxxxxxxxxxxxx |xxxxxxxxxxxxx |           72 |           72 |           72 |           72 |
bpred_2lev.used_ras.PP               xxxxxxxxxxxxx |xxxxxxxxxxxxx |xxxxxxxxxxxxx |           61 |           61 |           61 |           61 |xxxxxxxxxxxxx |xxxxxxxxxxxxx |xxxxxxxxxxxxx |           70 |           70 |           70 |           70 |xxxxxxxxxxxxx |xxxxxxxxxxxxx |xxxxxxxxxxxxx |           70 |           70 |           70 |           70 |xxxxxxxxxxxxx |xxxxxxxxxxxxx |xxxxxxxxxxxxx |           70 |           70 |           70 |           70 |xxxxxxxxxxxxx |xxxxxxxxxxxxx |xxxxxxxxxxxxx |           70 |           70 |           70 |           70 |xxxxxxxxxxxxx |xxxxxxxxxxxxx |xxxxxxxxxxxxx |           70 |           70 |           70 |           70 |xxxxxxxxxxxxx |xxxxxxxxxxxxx |xxxxxxxxxxxxx |           70 |           70 |           70 |           70 |xxxxxxxxxxxxx |xxxxxxxxxxxxx |xxxxxxxxxxxxx |           70 |           70 |           70 |           70 |xxxxxxxxxxxxx |xxxxxxxxxxxxx |xxxxxxxxxxxxx |           72 |           72 |           72 |           72 |xxxxxxxxxxxxx |xxxxxxxxxxxxx |xxxxxxxxxxxxx |           72 |           72 |           72 |           72 |xxxxxxxxxxxxx |xxxxxxxxxxxxx |xxxxxxxxxxxxx |           72 |           72 |           72 |           72 |
bpred_2lev.ras_hits.PP               xxxxxxxxxxxxx |xxxxxxxxxxxxx |xxxxxxxxxxxxx |           61 |           61 |           61 |           61 |xxxxxxxxxxxxx |xxxxxxxxxxxxx |xxxxxxxxxxxxx |           69 |           69 |           69 |           69 |xxxxxxxxxxxxx |xxxxxxxxxxxxx |xxxxxxxxxxxxx |           69 |           69 |           69 |           69 |xxxxxxxxxxxxx |xxxxxxxxxxxxx |xxxxxxxxxxxxx |           69 |           69 |           69 |           69 |xxxxxxxxxxxxx |xxxxxxxxxxxxx |xxxxxxxxxxxxx |           69 |           69 |           69 |           69 |xxxxxxxxxxxxx |xxxxxxxxxxxxx |xxxxxxxxxxxxx |           69 |           69 |           69 |           69 |xxxxxxxxxxxxx |xxxxxxxxxxxxx |xxxxxxxxxxxxx |           69 |           69 |           69 |           69 |xxxxxxxxxxxxx |xxxxxxxxxxxxx |xxxxxxxxxxxxx |           69 |           69 |           69 |           69 |xxxxxxxxxxxxx |xxxxxxxxxxxxx |xxxxxxxxxxxxx |           72 |           72 |           72 |           72 |xxxxxxxxxxxxx |xxxxxxxxxxxxx |xxxxxxxxxxxxx |           72 |           72 |           72 |           72 |xxxxxxxxxxxxx |xxxxxxxxxxxxx |xxxxxxxxxxxxx |           72 |           72 |           72 |           72 |
bpred_2lev.ras_rate.PP               xxxxxxxxxxxxx |xxxxxxxxxxxxx |xxxxxxxxxxxxx |       1.0000 |       1.0000 |       1.0000 |       1.0000 |xxxxxxxxxxxxx |xxxxxxxxxxxxx |xxxxxxxxxxxxx |       0.9857 |       0.9857 |       0.9857 |       0.9857 |xxxxxxxxxxxxx |xxxxxxxxxxxxx |xxxxxxxxxxxxx |       0.9857 |       0.9857 |       0.9857 |       0.9857 |xxxxxxxxxxxxx |xxxxxxxxxxxxx |xxxxxxxxxxxxx |       0.9857 |       0.9857 |       0.9857 |       0.9857 |xxxxxxxxxxxxx |xxxxxxxxxxxxx |xxxxxxxxxxxxx |       0.9857 |       0.9857 |       0.9857 |       0.9857 |xxxxxxxxxxxxx |xxxxxxxxxxxxx |xxxxxxxxxxxxx |       0.9857 |       0.9857 |       0.9857 |       0.9857 |xxxxxxxxxxxxx |xxxxxxxxxxxxx |xxxxxxxxxxxxx |       0.9857 |       0.9857 |       0.9857 |       0.9857 |xxxxxxxxxxxxx |xxxxxxxxxxxxx |xxxxxxxxxxxxx |       0.9857 |       0.9857 |       0.9857 |       0.9857 |xxxxxxxxxxxxx |xxxxxxxxxxxxx |xxxxxxxxxxxxx |       1.0000 |       1.0000 |       1.0000 |       1.0000 |xxxxxxxxxxxxx |xxxxxxxxxxxxx |xxxxxxxxxxxxx |       1.0000 |       1.0000 |       1.0000 |       1.0000 |xxxxxxxxxxxxx |xxxxxxxxxxxxx |xxxxxxxxxxxxx |       1.0000 |       1.0000 |       1.0000 |       1.0000 |

Command list: 
	sslittle-na-sstrix-gcc -Wall -O3 -funroll-loops -finline-functions  -DRANDOM_SIZE=4096 -DOFFSET=7 -DSORT=base_radixsort sorts/base_radixsort1296620591.c simpleMain.c -o base_radixsort150168557
	sim-cache -cache:dl1 dl1:256:32:1:l -cache:dl2 dl2:131072:32:1:l -cache:il1 il1:256:32:1:l -cache:il2 dl2 base_radixsort150168557
	sim-cache -cache:dl1 dl1:256:32:1:l -cache:dl2 dl2:65536:32:1:l -cache:il1 il1:256:32:1:l -cache:il2 dl2 base_radixsort150168557
	sim-cache -cache:dl1 dl1:1:32:256:l -cache:dl2 dl2:1:32:131072:l -cache:il1 il1:1:32:256:l -cache:il2 dl2 base_radixsort150168557
	sim-cache -cache:dl1 dl1:1:32:256:l -cache:dl2 dl2:1:32:65536:l -cache:il1 il1:1:32:256:l -cache:il2 dl2 base_radixsort150168557
	sim-bpred -bpred bimod -bpred:bimod 512 base_radixsort150168557
	sim-bpred -bpred bimod -bpred:bimod 1024 base_radixsort150168557
	sim-bpred -bpred bimod -bpred:bimod 2048 base_radixsort150168557
	sim-bpred -bpred 2lev -bpred:2lev 1 512 10 1 base_radixsort150168557
	sim-bpred -bpred 2lev -bpred:2lev 1 1024 10 1 base_radixsort150168557
	sim-bpred -bpred 2lev -bpred:2lev 1 2048 10 1 base_radixsort150168557
	sim-bpred -bpred 2lev -bpred:2lev 1 4096 10 1 base_radixsort150168557
	sslittle-na-sstrix-gcc -Wall -O3 -funroll-loops -finline-functions  -DRANDOM_SIZE=8192 -DOFFSET=7 -DSORT=base_radixsort sorts/base_radixsort1296620591.c simpleMain.c -o base_radixsort150168557
	sim-cache -cache:dl1 dl1:256:32:1:l -cache:dl2 dl2:131072:32:1:l -cache:il1 il1:256:32:1:l -cache:il2 dl2 base_radixsort150168557
	sim-cache -cache:dl1 dl1:256:32:1:l -cache:dl2 dl2:65536:32:1:l -cache:il1 il1:256:32:1:l -cache:il2 dl2 base_radixsort150168557
	sim-cache -cache:dl1 dl1:1:32:256:l -cache:dl2 dl2:1:32:131072:l -cache:il1 il1:1:32:256:l -cache:il2 dl2 base_radixsort150168557
	sim-cache -cache:dl1 dl1:1:32:256:l -cache:dl2 dl2:1:32:65536:l -cache:il1 il1:1:32:256:l -cache:il2 dl2 base_radixsort150168557
	sim-bpred -bpred bimod -bpred:bimod 512 base_radixsort150168557
	sim-bpred -bpred bimod -bpred:bimod 1024 base_radixsort150168557
	sim-bpred -bpred bimod -bpred:bimod 2048 base_radixsort150168557
	sim-bpred -bpred 2lev -bpred:2lev 1 512 10 1 base_radixsort150168557
	sim-bpred -bpred 2lev -bpred:2lev 1 1024 10 1 base_radixsort150168557
	sim-bpred -bpred 2lev -bpred:2lev 1 2048 10 1 base_radixsort150168557
	sim-bpred -bpred 2lev -bpred:2lev 1 4096 10 1 base_radixsort150168557
	sslittle-na-sstrix-gcc -Wall -O3 -funroll-loops -finline-functions  -DRANDOM_SIZE=16384 -DOFFSET=7 -DSORT=base_radixsort sorts/base_radixsort1296620591.c simpleMain.c -o base_radixsort150168557
	sim-cache -cache:dl1 dl1:256:32:1:l -cache:dl2 dl2:131072:32:1:l -cache:il1 il1:256:32:1:l -cache:il2 dl2 base_radixsort150168557
	sim-cache -cache:dl1 dl1:256:32:1:l -cache:dl2 dl2:65536:32:1:l -cache:il1 il1:256:32:1:l -cache:il2 dl2 base_radixsort150168557
	sim-cache -cache:dl1 dl1:1:32:256:l -cache:dl2 dl2:1:32:131072:l -cache:il1 il1:1:32:256:l -cache:il2 dl2 base_radixsort150168557
	sim-cache -cache:dl1 dl1:1:32:256:l -cache:dl2 dl2:1:32:65536:l -cache:il1 il1:1:32:256:l -cache:il2 dl2 base_radixsort150168557
	sim-bpred -bpred bimod -bpred:bimod 512 base_radixsort150168557
	sim-bpred -bpred bimod -bpred:bimod 1024 base_radixsort150168557
	sim-bpred -bpred bimod -bpred:bimod 2048 base_radixsort150168557
	sim-bpred -bpred 2lev -bpred:2lev 1 512 10 1 base_radixsort150168557
	sim-bpred -bpred 2lev -bpred:2lev 1 1024 10 1 base_radixsort150168557
	sim-bpred -bpred 2lev -bpred:2lev 1 2048 10 1 base_radixsort150168557
	sim-bpred -bpred 2lev -bpred:2lev 1 4096 10 1 base_radixsort150168557
	sslittle-na-sstrix-gcc -Wall -O3 -funroll-loops -finline-functions  -DRANDOM_SIZE=32768 -DOFFSET=7 -DSORT=base_radixsort sorts/base_radixsort1296620591.c simpleMain.c -o base_radixsort150168557
	sim-cache -cache:dl1 dl1:256:32:1:l -cache:dl2 dl2:131072:32:1:l -cache:il1 il1:256:32:1:l -cache:il2 dl2 base_radixsort150168557
	sim-cache -cache:dl1 dl1:256:32:1:l -cache:dl2 dl2:65536:32:1:l -cache:il1 il1:256:32:1:l -cache:il2 dl2 base_radixsort150168557
	sim-cache -cache:dl1 dl1:1:32:256:l -cache:dl2 dl2:1:32:131072:l -cache:il1 il1:1:32:256:l -cache:il2 dl2 base_radixsort150168557
	sim-cache -cache:dl1 dl1:1:32:256:l -cache:dl2 dl2:1:32:65536:l -cache:il1 il1:1:32:256:l -cache:il2 dl2 base_radixsort150168557
	sim-bpred -bpred bimod -bpred:bimod 512 base_radixsort150168557
	sim-bpred -bpred bimod -bpred:bimod 1024 base_radixsort150168557
	sim-bpred -bpred bimod -bpred:bimod 2048 base_radixsort150168557
	sim-bpred -bpred 2lev -bpred:2lev 1 512 10 1 base_radixsort150168557
	sim-bpred -bpred 2lev -bpred:2lev 1 1024 10 1 base_radixsort150168557
	sim-bpred -bpred 2lev -bpred:2lev 1 2048 10 1 base_radixsort150168557
	sim-bpred -bpred 2lev -bpred:2lev 1 4096 10 1 base_radixsort150168557
	sslittle-na-sstrix-gcc -Wall -O3 -funroll-loops -finline-functions  -DRANDOM_SIZE=65536 -DOFFSET=7 -DSORT=base_radixsort sorts/base_radixsort1296620591.c simpleMain.c -o base_radixsort150168557
	sim-cache -cache:dl1 dl1:256:32:1:l -cache:dl2 dl2:131072:32:1:l -cache:il1 il1:256:32:1:l -cache:il2 dl2 base_radixsort150168557
	sim-cache -cache:dl1 dl1:256:32:1:l -cache:dl2 dl2:65536:32:1:l -cache:il1 il1:256:32:1:l -cache:il2 dl2 base_radixsort150168557
	sim-cache -cache:dl1 dl1:1:32:256:l -cache:dl2 dl2:1:32:131072:l -cache:il1 il1:1:32:256:l -cache:il2 dl2 base_radixsort150168557
	sim-cache -cache:dl1 dl1:1:32:256:l -cache:dl2 dl2:1:32:65536:l -cache:il1 il1:1:32:256:l -cache:il2 dl2 base_radixsort150168557
	sim-bpred -bpred bimod -bpred:bimod 512 base_radixsort150168557
	sim-bpred -bpred bimod -bpred:bimod 1024 base_radixsort150168557
	sim-bpred -bpred bimod -bpred:bimod 2048 base_radixsort150168557
	sim-bpred -bpred 2lev -bpred:2lev 1 512 10 1 base_radixsort150168557
	sim-bpred -bpred 2lev -bpred:2lev 1 1024 10 1 base_radixsort150168557
	sim-bpred -bpred 2lev -bpred:2lev 1 2048 10 1 base_radixsort150168557
	sim-bpred -bpred 2lev -bpred:2lev 1 4096 10 1 base_radixsort150168557
	sslittle-na-sstrix-gcc -Wall -O3 -funroll-loops -finline-functions  -DRANDOM_SIZE=131072 -DOFFSET=7 -DSORT=base_radixsort sorts/base_radixsort1296620591.c simpleMain.c -o base_radixsort150168557
	sim-cache -cache:dl1 dl1:256:32:1:l -cache:dl2 dl2:131072:32:1:l -cache:il1 il1:256:32:1:l -cache:il2 dl2 base_radixsort150168557
	sim-cache -cache:dl1 dl1:256:32:1:l -cache:dl2 dl2:65536:32:1:l -cache:il1 il1:256:32:1:l -cache:il2 dl2 base_radixsort150168557
	sim-cache -cache:dl1 dl1:1:32:256:l -cache:dl2 dl2:1:32:131072:l -cache:il1 il1:1:32:256:l -cache:il2 dl2 base_radixsort150168557
	sim-cache -cache:dl1 dl1:1:32:256:l -cache:dl2 dl2:1:32:65536:l -cache:il1 il1:1:32:256:l -cache:il2 dl2 base_radixsort150168557
	sim-bpred -bpred bimod -bpred:bimod 512 base_radixsort150168557
	sim-bpred -bpred bimod -bpred:bimod 1024 base_radixsort150168557
	sim-bpred -bpred bimod -bpred:bimod 2048 base_radixsort150168557
	sim-bpred -bpred 2lev -bpred:2lev 1 512 10 1 base_radixsort150168557
	sim-bpred -bpred 2lev -bpred:2lev 1 1024 10 1 base_radixsort150168557
	sim-bpred -bpred 2lev -bpred:2lev 1 2048 10 1 base_radixsort150168557
	sim-bpred -bpred 2lev -bpred:2lev 1 4096 10 1 base_radixsort150168557
	sslittle-na-sstrix-gcc -Wall -O3 -funroll-loops -finline-functions  -DRANDOM_SIZE=262144 -DOFFSET=7 -DSORT=base_radixsort sorts/base_radixsort1296620591.c simpleMain.c -o base_radixsort150168557
	sim-cache -cache:dl1 dl1:256:32:1:l -cache:dl2 dl2:131072:32:1:l -cache:il1 il1:256:32:1:l -cache:il2 dl2 base_radixsort150168557
	sim-cache -cache:dl1 dl1:256:32:1:l -cache:dl2 dl2:65536:32:1:l -cache:il1 il1:256:32:1:l -cache:il2 dl2 base_radixsort150168557
	sim-cache -cache:dl1 dl1:1:32:256:l -cache:dl2 dl2:1:32:131072:l -cache:il1 il1:1:32:256:l -cache:il2 dl2 base_radixsort150168557
	sim-cache -cache:dl1 dl1:1:32:256:l -cache:dl2 dl2:1:32:65536:l -cache:il1 il1:1:32:256:l -cache:il2 dl2 base_radixsort150168557
	sim-bpred -bpred bimod -bpred:bimod 512 base_radixsort150168557
	sim-bpred -bpred bimod -bpred:bimod 1024 base_radixsort150168557
	sim-bpred -bpred bimod -bpred:bimod 2048 base_radixsort150168557
	sim-bpred -bpred 2lev -bpred:2lev 1 512 10 1 base_radixsort150168557
	sim-bpred -bpred 2lev -bpred:2lev 1 1024 10 1 base_radixsort150168557
	sim-bpred -bpred 2lev -bpred:2lev 1 2048 10 1 base_radixsort150168557
	sim-bpred -bpred 2lev -bpred:2lev 1 4096 10 1 base_radixsort150168557
	sslittle-na-sstrix-gcc -Wall -O3 -funroll-loops -finline-functions  -DRANDOM_SIZE=524288 -DOFFSET=7 -DSORT=base_radixsort sorts/base_radixsort1296620591.c simpleMain.c -o base_radixsort150168557
	sim-cache -cache:dl1 dl1:256:32:1:l -cache:dl2 dl2:131072:32:1:l -cache:il1 il1:256:32:1:l -cache:il2 dl2 base_radixsort150168557
	sim-cache -cache:dl1 dl1:256:32:1:l -cache:dl2 dl2:65536:32:1:l -cache:il1 il1:256:32:1:l -cache:il2 dl2 base_radixsort150168557
	sim-cache -cache:dl1 dl1:1:32:256:l -cache:dl2 dl2:1:32:131072:l -cache:il1 il1:1:32:256:l -cache:il2 dl2 base_radixsort150168557
	sim-cache -cache:dl1 dl1:1:32:256:l -cache:dl2 dl2:1:32:65536:l -cache:il1 il1:1:32:256:l -cache:il2 dl2 base_radixsort150168557
	sim-bpred -bpred bimod -bpred:bimod 512 base_radixsort150168557
	sim-bpred -bpred bimod -bpred:bimod 1024 base_radixsort150168557
	sim-bpred -bpred bimod -bpred:bimod 2048 base_radixsort150168557
	sim-bpred -bpred 2lev -bpred:2lev 1 512 10 1 base_radixsort150168557
	sim-bpred -bpred 2lev -bpred:2lev 1 1024 10 1 base_radixsort150168557
	sim-bpred -bpred 2lev -bpred:2lev 1 2048 10 1 base_radixsort150168557
	sim-bpred -bpred 2lev -bpred:2lev 1 4096 10 1 base_radixsort150168557
	sslittle-na-sstrix-gcc -Wall -O3 -funroll-loops -finline-functions  -DRANDOM_SIZE=1048576 -DOFFSET=7 -DSORT=base_radixsort sorts/base_radixsort1296620591.c simpleMain.c -o base_radixsort150168557
	sim-cache -cache:dl1 dl1:256:32:1:l -cache:dl2 dl2:131072:32:1:l -cache:il1 il1:256:32:1:l -cache:il2 dl2 base_radixsort150168557
	sim-cache -cache:dl1 dl1:256:32:1:l -cache:dl2 dl2:65536:32:1:l -cache:il1 il1:256:32:1:l -cache:il2 dl2 base_radixsort150168557
	sim-cache -cache:dl1 dl1:1:32:256:l -cache:dl2 dl2:1:32:131072:l -cache:il1 il1:1:32:256:l -cache:il2 dl2 base_radixsort150168557
	sim-cache -cache:dl1 dl1:1:32:256:l -cache:dl2 dl2:1:32:65536:l -cache:il1 il1:1:32:256:l -cache:il2 dl2 base_radixsort150168557
	sim-bpred -bpred bimod -bpred:bimod 512 base_radixsort150168557
	sim-bpred -bpred bimod -bpred:bimod 1024 base_radixsort150168557
	sim-bpred -bpred bimod -bpred:bimod 2048 base_radixsort150168557
	sim-bpred -bpred 2lev -bpred:2lev 1 512 10 1 base_radixsort150168557
	sim-bpred -bpred 2lev -bpred:2lev 1 1024 10 1 base_radixsort150168557
	sim-bpred -bpred 2lev -bpred:2lev 1 2048 10 1 base_radixsort150168557
	sim-bpred -bpred 2lev -bpred:2lev 1 4096 10 1 base_radixsort150168557
	sslittle-na-sstrix-gcc -Wall -O3 -funroll-loops -finline-functions  -DRANDOM_SIZE=2097152 -DOFFSET=7 -DSORT=base_radixsort sorts/base_radixsort1296620591.c simpleMain.c -o base_radixsort150168557
	sim-cache -cache:dl1 dl1:256:32:1:l -cache:dl2 dl2:131072:32:1:l -cache:il1 il1:256:32:1:l -cache:il2 dl2 base_radixsort150168557
	sim-cache -cache:dl1 dl1:256:32:1:l -cache:dl2 dl2:65536:32:1:l -cache:il1 il1:256:32:1:l -cache:il2 dl2 base_radixsort150168557
	sim-cache -cache:dl1 dl1:1:32:256:l -cache:dl2 dl2:1:32:131072:l -cache:il1 il1:1:32:256:l -cache:il2 dl2 base_radixsort150168557
	sim-cache -cache:dl1 dl1:1:32:256:l -cache:dl2 dl2:1:32:65536:l -cache:il1 il1:1:32:256:l -cache:il2 dl2 base_radixsort150168557
	sim-bpred -bpred bimod -bpred:bimod 512 base_radixsort150168557
	sim-bpred -bpred bimod -bpred:bimod 1024 base_radixsort150168557
	sim-bpred -bpred bimod -bpred:bimod 2048 base_radixsort150168557
	sim-bpred -bpred 2lev -bpred:2lev 1 512 10 1 base_radixsort150168557
	sim-bpred -bpred 2lev -bpred:2lev 1 1024 10 1 base_radixsort150168557
	sim-bpred -bpred 2lev -bpred:2lev 1 2048 10 1 base_radixsort150168557
	sim-bpred -bpred 2lev -bpred:2lev 1 4096 10 1 base_radixsort150168557
	sslittle-na-sstrix-gcc -Wall -O3 -funroll-loops -finline-functions  -DRANDOM_SIZE=4194304 -DOFFSET=7 -DSORT=base_radixsort sorts/base_radixsort1296620591.c simpleMain.c -o base_radixsort150168557
	sim-cache -cache:dl1 dl1:256:32:1:l -cache:dl2 dl2:131072:32:1:l -cache:il1 il1:256:32:1:l -cache:il2 dl2 base_radixsort150168557
	sim-cache -cache:dl1 dl1:256:32:1:l -cache:dl2 dl2:65536:32:1:l -cache:il1 il1:256:32:1:l -cache:il2 dl2 base_radixsort150168557
	sim-cache -cache:dl1 dl1:1:32:256:l -cache:dl2 dl2:1:32:131072:l -cache:il1 il1:1:32:256:l -cache:il2 dl2 base_radixsort150168557
	sim-cache -cache:dl1 dl1:1:32:256:l -cache:dl2 dl2:1:32:65536:l -cache:il1 il1:1:32:256:l -cache:il2 dl2 base_radixsort150168557
	sim-bpred -bpred bimod -bpred:bimod 512 base_radixsort150168557
	sim-bpred -bpred bimod -bpred:bimod 1024 base_radixsort150168557
	sim-bpred -bpred bimod -bpred:bimod 2048 base_radixsort150168557
	sim-bpred -bpred 2lev -bpred:2lev 1 512 10 1 base_radixsort150168557
	sim-bpred -bpred 2lev -bpred:2lev 1 1024 10 1 base_radixsort150168557
	sim-bpred -bpred 2lev -bpred:2lev 1 2048 10 1 base_radixsort150168557
	sim-bpred -bpred 2lev -bpred:2lev 1 4096 10 1 base_radixsort150168557
