Tue Jun 21 18:06:14 2005
Run as: "./do_simple -c random.org1 -o 1 base_quicksort5"
-------------------------------------------------------------------------------------------------
sim-cache                                     4096 |         4096 |         4096 |         4096 |         8192 |         8192 |         8192 |         8192 |        16384 |        16384 |        16384 |        16384 |        32768 |        32768 |        32768 |        32768 |        65536 |        65536 |        65536 |        65536 |       131072 |       131072 |       131072 |       131072 |       262144 |       262144 |       262144 |       262144 |       524288 |       524288 |       524288 |       524288 |      1048576 |      1048576 |      1048576 |      1048576 |      2097152 |      2097152 |      2097152 |      2097152 |      4194304 |      4194304 |      4194304 |      4194304 |
-cache:dl1 dl1:256:32:1:l -cache:dl2 dl2:131072:32:1:l -cache:il1 il1:256:32:1:l -cache:il2 dl2
-cache:dl1 dl1:256:32:1:l -cache:dl2 dl2:65536:32:1:l -cache:il1 il1:256:32:1:l -cache:il2 dl2
-cache:dl1 dl1:1:32:256:l -cache:dl2 dl2:1:32:131072:l -cache:il1 il1:1:32:256:l -cache:il2 dl2
-cache:dl1 dl1:1:32:256:l -cache:dl2 dl2:1:32:65536:l -cache:il1 il1:1:32:256:l -cache:il2 dl2
-------------------------------------------------------------------------------------------------
sim_num_insn                                458129 |       458129 |       458129 |       458129 |      1004299 |      1004299 |      1004299 |      1004299 |      2116268 |      2116268 |      2116268 |      2116268 |      4560200 |      4560200 |      4560200 |      4560200 |      9683575 |      9683575 |      9683575 |      9683575 |     20698842 |     20698842 |     20698842 |     20698842 |     43010215 |     43010215 |     43010215 |     43010215 |     91565092 |     91565092 |     91565092 |     91565092 |    195076512 |    195076512 |    195076512 |    195076512 |    407767780 |    407767780 |    407767780 |    407767780 |    843133326 |    843133326 |    843133326 |    843133326 |
sim_num_refs                                123389 |       123389 |       123389 |       123389 |       263326 |       263326 |       263326 |       263326 |       551548 |       551548 |       551548 |       551548 |      1173455 |      1173455 |      1173455 |      1173455 |      2479326 |      2479326 |      2479326 |      2479326 |      5256381 |      5256381 |      5256381 |      5256381 |     10948972 |     10948972 |     10948972 |     10948972 |     23117659 |     23117659 |     23117659 |     23117659 |     48793211 |     48793211 |     48793211 |     48793211 |    101748749 |    101748749 |    101748749 |    101748749 |    211028974 |    211028974 |    211028974 |    211028974 |
sim_elapsed_time                                 1 |            1 |            6 |            4 |            1 |            1 |           10 |            4 |            1 |            1 |           14 |            8 |            1 |            1 |           25 |           13 |            3 |            2 |           45 |           24 |            5 |            5 |           85 |           42 |           11 |           11 |          154 |           73 |           23 |           23 |          267 |          104 |           49 |           49 |          372 |          132 |          103 |          103 |          429 |          191 |          212 |          213 |          550 |          311 |
sim_inst_rate                          458129.0000 |  458129.0000 |   76354.8333 |  114532.2500 | 1004299.0000 | 1004299.0000 |  100429.9000 |  251074.7500 | 2116268.0000 | 2116268.0000 |  151162.0000 |  264533.5000 | 4560200.0000 | 4560200.0000 |  182408.0000 |  350784.6154 | 3227858.3333 | 4841787.5000 |  215190.5556 |  403482.2917 | 4139768.4000 | 4139768.4000 |  243515.7882 |  492829.5714 | 3910019.5455 | 3910019.5455 |  279287.1104 |  589181.0274 | 3981090.9565 | 3981090.9565 |  342940.4195 |  880433.5769 | 3981153.3061 | 3981153.3061 |  524399.2258 | 1477852.3636 | 3958910.4854 | 3958910.4854 |  950507.6457 | 2134909.8429 | 3977043.9906 | 3958372.4225 | 1532969.6836 | 2711039.6334 |
il1.accesses                                458129 |       458129 |       458129 |       458129 |      1004299 |      1004299 |      1004299 |      1004299 |      2116268 |      2116268 |      2116268 |      2116268 |      4560200 |      4560200 |      4560200 |      4560200 |      9683575 |      9683575 |      9683575 |      9683575 |     20698842 |     20698842 |     20698842 |     20698842 |     43010215 |     43010215 |     43010215 |     43010215 |     91565092 |     91565092 |     91565092 |     91565092 |    195076512 |    195076512 |    195076512 |    195076512 |    407767780 |    407767780 |    407767780 |    407767780 |    843133326 |    843133326 |    843133326 |    843133326 |
il1.hits                                    457664 |       457664 |       457700 |       457700 |      1003837 |      1003837 |      1003870 |      1003870 |      2115816 |      2115816 |      2115842 |      2115842 |      4559735 |      4559735 |      4559769 |      4559769 |      9683110 |      9683110 |      9683144 |      9683144 |     20698377 |     20698377 |     20698411 |     20698411 |     43009750 |     43009750 |     43009784 |     43009784 |     91564627 |     91564627 |     91564661 |     91564661 |    195076047 |    195076047 |    195076081 |    195076081 |    407767315 |    407767315 |    407767349 |    407767349 |    843132861 |    843132861 |    843132895 |    843132895 |
il1.misses                                     465 |          465 |          429 |          429 |          462 |          462 |          429 |          429 |          452 |          452 |          426 |          426 |          465 |          465 |          431 |          431 |          465 |          465 |          431 |          431 |          465 |          465 |          431 |          431 |          465 |          465 |          431 |          431 |          465 |          465 |          431 |          431 |          465 |          465 |          431 |          431 |          465 |          465 |          431 |          431 |          465 |          465 |          431 |          431 |
il1.replacements                               225 |          225 |          173 |          173 |          223 |          223 |          173 |          173 |          214 |          214 |          170 |          170 |          227 |          227 |          175 |          175 |          227 |          227 |          175 |          175 |          227 |          227 |          175 |          175 |          227 |          227 |          175 |          175 |          227 |          227 |          175 |          175 |          227 |          227 |          175 |          175 |          227 |          227 |          175 |          175 |          227 |          227 |          175 |          175 |
il1.writebacks                                   0 |            0 |            0 |            0 |            0 |            0 |            0 |            0 |            0 |            0 |            0 |            0 |            0 |            0 |            0 |            0 |            0 |            0 |            0 |            0 |            0 |            0 |            0 |            0 |            0 |            0 |            0 |            0 |            0 |            0 |            0 |            0 |            0 |            0 |            0 |            0 |            0 |            0 |            0 |            0 |            0 |            0 |            0 |            0 |
il1.invalidations                                0 |            0 |            0 |            0 |            0 |            0 |            0 |            0 |            0 |            0 |            0 |            0 |            0 |            0 |            0 |            0 |            0 |            0 |            0 |            0 |            0 |            0 |            0 |            0 |            0 |            0 |            0 |            0 |            0 |            0 |            0 |            0 |            0 |            0 |            0 |            0 |            0 |            0 |            0 |            0 |            0 |            0 |            0 |            0 |
il1.miss_rate                               0.0010 |       0.0010 |       0.0009 |       0.0009 |       0.0005 |       0.0005 |       0.0004 |       0.0004 |       0.0002 |       0.0002 |       0.0002 |       0.0002 |       0.0001 |       0.0001 |       0.0001 |       0.0001 |       0.0000 |       0.0000 |       0.0000 |       0.0000 |       0.0000 |       0.0000 |       0.0000 |       0.0000 |       0.0000 |       0.0000 |       0.0000 |       0.0000 |       0.0000 |       0.0000 |       0.0000 |       0.0000 |       0.0000 |       0.0000 |       0.0000 |       0.0000 |       0.0000 |       0.0000 |       0.0000 |       0.0000 |       0.0000 |       0.0000 |       0.0000 |       0.0000 |
il1.repl_rate                               0.0005 |       0.0005 |       0.0004 |       0.0004 |       0.0002 |       0.0002 |       0.0002 |       0.0002 |       0.0001 |       0.0001 |       0.0001 |       0.0001 |       0.0000 |       0.0000 |       0.0000 |       0.0000 |       0.0000 |       0.0000 |       0.0000 |       0.0000 |       0.0000 |       0.0000 |       0.0000 |       0.0000 |       0.0000 |       0.0000 |       0.0000 |       0.0000 |       0.0000 |       0.0000 |       0.0000 |       0.0000 |       0.0000 |       0.0000 |       0.0000 |       0.0000 |       0.0000 |       0.0000 |       0.0000 |       0.0000 |       0.0000 |       0.0000 |       0.0000 |       0.0000 |
il1.wb_rate                                 0.0000 |       0.0000 |       0.0000 |       0.0000 |       0.0000 |       0.0000 |       0.0000 |       0.0000 |       0.0000 |       0.0000 |       0.0000 |       0.0000 |       0.0000 |       0.0000 |       0.0000 |       0.0000 |       0.0000 |       0.0000 |       0.0000 |       0.0000 |       0.0000 |       0.0000 |       0.0000 |       0.0000 |       0.0000 |       0.0000 |       0.0000 |       0.0000 |       0.0000 |       0.0000 |       0.0000 |       0.0000 |       0.0000 |       0.0000 |       0.0000 |       0.0000 |       0.0000 |       0.0000 |       0.0000 |       0.0000 |       0.0000 |       0.0000 |       0.0000 |       0.0000 |
il1.inv_rate                                0.0000 |       0.0000 |       0.0000 |       0.0000 |       0.0000 |       0.0000 |       0.0000 |       0.0000 |       0.0000 |       0.0000 |       0.0000 |       0.0000 |       0.0000 |       0.0000 |       0.0000 |       0.0000 |       0.0000 |       0.0000 |       0.0000 |       0.0000 |       0.0000 |       0.0000 |       0.0000 |       0.0000 |       0.0000 |       0.0000 |       0.0000 |       0.0000 |       0.0000 |       0.0000 |       0.0000 |       0.0000 |       0.0000 |       0.0000 |       0.0000 |       0.0000 |       0.0000 |       0.0000 |       0.0000 |       0.0000 |       0.0000 |       0.0000 |       0.0000 |       0.0000 |
dl1.accesses                                139855 |       139855 |       139855 |       139855 |       296176 |       296176 |       296176 |       296176 |       617166 |       617166 |       617166 |       617166 |      1304609 |      1304609 |      1304609 |      1304609 |      2741552 |      2741552 |      2741552 |      2741552 |      5780751 |      5780751 |      5780751 |      5780751 |     11997630 |     11997630 |     11997630 |     11997630 |     25214893 |     25214893 |     25214893 |     25214893 |     52987597 |     52987597 |     52987597 |     52987597 |    110137439 |    110137439 |    110137439 |    110137439 |    227806272 |    227806272 |    227806272 |    227806272 |
dl1.hits                                    137313 |       137313 |       137242 |       137242 |       290400 |       290400 |       290352 |       290352 |       603553 |       603553 |       603580 |       603580 |      1272795 |      1272795 |      1272932 |      1272932 |      2670517 |      2670517 |      2670371 |      2670371 |      5613769 |      5613769 |      5614834 |      5614834 |     11644858 |     11644858 |     11646645 |     11646645 |     24413158 |     24413158 |     24418731 |     24418731 |     51175595 |     51175595 |     51191681 |     51191681 |    106245478 |    106245478 |    106285210 |    106285210 |    219611781 |    219611781 |    219705603 |    219705603 |
dl1.misses                                    2542 |         2542 |         2613 |         2613 |         5776 |         5776 |         5824 |         5824 |        13613 |        13613 |        13586 |        13586 |        31814 |        31814 |        31677 |        31677 |        71035 |        71035 |        71181 |        71181 |       166982 |       166982 |       165917 |       165917 |       352772 |       352772 |       350985 |       350985 |       801735 |       801735 |       796162 |       796162 |      1812002 |      1812002 |      1795916 |      1795916 |      3891961 |      3891961 |      3852229 |      3852229 |      8194491 |      8194491 |      8100669 |      8100669 |
dl1.replacements                              2286 |         2286 |         2357 |         2357 |         5520 |         5520 |         5568 |         5568 |        13357 |        13357 |        13330 |        13330 |        31558 |        31558 |        31421 |        31421 |        70779 |        70779 |        70925 |        70925 |       166726 |       166726 |       165661 |       165661 |       352516 |       352516 |       350729 |       350729 |       801479 |       801479 |       795906 |       795906 |      1811746 |      1811746 |      1795660 |      1795660 |      3891705 |      3891705 |      3851973 |      3851973 |      8194235 |      8194235 |      8100413 |      8100413 |
dl1.writebacks                                2246 |         2246 |         2327 |         2327 |         5391 |         5391 |         5466 |         5466 |        12988 |        12988 |        13050 |        13050 |        30181 |        30181 |        30273 |        30273 |        67774 |        67774 |        68469 |        68469 |       156629 |       156629 |       157182 |       157182 |       339925 |       339925 |       341488 |       341488 |       760545 |       760545 |       762592 |       762592 |      1673145 |      1673145 |      1674980 |      1674980 |      3622534 |      3622534 |      3623124 |      3623124 |      7752495 |      7752495 |      7748931 |      7748931 |
dl1.invalidations                                0 |            0 |            0 |            0 |            0 |            0 |            0 |            0 |            0 |            0 |            0 |            0 |            0 |            0 |            0 |            0 |            0 |            0 |            0 |            0 |            0 |            0 |            0 |            0 |            0 |            0 |            0 |            0 |            0 |            0 |            0 |            0 |            0 |            0 |            0 |            0 |            0 |            0 |            0 |            0 |            0 |            0 |            0 |            0 |
dl1.miss_rate                               0.0182 |       0.0182 |       0.0187 |       0.0187 |       0.0195 |       0.0195 |       0.0197 |       0.0197 |       0.0221 |       0.0221 |       0.0220 |       0.0220 |       0.0244 |       0.0244 |       0.0243 |       0.0243 |       0.0259 |       0.0259 |       0.0260 |       0.0260 |       0.0289 |       0.0289 |       0.0287 |       0.0287 |       0.0294 |       0.0294 |       0.0293 |       0.0293 |       0.0318 |       0.0318 |       0.0316 |       0.0316 |       0.0342 |       0.0342 |       0.0339 |       0.0339 |       0.0353 |       0.0353 |       0.0350 |       0.0350 |       0.0360 |       0.0360 |       0.0356 |       0.0356 |
dl1.repl_rate                               0.0163 |       0.0163 |       0.0169 |       0.0169 |       0.0186 |       0.0186 |       0.0188 |       0.0188 |       0.0216 |       0.0216 |       0.0216 |       0.0216 |       0.0242 |       0.0242 |       0.0241 |       0.0241 |       0.0258 |       0.0258 |       0.0259 |       0.0259 |       0.0288 |       0.0288 |       0.0287 |       0.0287 |       0.0294 |       0.0294 |       0.0292 |       0.0292 |       0.0318 |       0.0318 |       0.0316 |       0.0316 |       0.0342 |       0.0342 |       0.0339 |       0.0339 |       0.0353 |       0.0353 |       0.0350 |       0.0350 |       0.0360 |       0.0360 |       0.0356 |       0.0356 |
dl1.wb_rate                                 0.0161 |       0.0161 |       0.0166 |       0.0166 |       0.0182 |       0.0182 |       0.0185 |       0.0185 |       0.0210 |       0.0210 |       0.0211 |       0.0211 |       0.0231 |       0.0231 |       0.0232 |       0.0232 |       0.0247 |       0.0247 |       0.0250 |       0.0250 |       0.0271 |       0.0271 |       0.0272 |       0.0272 |       0.0283 |       0.0283 |       0.0285 |       0.0285 |       0.0302 |       0.0302 |       0.0302 |       0.0302 |       0.0316 |       0.0316 |       0.0316 |       0.0316 |       0.0329 |       0.0329 |       0.0329 |       0.0329 |       0.0340 |       0.0340 |       0.0340 |       0.0340 |
dl1.inv_rate                                0.0000 |       0.0000 |       0.0000 |       0.0000 |       0.0000 |       0.0000 |       0.0000 |       0.0000 |       0.0000 |       0.0000 |       0.0000 |       0.0000 |       0.0000 |       0.0000 |       0.0000 |       0.0000 |       0.0000 |       0.0000 |       0.0000 |       0.0000 |       0.0000 |       0.0000 |       0.0000 |       0.0000 |       0.0000 |       0.0000 |       0.0000 |       0.0000 |       0.0000 |       0.0000 |       0.0000 |       0.0000 |       0.0000 |       0.0000 |       0.0000 |       0.0000 |       0.0000 |       0.0000 |       0.0000 |       0.0000 |       0.0000 |       0.0000 |       0.0000 |       0.0000 |
dl2.accesses                                  5253 |         5253 |         5369 |         5369 |        11629 |        11629 |        11719 |        11719 |        27053 |        27053 |        27062 |        27062 |        62460 |        62460 |        62381 |        62381 |       139274 |       139274 |       140081 |       140081 |       324076 |       324076 |       323530 |       323530 |       693162 |       693162 |       692904 |       692904 |      1562745 |      1562745 |      1559185 |      1559185 |      3485612 |      3485612 |      3471327 |      3471327 |      7514960 |      7514960 |      7475784 |      7475784 |     15947451 |     15947451 |     15850031 |     15850031 |
dl2.hits                                      3878 |         3878 |         4008 |         4008 |         9741 |         9741 |         9846 |         9846 |        24153 |        24153 |        24174 |        24174 |        57506 |        57506 |        57442 |        57442 |       130223 |       130223 |       131045 |       131045 |       306833 |       306833 |       306302 |       306302 |       659535 |       659535 |       659292 |       659292 |      1496350 |      1495582 |      1492805 |      1445480 |      3352903 |      3019739 |      3219032 |      2939626 |      6690838 |      6214633 |      6563366 |      6081444 |     13394679 |     12792846 |     13163886 |     12607962 |
dl2.misses                                    1375 |         1375 |         1361 |         1361 |         1888 |         1888 |         1873 |         1873 |         2900 |         2900 |         2888 |         2888 |         4954 |         4954 |         4939 |         4939 |         9051 |         9051 |         9036 |         9036 |        17243 |        17243 |        17228 |        17228 |        33627 |        33627 |        33612 |        33612 |        66395 |        67163 |        66380 |       113705 |       132709 |       465873 |       252295 |       531701 |       824122 |      1300327 |       912418 |      1394340 |      2552772 |      3154605 |      2686145 |      3242069 |
dl2.replacements                               152 |          152 |            0 |            0 |          155 |          155 |            0 |            0 |          151 |          151 |            0 |            0 |          157 |          157 |            0 |            0 |          157 |          157 |            0 |            0 |          157 |          157 |            0 |            0 |          157 |          157 |            0 |            0 |          157 |         1627 |            0 |        48169 |         1637 |       400337 |       121223 |       466165 |       693050 |      1234791 |       781346 |      1328804 |      2421700 |      3089069 |      2555073 |      3176533 |
dl2.writebacks                                  91 |           91 |            0 |            0 |           92 |           92 |            0 |            0 |           90 |           90 |            0 |            0 |           93 |           93 |            0 |            0 |           93 |           93 |            0 |            0 |           93 |           93 |            0 |            0 |           93 |           93 |            0 |            0 |           93 |         1312 |            0 |        47873 |         1320 |       398696 |       120927 |       456754 |       686727 |      1193799 |       756493 |      1281734 |      2378716 |      3020301 |      2503987 |      3104305 |
dl2.invalidations                                0 |            0 |            0 |            0 |            0 |            0 |            0 |            0 |            0 |            0 |            0 |            0 |            0 |            0 |            0 |            0 |            0 |            0 |            0 |            0 |            0 |            0 |            0 |            0 |            0 |            0 |            0 |            0 |            0 |            0 |            0 |            0 |            0 |            0 |            0 |            0 |            0 |            0 |            0 |            0 |            0 |            0 |            0 |            0 |
dl2.miss_rate                               0.2618 |       0.2618 |       0.2535 |       0.2535 |       0.1624 |       0.1624 |       0.1598 |       0.1598 |       0.1072 |       0.1072 |       0.1067 |       0.1067 |       0.0793 |       0.0793 |       0.0792 |       0.0792 |       0.0650 |       0.0650 |       0.0645 |       0.0645 |       0.0532 |       0.0532 |       0.0533 |       0.0533 |       0.0485 |       0.0485 |       0.0485 |       0.0485 |       0.0425 |       0.0430 |       0.0426 |       0.0729 |       0.0381 |       0.1337 |       0.0727 |       0.1532 |       0.1097 |       0.1730 |       0.1220 |       0.1865 |       0.1601 |       0.1978 |       0.1695 |       0.2045 |
dl2.repl_rate                               0.0289 |       0.0289 |       0.0000 |       0.0000 |       0.0133 |       0.0133 |       0.0000 |       0.0000 |       0.0056 |       0.0056 |       0.0000 |       0.0000 |       0.0025 |       0.0025 |       0.0000 |       0.0000 |       0.0011 |       0.0011 |       0.0000 |       0.0000 |       0.0005 |       0.0005 |       0.0000 |       0.0000 |       0.0002 |       0.0002 |       0.0000 |       0.0000 |       0.0001 |       0.0010 |       0.0000 |       0.0309 |       0.0005 |       0.1149 |       0.0349 |       0.1343 |       0.0922 |       0.1643 |       0.1045 |       0.1777 |       0.1519 |       0.1937 |       0.1612 |       0.2004 |
dl2.wb_rate                                 0.0173 |       0.0173 |       0.0000 |       0.0000 |       0.0079 |       0.0079 |       0.0000 |       0.0000 |       0.0033 |       0.0033 |       0.0000 |       0.0000 |       0.0015 |       0.0015 |       0.0000 |       0.0000 |       0.0007 |       0.0007 |       0.0000 |       0.0000 |       0.0003 |       0.0003 |       0.0000 |       0.0000 |       0.0001 |       0.0001 |       0.0000 |       0.0000 |       0.0001 |       0.0008 |       0.0000 |       0.0307 |       0.0004 |       0.1144 |       0.0348 |       0.1316 |       0.0914 |       0.1589 |       0.1012 |       0.1715 |       0.1492 |       0.1894 |       0.1580 |       0.1959 |
dl2.inv_rate                                0.0000 |       0.0000 |       0.0000 |       0.0000 |       0.0000 |       0.0000 |       0.0000 |       0.0000 |       0.0000 |       0.0000 |       0.0000 |       0.0000 |       0.0000 |       0.0000 |       0.0000 |       0.0000 |       0.0000 |       0.0000 |       0.0000 |       0.0000 |       0.0000 |       0.0000 |       0.0000 |       0.0000 |       0.0000 |       0.0000 |       0.0000 |       0.0000 |       0.0000 |       0.0000 |       0.0000 |       0.0000 |       0.0000 |       0.0000 |       0.0000 |       0.0000 |       0.0000 |       0.0000 |       0.0000 |       0.0000 |       0.0000 |       0.0000 |       0.0000 |       0.0000 |
itlb.accesses                               458129 |       458129 |       458129 |       458129 |      1004299 |      1004299 |      1004299 |      1004299 |      2116268 |      2116268 |      2116268 |      2116268 |      4560200 |      4560200 |      4560200 |      4560200 |      9683575 |      9683575 |      9683575 |      9683575 |     20698842 |     20698842 |     20698842 |     20698842 |     43010215 |     43010215 |     43010215 |     43010215 |     91565092 |     91565092 |     91565092 |     91565092 |    195076512 |    195076512 |    195076512 |    195076512 |    407767780 |    407767780 |    407767780 |    407767780 |    843133326 |    843133326 |    843133326 |    843133326 |
itlb.hits                                   458119 |       458119 |       458119 |       458119 |      1004289 |      1004289 |      1004289 |      1004289 |      2116258 |      2116258 |      2116258 |      2116258 |      4560190 |      4560190 |      4560190 |      4560190 |      9683565 |      9683565 |      9683565 |      9683565 |     20698832 |     20698832 |     20698832 |     20698832 |     43010205 |     43010205 |     43010205 |     43010205 |     91565082 |     91565082 |     91565082 |     91565082 |    195076502 |    195076502 |    195076502 |    195076502 |    407767770 |    407767770 |    407767770 |    407767770 |    843133316 |    843133316 |    843133316 |    843133316 |
itlb.misses                                     10 |           10 |           10 |           10 |           10 |           10 |           10 |           10 |           10 |           10 |           10 |           10 |           10 |           10 |           10 |           10 |           10 |           10 |           10 |           10 |           10 |           10 |           10 |           10 |           10 |           10 |           10 |           10 |           10 |           10 |           10 |           10 |           10 |           10 |           10 |           10 |           10 |           10 |           10 |           10 |           10 |           10 |           10 |           10 |
itlb.replacements                                0 |            0 |            0 |            0 |            0 |            0 |            0 |            0 |            0 |            0 |            0 |            0 |            0 |            0 |            0 |            0 |            0 |            0 |            0 |            0 |            0 |            0 |            0 |            0 |            0 |            0 |            0 |            0 |            0 |            0 |            0 |            0 |            0 |            0 |            0 |            0 |            0 |            0 |            0 |            0 |            0 |            0 |            0 |            0 |
itlb.writebacks                                  0 |            0 |            0 |            0 |            0 |            0 |            0 |            0 |            0 |            0 |            0 |            0 |            0 |            0 |            0 |            0 |            0 |            0 |            0 |            0 |            0 |            0 |            0 |            0 |            0 |            0 |            0 |            0 |            0 |            0 |            0 |            0 |            0 |            0 |            0 |            0 |            0 |            0 |            0 |            0 |            0 |            0 |            0 |            0 |
itlb.invalidations                               0 |            0 |            0 |            0 |            0 |            0 |            0 |            0 |            0 |            0 |            0 |            0 |            0 |            0 |            0 |            0 |            0 |            0 |            0 |            0 |            0 |            0 |            0 |            0 |            0 |            0 |            0 |            0 |            0 |            0 |            0 |            0 |            0 |            0 |            0 |            0 |            0 |            0 |            0 |            0 |            0 |            0 |            0 |            0 |
itlb.miss_rate                              0.0000 |       0.0000 |       0.0000 |       0.0000 |       0.0000 |       0.0000 |       0.0000 |       0.0000 |       0.0000 |       0.0000 |       0.0000 |       0.0000 |       0.0000 |       0.0000 |       0.0000 |       0.0000 |       0.0000 |       0.0000 |       0.0000 |       0.0000 |       0.0000 |       0.0000 |       0.0000 |       0.0000 |       0.0000 |       0.0000 |       0.0000 |       0.0000 |       0.0000 |       0.0000 |       0.0000 |       0.0000 |       0.0000 |       0.0000 |       0.0000 |       0.0000 |       0.0000 |       0.0000 |       0.0000 |       0.0000 |       0.0000 |       0.0000 |       0.0000 |       0.0000 |
itlb.repl_rate                              0.0000 |       0.0000 |       0.0000 |       0.0000 |       0.0000 |       0.0000 |       0.0000 |       0.0000 |       0.0000 |       0.0000 |       0.0000 |       0.0000 |       0.0000 |       0.0000 |       0.0000 |       0.0000 |       0.0000 |       0.0000 |       0.0000 |       0.0000 |       0.0000 |       0.0000 |       0.0000 |       0.0000 |       0.0000 |       0.0000 |       0.0000 |       0.0000 |       0.0000 |       0.0000 |       0.0000 |       0.0000 |       0.0000 |       0.0000 |       0.0000 |       0.0000 |       0.0000 |       0.0000 |       0.0000 |       0.0000 |       0.0000 |       0.0000 |       0.0000 |       0.0000 |
itlb.wb_rate                                0.0000 |       0.0000 |       0.0000 |       0.0000 |       0.0000 |       0.0000 |       0.0000 |       0.0000 |       0.0000 |       0.0000 |       0.0000 |       0.0000 |       0.0000 |       0.0000 |       0.0000 |       0.0000 |       0.0000 |       0.0000 |       0.0000 |       0.0000 |       0.0000 |       0.0000 |       0.0000 |       0.0000 |       0.0000 |       0.0000 |       0.0000 |       0.0000 |       0.0000 |       0.0000 |       0.0000 |       0.0000 |       0.0000 |       0.0000 |       0.0000 |       0.0000 |       0.0000 |       0.0000 |       0.0000 |       0.0000 |       0.0000 |       0.0000 |       0.0000 |       0.0000 |
itlb.inv_rate                               0.0000 |       0.0000 |       0.0000 |       0.0000 |       0.0000 |       0.0000 |       0.0000 |       0.0000 |       0.0000 |       0.0000 |       0.0000 |       0.0000 |       0.0000 |       0.0000 |       0.0000 |       0.0000 |       0.0000 |       0.0000 |       0.0000 |       0.0000 |       0.0000 |       0.0000 |       0.0000 |       0.0000 |       0.0000 |       0.0000 |       0.0000 |       0.0000 |       0.0000 |       0.0000 |       0.0000 |       0.0000 |       0.0000 |       0.0000 |       0.0000 |       0.0000 |       0.0000 |       0.0000 |       0.0000 |       0.0000 |       0.0000 |       0.0000 |       0.0000 |       0.0000 |
dtlb.accesses                               139855 |       139855 |       139855 |       139855 |       296176 |       296176 |       296176 |       296176 |       617166 |       617166 |       617166 |       617166 |      1304609 |      1304609 |      1304609 |      1304609 |      2741552 |      2741552 |      2741552 |      2741552 |      5780751 |      5780751 |      5780751 |      5780751 |     11997630 |     11997630 |     11997630 |     11997630 |     25214893 |     25214893 |     25214893 |     25214893 |     52987597 |     52987597 |     52987597 |     52987597 |    110137439 |    110137439 |    110137439 |    110137439 |    227806272 |    227806272 |    227806272 |    227806272 |
dtlb.hits                                   139843 |       139843 |       139843 |       139843 |       296160 |       296160 |       296160 |       296160 |       617142 |       617142 |       617142 |       617142 |      1304569 |      1304569 |      1304569 |      1304569 |      2741480 |      2741480 |      2741480 |      2741480 |      5780569 |      5780569 |      5780569 |      5780569 |     11996631 |     11996631 |     11996631 |     11996631 |     25212199 |     25212199 |     25212199 |     25212199 |     52980518 |     52980518 |     52980518 |     52980518 |    110121538 |    110121538 |    110121538 |    110121538 |    227770917 |    227770917 |    227770917 |    227770917 |
dtlb.misses                                     12 |           12 |           12 |           12 |           16 |           16 |           16 |           16 |           24 |           24 |           24 |           24 |           40 |           40 |           40 |           40 |           72 |           72 |           72 |           72 |          182 |          182 |          182 |          182 |          999 |          999 |          999 |          999 |         2694 |         2694 |         2694 |         2694 |         7079 |         7079 |         7079 |         7079 |        15901 |        15901 |        15901 |        15901 |        35355 |        35355 |        35355 |        35355 |
dtlb.replacements                                0 |            0 |            0 |            0 |            0 |            0 |            0 |            0 |            0 |            0 |            0 |            0 |            0 |            0 |            0 |            0 |            0 |            0 |            0 |            0 |           54 |           54 |           54 |           54 |          871 |          871 |          871 |          871 |         2566 |         2566 |         2566 |         2566 |         6951 |         6951 |         6951 |         6951 |        15773 |        15773 |        15773 |        15773 |        35227 |        35227 |        35227 |        35227 |
dtlb.writebacks                                  0 |            0 |            0 |            0 |            0 |            0 |            0 |            0 |            0 |            0 |            0 |            0 |            0 |            0 |            0 |            0 |            0 |            0 |            0 |            0 |           51 |           51 |           51 |           51 |          866 |          866 |          866 |          866 |         2558 |         2558 |         2558 |         2558 |         6933 |         6933 |         6933 |         6933 |        15742 |        15742 |        15742 |        15742 |        35157 |        35157 |        35157 |        35157 |
dtlb.invalidations                               0 |            0 |            0 |            0 |            0 |            0 |            0 |            0 |            0 |            0 |            0 |            0 |            0 |            0 |            0 |            0 |            0 |            0 |            0 |            0 |            0 |            0 |            0 |            0 |            0 |            0 |            0 |            0 |            0 |            0 |            0 |            0 |            0 |            0 |            0 |            0 |            0 |            0 |            0 |            0 |            0 |            0 |            0 |            0 |
dtlb.miss_rate                              0.0001 |       0.0001 |       0.0001 |       0.0001 |       0.0001 |       0.0001 |       0.0001 |       0.0001 |       0.0000 |       0.0000 |       0.0000 |       0.0000 |       0.0000 |       0.0000 |       0.0000 |       0.0000 |       0.0000 |       0.0000 |       0.0000 |       0.0000 |       0.0000 |       0.0000 |       0.0000 |       0.0000 |       0.0001 |       0.0001 |       0.0001 |       0.0001 |       0.0001 |       0.0001 |       0.0001 |       0.0001 |       0.0001 |       0.0001 |       0.0001 |       0.0001 |       0.0001 |       0.0001 |       0.0001 |       0.0001 |       0.0002 |       0.0002 |       0.0002 |       0.0002 |
dtlb.repl_rate                              0.0000 |       0.0000 |       0.0000 |       0.0000 |       0.0000 |       0.0000 |       0.0000 |       0.0000 |       0.0000 |       0.0000 |       0.0000 |       0.0000 |       0.0000 |       0.0000 |       0.0000 |       0.0000 |       0.0000 |       0.0000 |       0.0000 |       0.0000 |       0.0000 |       0.0000 |       0.0000 |       0.0000 |       0.0001 |       0.0001 |       0.0001 |       0.0001 |       0.0001 |       0.0001 |       0.0001 |       0.0001 |       0.0001 |       0.0001 |       0.0001 |       0.0001 |       0.0001 |       0.0001 |       0.0001 |       0.0001 |       0.0002 |       0.0002 |       0.0002 |       0.0002 |
dtlb.wb_rate                                0.0000 |       0.0000 |       0.0000 |       0.0000 |       0.0000 |       0.0000 |       0.0000 |       0.0000 |       0.0000 |       0.0000 |       0.0000 |       0.0000 |       0.0000 |       0.0000 |       0.0000 |       0.0000 |       0.0000 |       0.0000 |       0.0000 |       0.0000 |       0.0000 |       0.0000 |       0.0000 |       0.0000 |       0.0001 |       0.0001 |       0.0001 |       0.0001 |       0.0001 |       0.0001 |       0.0001 |       0.0001 |       0.0001 |       0.0001 |       0.0001 |       0.0001 |       0.0001 |       0.0001 |       0.0001 |       0.0001 |       0.0002 |       0.0002 |       0.0002 |       0.0002 |
dtlb.inv_rate                               0.0000 |       0.0000 |       0.0000 |       0.0000 |       0.0000 |       0.0000 |       0.0000 |       0.0000 |       0.0000 |       0.0000 |       0.0000 |       0.0000 |       0.0000 |       0.0000 |       0.0000 |       0.0000 |       0.0000 |       0.0000 |       0.0000 |       0.0000 |       0.0000 |       0.0000 |       0.0000 |       0.0000 |       0.0000 |       0.0000 |       0.0000 |       0.0000 |       0.0000 |       0.0000 |       0.0000 |       0.0000 |       0.0000 |       0.0000 |       0.0000 |       0.0000 |       0.0000 |       0.0000 |       0.0000 |       0.0000 |       0.0000 |       0.0000 |       0.0000 |       0.0000 |
ld_text_base                            0x00400000 |   0x00400000 |   0x00400000 |   0x00400000 |   0x00400000 |   0x00400000 |   0x00400000 |   0x00400000 |   0x00400000 |   0x00400000 |   0x00400000 |   0x00400000 |   0x00400000 |   0x00400000 |   0x00400000 |   0x00400000 |   0x00400000 |   0x00400000 |   0x00400000 |   0x00400000 |   0x00400000 |   0x00400000 |   0x00400000 |   0x00400000 |   0x00400000 |   0x00400000 |   0x00400000 |   0x00400000 |   0x00400000 |   0x00400000 |   0x00400000 |   0x00400000 |   0x00400000 |   0x00400000 |   0x00400000 |   0x00400000 |   0x00400000 |   0x00400000 |   0x00400000 |   0x00400000 |   0x00400000 |   0x00400000 |   0x00400000 |   0x00400000 |
ld_text_size                                 73600 |        73600 |        73600 |        73600 |        73632 |        73632 |        73632 |        73632 |        73648 |        73648 |        73648 |        73648 |        73664 |        73664 |        73664 |        73664 |        73664 |        73664 |        73664 |        73664 |        73664 |        73664 |        73664 |        73664 |        73664 |        73664 |        73664 |        73664 |        73664 |        73664 |        73664 |        73664 |        73664 |        73664 |        73664 |        73664 |        73664 |        73664 |        73664 |        73664 |        73664 |        73664 |        73664 |        73664 |
ld_data_base                            0x10000000 |   0x10000000 |   0x10000000 |   0x10000000 |   0x10000000 |   0x10000000 |   0x10000000 |   0x10000000 |   0x10000000 |   0x10000000 |   0x10000000 |   0x10000000 |   0x10000000 |   0x10000000 |   0x10000000 |   0x10000000 |   0x10000000 |   0x10000000 |   0x10000000 |   0x10000000 |   0x10000000 |   0x10000000 |   0x10000000 |   0x10000000 |   0x10000000 |   0x10000000 |   0x10000000 |   0x10000000 |   0x10000000 |   0x10000000 |   0x10000000 |   0x10000000 |   0x10000000 |   0x10000000 |   0x10000000 |   0x10000000 |   0x10000000 |   0x10000000 |   0x10000000 |   0x10000000 |   0x10000000 |   0x10000000 |   0x10000000 |   0x10000000 |
ld_data_size                                  8192 |         8192 |         8192 |         8192 |         8192 |         8192 |         8192 |         8192 |         8192 |         8192 |         8192 |         8192 |         8192 |         8192 |         8192 |         8192 |         8192 |         8192 |         8192 |         8192 |         8192 |         8192 |         8192 |         8192 |         8192 |         8192 |         8192 |         8192 |         8192 |         8192 |         8192 |         8192 |         8192 |         8192 |         8192 |         8192 |         8192 |         8192 |         8192 |         8192 |         8192 |         8192 |         8192 |         8192 |
ld_stack_base                           0x7fffc000 |   0x7fffc000 |   0x7fffc000 |   0x7fffc000 |   0x7fffc000 |   0x7fffc000 |   0x7fffc000 |   0x7fffc000 |   0x7fffc000 |   0x7fffc000 |   0x7fffc000 |   0x7fffc000 |   0x7fffc000 |   0x7fffc000 |   0x7fffc000 |   0x7fffc000 |   0x7fffc000 |   0x7fffc000 |   0x7fffc000 |   0x7fffc000 |   0x7fffc000 |   0x7fffc000 |   0x7fffc000 |   0x7fffc000 |   0x7fffc000 |   0x7fffc000 |   0x7fffc000 |   0x7fffc000 |   0x7fffc000 |   0x7fffc000 |   0x7fffc000 |   0x7fffc000 |   0x7fffc000 |   0x7fffc000 |   0x7fffc000 |   0x7fffc000 |   0x7fffc000 |   0x7fffc000 |   0x7fffc000 |   0x7fffc000 |   0x7fffc000 |   0x7fffc000 |   0x7fffc000 |   0x7fffc000 |
ld_stack_size                                16384 |        16384 |        16384 |        16384 |        16384 |        16384 |        16384 |        16384 |        16384 |        16384 |        16384 |        16384 |        16384 |        16384 |        16384 |        16384 |        16384 |        16384 |        16384 |        16384 |        16384 |        16384 |        16384 |        16384 |        16384 |        16384 |        16384 |        16384 |        16384 |        16384 |        16384 |        16384 |        16384 |        16384 |        16384 |        16384 |        16384 |        16384 |        16384 |        16384 |        16384 |        16384 |        16384 |        16384 |
ld_prog_entry                           0x00400140 |   0x00400140 |   0x00400140 |   0x00400140 |   0x00400140 |   0x00400140 |   0x00400140 |   0x00400140 |   0x00400140 |   0x00400140 |   0x00400140 |   0x00400140 |   0x00400140 |   0x00400140 |   0x00400140 |   0x00400140 |   0x00400140 |   0x00400140 |   0x00400140 |   0x00400140 |   0x00400140 |   0x00400140 |   0x00400140 |   0x00400140 |   0x00400140 |   0x00400140 |   0x00400140 |   0x00400140 |   0x00400140 |   0x00400140 |   0x00400140 |   0x00400140 |   0x00400140 |   0x00400140 |   0x00400140 |   0x00400140 |   0x00400140 |   0x00400140 |   0x00400140 |   0x00400140 |   0x00400140 |   0x00400140 |   0x00400140 |   0x00400140 |
ld_environ_base                         0x7fff8000 |   0x7fff8000 |   0x7fff8000 |   0x7fff8000 |   0x7fff8000 |   0x7fff8000 |   0x7fff8000 |   0x7fff8000 |   0x7fff8000 |   0x7fff8000 |   0x7fff8000 |   0x7fff8000 |   0x7fff8000 |   0x7fff8000 |   0x7fff8000 |   0x7fff8000 |   0x7fff8000 |   0x7fff8000 |   0x7fff8000 |   0x7fff8000 |   0x7fff8000 |   0x7fff8000 |   0x7fff8000 |   0x7fff8000 |   0x7fff8000 |   0x7fff8000 |   0x7fff8000 |   0x7fff8000 |   0x7fff8000 |   0x7fff8000 |   0x7fff8000 |   0x7fff8000 |   0x7fff8000 |   0x7fff8000 |   0x7fff8000 |   0x7fff8000 |   0x7fff8000 |   0x7fff8000 |   0x7fff8000 |   0x7fff8000 |   0x7fff8000 |   0x7fff8000 |   0x7fff8000 |   0x7fff8000 |
ld_target_big_endian                             0 |            0 |            0 |            0 |            0 |            0 |            0 |            0 |            0 |            0 |            0 |            0 |            0 |            0 |            0 |            0 |            0 |            0 |            0 |            0 |            0 |            0 |            0 |            0 |            0 |            0 |            0 |            0 |            0 |            0 |            0 |            0 |            0 |            0 |            0 |            0 |            0 |            0 |            0 |            0 |            0 |            0 |            0 |            0 |
mem.page_count                                  30 |           30 |           30 |           30 |           34 |           34 |           34 |           34 |           42 |           42 |           42 |           42 |           58 |           58 |           58 |           58 |           90 |           90 |           90 |           90 |          154 |          154 |          154 |          154 |          282 |          282 |          282 |          282 |          538 |          538 |          538 |          538 |         1050 |         1050 |         1050 |         1050 |         2074 |         2074 |         2074 |         2074 |         4122 |         4122 |         4122 |         4122 |
mem.page_mem                                  120k |         120k |         120k |         120k |         136k |         136k |         136k |         136k |         168k |         168k |         168k |         168k |         232k |         232k |         232k |         232k |         360k |         360k |         360k |         360k |         616k |         616k |         616k |         616k |        1128k |        1128k |        1128k |        1128k |        2152k |        2152k |        2152k |        2152k |        4200k |        4200k |        4200k |        4200k |        8296k |        8296k |        8296k |        8296k |       16488k |       16488k |       16488k |       16488k |
mem.ptab_misses                                 30 |           30 |           30 |           30 |           34 |           34 |           34 |           34 |           42 |           42 |           42 |           42 |           58 |           58 |           58 |           58 |           90 |           90 |           90 |           90 |          154 |          154 |          154 |          154 |          282 |          282 |          282 |          282 |          538 |          538 |          538 |          538 |         1050 |         1050 |         1050 |         1050 |         2074 |         2074 |         2074 |         2074 |         4122 |         4122 |         4122 |         4122 |
mem.ptab_accesses                          2568440 |      2568440 |      2568440 |      2568440 |      5065954 |      5065954 |      5065954 |      5065954 |     10155906 |     10155906 |     10155906 |     10155906 |     21306616 |     21306616 |     21306616 |     21306616 |     44674002 |     44674002 |     44674002 |     44674002 |     94813468 |     94813468 |     94813468 |     94813468 |    196492718 |    196492718 |    196492718 |    196492718 |    417146752 |    417146752 |    417146752 |    417146752 |    886737840 |    886737840 |    886737840 |    886737840 |   1851802596 |   1851802596 |   1851802596 |   1851802596 |   3828602446 |   3828602446 |   3828602446 |   3828602446 |
mem.ptab_miss_rate                          0.0000 |       0.0000 |       0.0000 |       0.0000 |       0.0000 |       0.0000 |       0.0000 |       0.0000 |       0.0000 |       0.0000 |       0.0000 |       0.0000 |       0.0000 |       0.0000 |       0.0000 |       0.0000 |       0.0000 |       0.0000 |       0.0000 |       0.0000 |       0.0000 |       0.0000 |       0.0000 |       0.0000 |       0.0000 |       0.0000 |       0.0000 |       0.0000 |       0.0000 |       0.0000 |       0.0000 |       0.0000 |       0.0000 |       0.0000 |       0.0000 |       0.0000 |       0.0000 |       0.0000 |       0.0000 |       0.0000 |       0.0000 |       0.0000 |       0.0000 |       0.0000 |
-------------------------------------------------------------------------------------------------
sim-bpred                                     4096 |         4096 |         4096 |         4096 |         4096 |         4096 |         4096 |         8192 |         8192 |         8192 |         8192 |         8192 |         8192 |         8192 |        16384 |        16384 |        16384 |        16384 |        16384 |        16384 |        16384 |        32768 |        32768 |        32768 |        32768 |        32768 |        32768 |        32768 |        65536 |        65536 |        65536 |        65536 |        65536 |        65536 |        65536 |       131072 |       131072 |       131072 |       131072 |       131072 |       131072 |       131072 |       262144 |       262144 |       262144 |       262144 |       262144 |       262144 |       262144 |       524288 |       524288 |       524288 |       524288 |       524288 |       524288 |       524288 |      1048576 |      1048576 |      1048576 |      1048576 |      1048576 |      1048576 |      1048576 |      2097152 |      2097152 |      2097152 |      2097152 |      2097152 |      2097152 |      2097152 |      4194304 |      4194304 |      4194304 |      4194304 |      4194304 |      4194304 |      4194304 |
-bpred bimod -bpred:bimod 512
-bpred bimod -bpred:bimod 1024
-bpred bimod -bpred:bimod 2048
-bpred 2lev -bpred:2lev 1 512 10 1
-bpred 2lev -bpred:2lev 1 1024 10 1
-bpred 2lev -bpred:2lev 1 2048 10 1
-bpred 2lev -bpred:2lev 1 4096 10 1
-------------------------------------------------------------------------------------------------
sim_num_insn                                458129 |       458129 |       458129 |       458129 |       458129 |       458129 |       458129 |      1004299 |      1004299 |      1004299 |      1004299 |      1004299 |      1004299 |      1004299 |      2116268 |      2116268 |      2116268 |      2116268 |      2116268 |      2116268 |      2116268 |      4560200 |      4560200 |      4560200 |      4560200 |      4560200 |      4560200 |      4560200 |      9683575 |      9683575 |      9683575 |      9683575 |      9683575 |      9683575 |      9683575 |     20698842 |     20698842 |     20698842 |     20698842 |     20698842 |     20698842 |     20698842 |     43010215 |     43010215 |     43010215 |     43010215 |     43010215 |     43010215 |     43010215 |     91565092 |     91565092 |     91565092 |     91565092 |     91565092 |     91565092 |     91565092 |    195076512 |    195076512 |    195076512 |    195076512 |    195076512 |    195076512 |    195076512 |    407767780 |    407767780 |    407767780 |    407767780 |    407767780 |    407767780 |    407767780 |    843133326 |    843133326 |    843133326 |    843133326 |    843133326 |    843133326 |    843133326 |
sim_num_refs                                123389 |       123389 |       123389 |       123389 |       123389 |       123389 |       123389 |       263326 |       263326 |       263326 |       263326 |       263326 |       263326 |       263326 |       551548 |       551548 |       551548 |       551548 |       551548 |       551548 |       551548 |      1173455 |      1173455 |      1173455 |      1173455 |      1173455 |      1173455 |      1173455 |      2479326 |      2479326 |      2479326 |      2479326 |      2479326 |      2479326 |      2479326 |      5256381 |      5256381 |      5256381 |      5256381 |      5256381 |      5256381 |      5256381 |     10948972 |     10948972 |     10948972 |     10948972 |     10948972 |     10948972 |     10948972 |     23117659 |     23117659 |     23117659 |     23117659 |     23117659 |     23117659 |     23117659 |     48793211 |     48793211 |     48793211 |     48793211 |     48793211 |     48793211 |     48793211 |    101748749 |    101748749 |    101748749 |    101748749 |    101748749 |    101748749 |    101748749 |    211028974 |    211028974 |    211028974 |    211028974 |    211028974 |    211028974 |    211028974 |
sim_elapsed_time                                 1 |            1 |            1 |            1 |            1 |            1 |            1 |            1 |            1 |            1 |            1 |            1 |            1 |            1 |            1 |            1 |            1 |            1 |            1 |            1 |            1 |            1 |            1 |            1 |            1 |            1 |            1 |            1 |            1 |            1 |            1 |            1 |            1 |            1 |            2 |            2 |            3 |            2 |            2 |            3 |            2 |            3 |            5 |            5 |            5 |            5 |            5 |            5 |            5 |           10 |           11 |           10 |           11 |           11 |           10 |           11 |           22 |           23 |           22 |           22 |           23 |           23 |           22 |           46 |           47 |           46 |           47 |           48 |           47 |           47 |           96 |           95 |           96 |           98 |           98 |           98 |           98 |
sim_inst_rate                          458129.0000 |  458129.0000 |  458129.0000 |  458129.0000 |  458129.0000 |  458129.0000 |  458129.0000 | 1004299.0000 | 1004299.0000 | 1004299.0000 | 1004299.0000 | 1004299.0000 | 1004299.0000 | 1004299.0000 | 2116268.0000 | 2116268.0000 | 2116268.0000 | 2116268.0000 | 2116268.0000 | 2116268.0000 | 2116268.0000 | 4560200.0000 | 4560200.0000 | 4560200.0000 | 4560200.0000 | 4560200.0000 | 4560200.0000 | 4560200.0000 | 9683575.0000 | 9683575.0000 | 9683575.0000 | 9683575.0000 | 9683575.0000 | 9683575.0000 | 4841787.5000 |10349421.0000 | 6899614.0000 |10349421.0000 |10349421.0000 | 6899614.0000 |10349421.0000 | 6899614.0000 | 8602043.0000 | 8602043.0000 | 8602043.0000 | 8602043.0000 | 8602043.0000 | 8602043.0000 | 8602043.0000 | 9156509.2000 | 8324099.2727 | 9156509.2000 | 8324099.2727 | 8324099.2727 | 9156509.2000 | 8324099.2727 | 8867114.1818 | 8481587.4783 | 8867114.1818 | 8867114.1818 | 8481587.4783 | 8481587.4783 | 8867114.1818 | 8864516.9565 | 8675910.2128 | 8864516.9565 | 8675910.2128 | 8495162.0833 | 8675910.2128 | 8675910.2128 | 8782638.8125 | 8875087.6421 | 8782638.8125 | 8603401.2857 | 8603401.2857 | 8603401.2857 | 8603401.2857 |
sim_num_branches                             75323 |        75323 |        75323 |        75323 |        75323 |        75323 |        75323 |       166591 |       166591 |       166591 |       166591 |       166591 |       166591 |       166591 |       353645 |       353645 |       353645 |       353645 |       353645 |       353645 |       353645 |       765359 |       765359 |       765359 |       765359 |       765359 |       765359 |       765359 |      1632893 |      1632893 |      1632893 |      1632893 |      1632893 |      1632893 |      1632893 |      3506728 |      3506728 |      3506728 |      3506728 |      3506728 |      3506728 |      3506728 |      7313135 |      7313135 |      7313135 |      7313135 |      7313135 |      7313135 |      7313135 |     15614916 |     15614916 |     15614916 |     15614916 |     15614916 |     15614916 |     15614916 |     33320801 |     33320801 |     33320801 |     33320801 |     33320801 |     33320801 |     33320801 |     69788090 |     69788090 |     69788090 |     69788090 |     69788090 |     69788090 |     69788090 |    144927023 |    144927023 |    144927023 |    144927023 |    144927023 |    144927023 |    144927023 |
sim_IPB                                     6.0822 |       6.0822 |       6.0822 |       6.0822 |       6.0822 |       6.0822 |       6.0822 |       6.0285 |       6.0285 |       6.0285 |       6.0285 |       6.0285 |       6.0285 |       6.0285 |       5.9842 |       5.9842 |       5.9842 |       5.9842 |       5.9842 |       5.9842 |       5.9842 |       5.9582 |       5.9582 |       5.9582 |       5.9582 |       5.9582 |       5.9582 |       5.9582 |       5.9303 |       5.9303 |       5.9303 |       5.9303 |       5.9303 |       5.9303 |       5.9303 |       5.9026 |       5.9026 |       5.9026 |       5.9026 |       5.9026 |       5.9026 |       5.9026 |       5.8812 |       5.8812 |       5.8812 |       5.8812 |       5.8812 |       5.8812 |       5.8812 |       5.8640 |       5.8640 |       5.8640 |       5.8640 |       5.8640 |       5.8640 |       5.8640 |       5.8545 |       5.8545 |       5.8545 |       5.8545 |       5.8545 |       5.8545 |       5.8545 |       5.8429 |       5.8429 |       5.8429 |       5.8429 |       5.8429 |       5.8429 |       5.8429 |       5.8176 |       5.8176 |       5.8176 |       5.8176 |       5.8176 |       5.8176 |       5.8176 |
bpred_bimod.lookups                          75323 |        75323 |        75323 |xxxxxxxxxxxxx |xxxxxxxxxxxxx |xxxxxxxxxxxxx |xxxxxxxxxxxxx |       166591 |       166591 |       166591 |xxxxxxxxxxxxx |xxxxxxxxxxxxx |xxxxxxxxxxxxx |xxxxxxxxxxxxx |       353645 |       353645 |       353645 |xxxxxxxxxxxxx |xxxxxxxxxxxxx |xxxxxxxxxxxxx |xxxxxxxxxxxxx |       765359 |       765359 |       765359 |xxxxxxxxxxxxx |xxxxxxxxxxxxx |xxxxxxxxxxxxx |xxxxxxxxxxxxx |      1632893 |      1632893 |      1632893 |xxxxxxxxxxxxx |xxxxxxxxxxxxx |xxxxxxxxxxxxx |xxxxxxxxxxxxx |      3506728 |      3506728 |      3506728 |xxxxxxxxxxxxx |xxxxxxxxxxxxx |xxxxxxxxxxxxx |xxxxxxxxxxxxx |      7313135 |      7313135 |      7313135 |xxxxxxxxxxxxx |xxxxxxxxxxxxx |xxxxxxxxxxxxx |xxxxxxxxxxxxx |     15614916 |     15614916 |     15614916 |xxxxxxxxxxxxx |xxxxxxxxxxxxx |xxxxxxxxxxxxx |xxxxxxxxxxxxx |     33320801 |     33320801 |     33320801 |xxxxxxxxxxxxx |xxxxxxxxxxxxx |xxxxxxxxxxxxx |xxxxxxxxxxxxx |     69788090 |     69788090 |     69788090 |xxxxxxxxxxxxx |xxxxxxxxxxxxx |xxxxxxxxxxxxx |xxxxxxxxxxxxx |    144927023 |    144927023 |    144927023 |
bpred_bimod.updates                          75323 |        75323 |        75323 |xxxxxxxxxxxxx |xxxxxxxxxxxxx |xxxxxxxxxxxxx |xxxxxxxxxxxxx |       166591 |       166591 |       166591 |xxxxxxxxxxxxx |xxxxxxxxxxxxx |xxxxxxxxxxxxx |xxxxxxxxxxxxx |       353645 |       353645 |       353645 |xxxxxxxxxxxxx |xxxxxxxxxxxxx |xxxxxxxxxxxxx |xxxxxxxxxxxxx |       765359 |       765359 |       765359 |xxxxxxxxxxxxx |xxxxxxxxxxxxx |xxxxxxxxxxxxx |xxxxxxxxxxxxx |      1632893 |      1632893 |      1632893 |xxxxxxxxxxxxx |xxxxxxxxxxxxx |xxxxxxxxxxxxx |xxxxxxxxxxxxx |      3506728 |      3506728 |      3506728 |xxxxxxxxxxxxx |xxxxxxxxxxxxx |xxxxxxxxxxxxx |xxxxxxxxxxxxx |      7313135 |      7313135 |      7313135 |xxxxxxxxxxxxx |xxxxxxxxxxxxx |xxxxxxxxxxxxx |xxxxxxxxxxxxx |     15614916 |     15614916 |     15614916 |xxxxxxxxxxxxx |xxxxxxxxxxxxx |xxxxxxxxxxxxx |xxxxxxxxxxxxx |     33320801 |     33320801 |     33320801 |xxxxxxxxxxxxx |xxxxxxxxxxxxx |xxxxxxxxxxxxx |xxxxxxxxxxxxx |     69788090 |     69788090 |     69788090 |xxxxxxxxxxxxx |xxxxxxxxxxxxx |xxxxxxxxxxxxx |xxxxxxxxxxxxx |    144927023 |    144927023 |    144927023 |
bpred_bimod.addr_hits                        52126 |        52130 |        52130 |xxxxxxxxxxxxx |xxxxxxxxxxxxx |xxxxxxxxxxxxx |xxxxxxxxxxxxx |       117809 |       117810 |       117811 |xxxxxxxxxxxxx |xxxxxxxxxxxxx |xxxxxxxxxxxxx |xxxxxxxxxxxxx |       248062 |       248063 |       248064 |xxxxxxxxxxxxx |xxxxxxxxxxxxx |xxxxxxxxxxxxx |xxxxxxxxxxxxx |       542260 |       542259 |       542258 |xxxxxxxxxxxxx |xxxxxxxxxxxxx |xxxxxxxxxxxxx |xxxxxxxxxxxxx |      1158928 |      1158928 |      1158930 |xxxxxxxxxxxxx |xxxxxxxxxxxxx |xxxxxxxxxxxxx |xxxxxxxxxxxxx |      2514275 |      2514275 |      2514277 |xxxxxxxxxxxxx |xxxxxxxxxxxxx |xxxxxxxxxxxxx |xxxxxxxxxxxxx |      5173309 |      5173309 |      5173311 |xxxxxxxxxxxxx |xxxxxxxxxxxxx |xxxxxxxxxxxxx |xxxxxxxxxxxxx |     11165965 |     11165966 |     11165968 |xxxxxxxxxxxxx |xxxxxxxxxxxxx |xxxxxxxxxxxxx |xxxxxxxxxxxxx |     24025199 |     24025199 |     24025201 |xxxxxxxxxxxxx |xxxxxxxxxxxxx |xxxxxxxxxxxxx |xxxxxxxxxxxxx |     50218941 |     50218941 |     50218944 |xxxxxxxxxxxxx |xxxxxxxxxxxxx |xxxxxxxxxxxxx |xxxxxxxxxxxxx |    103634185 |    103634184 |    103634186 |
bpred_bimod.dir_hits                         52240 |        52243 |        52243 |xxxxxxxxxxxxx |xxxxxxxxxxxxx |xxxxxxxxxxxxx |xxxxxxxxxxxxx |       117922 |       117920 |       117922 |xxxxxxxxxxxxx |xxxxxxxxxxxxx |xxxxxxxxxxxxx |xxxxxxxxxxxxx |       248176 |       248176 |       248177 |xxxxxxxxxxxxx |xxxxxxxxxxxxx |xxxxxxxxxxxxx |xxxxxxxxxxxxx |       542377 |       542372 |       542370 |xxxxxxxxxxxxx |xxxxxxxxxxxxx |xxxxxxxxxxxxx |xxxxxxxxxxxxx |      1159042 |      1159039 |      1159040 |xxxxxxxxxxxxx |xxxxxxxxxxxxx |xxxxxxxxxxxxx |xxxxxxxxxxxxx |      2514390 |      2514386 |      2514388 |xxxxxxxxxxxxx |xxxxxxxxxxxxx |xxxxxxxxxxxxx |xxxxxxxxxxxxx |      5173422 |      5173418 |      5173420 |xxxxxxxxxxxxx |xxxxxxxxxxxxx |xxxxxxxxxxxxx |xxxxxxxxxxxxx |     11166081 |     11166078 |     11166080 |xxxxxxxxxxxxx |xxxxxxxxxxxxx |xxxxxxxxxxxxx |xxxxxxxxxxxxx |     24025315 |     24025311 |     24025313 |xxxxxxxxxxxxx |xxxxxxxxxxxxx |xxxxxxxxxxxxx |xxxxxxxxxxxxx |     50219056 |     50219053 |     50219055 |xxxxxxxxxxxxx |xxxxxxxxxxxxx |xxxxxxxxxxxxx |xxxxxxxxxxxxx |    103634301 |    103634296 |    103634298 |
bpred_bimod.misses                           23083 |        23080 |        23080 |xxxxxxxxxxxxx |xxxxxxxxxxxxx |xxxxxxxxxxxxx |xxxxxxxxxxxxx |        48669 |        48671 |        48669 |xxxxxxxxxxxxx |xxxxxxxxxxxxx |xxxxxxxxxxxxx |xxxxxxxxxxxxx |       105469 |       105469 |       105468 |xxxxxxxxxxxxx |xxxxxxxxxxxxx |xxxxxxxxxxxxx |xxxxxxxxxxxxx |       222982 |       222987 |       222989 |xxxxxxxxxxxxx |xxxxxxxxxxxxx |xxxxxxxxxxxxx |xxxxxxxxxxxxx |       473851 |       473854 |       473853 |xxxxxxxxxxxxx |xxxxxxxxxxxxx |xxxxxxxxxxxxx |xxxxxxxxxxxxx |       992338 |       992342 |       992340 |xxxxxxxxxxxxx |xxxxxxxxxxxxx |xxxxxxxxxxxxx |xxxxxxxxxxxxx |      2139713 |      2139717 |      2139715 |xxxxxxxxxxxxx |xxxxxxxxxxxxx |xxxxxxxxxxxxx |xxxxxxxxxxxxx |      4448835 |      4448838 |      4448836 |xxxxxxxxxxxxx |xxxxxxxxxxxxx |xxxxxxxxxxxxx |xxxxxxxxxxxxx |      9295486 |      9295490 |      9295488 |xxxxxxxxxxxxx |xxxxxxxxxxxxx |xxxxxxxxxxxxx |xxxxxxxxxxxxx |     19569034 |     19569037 |     19569035 |xxxxxxxxxxxxx |xxxxxxxxxxxxx |xxxxxxxxxxxxx |xxxxxxxxxxxxx |     41292722 |     41292727 |     41292725 |
bpred_bimod.jr_hits                             64 |           64 |           64 |xxxxxxxxxxxxx |xxxxxxxxxxxxx |xxxxxxxxxxxxx |xxxxxxxxxxxxx |           64 |           64 |           64 |xxxxxxxxxxxxx |xxxxxxxxxxxxx |xxxxxxxxxxxxx |xxxxxxxxxxxxx |           64 |           64 |           64 |xxxxxxxxxxxxx |xxxxxxxxxxxxx |xxxxxxxxxxxxx |xxxxxxxxxxxxx |           64 |           64 |           64 |xxxxxxxxxxxxx |xxxxxxxxxxxxx |xxxxxxxxxxxxx |xxxxxxxxxxxxx |           64 |           64 |           64 |xxxxxxxxxxxxx |xxxxxxxxxxxxx |xxxxxxxxxxxxx |xxxxxxxxxxxxx |           64 |           64 |           64 |xxxxxxxxxxxxx |xxxxxxxxxxxxx |xxxxxxxxxxxxx |xxxxxxxxxxxxx |           64 |           64 |           64 |xxxxxxxxxxxxx |xxxxxxxxxxxxx |xxxxxxxxxxxxx |xxxxxxxxxxxxx |           64 |           64 |           64 |xxxxxxxxxxxxx |xxxxxxxxxxxxx |xxxxxxxxxxxxx |xxxxxxxxxxxxx |           64 |           64 |           64 |xxxxxxxxxxxxx |xxxxxxxxxxxxx |xxxxxxxxxxxxx |xxxxxxxxxxxxx |           64 |           64 |           64 |xxxxxxxxxxxxx |xxxxxxxxxxxxx |xxxxxxxxxxxxx |xxxxxxxxxxxxx |           64 |           64 |           64 |
bpred_bimod.jr_seen                             64 |           64 |           64 |xxxxxxxxxxxxx |xxxxxxxxxxxxx |xxxxxxxxxxxxx |xxxxxxxxxxxxx |           64 |           64 |           64 |xxxxxxxxxxxxx |xxxxxxxxxxxxx |xxxxxxxxxxxxx |xxxxxxxxxxxxx |           64 |           64 |           64 |xxxxxxxxxxxxx |xxxxxxxxxxxxx |xxxxxxxxxxxxx |xxxxxxxxxxxxx |           64 |           64 |           64 |xxxxxxxxxxxxx |xxxxxxxxxxxxx |xxxxxxxxxxxxx |xxxxxxxxxxxxx |           64 |           64 |           64 |xxxxxxxxxxxxx |xxxxxxxxxxxxx |xxxxxxxxxxxxx |xxxxxxxxxxxxx |           64 |           64 |           64 |xxxxxxxxxxxxx |xxxxxxxxxxxxx |xxxxxxxxxxxxx |xxxxxxxxxxxxx |           64 |           64 |           64 |xxxxxxxxxxxxx |xxxxxxxxxxxxx |xxxxxxxxxxxxx |xxxxxxxxxxxxx |           64 |           64 |           64 |xxxxxxxxxxxxx |xxxxxxxxxxxxx |xxxxxxxxxxxxx |xxxxxxxxxxxxx |           64 |           64 |           64 |xxxxxxxxxxxxx |xxxxxxxxxxxxx |xxxxxxxxxxxxx |xxxxxxxxxxxxx |           64 |           64 |           64 |xxxxxxxxxxxxx |xxxxxxxxxxxxx |xxxxxxxxxxxxx |xxxxxxxxxxxxx |           64 |           64 |           64 |
bpred_bimod.jr_non_ras_hits.PP                   0 |            0 |            0 |xxxxxxxxxxxxx |xxxxxxxxxxxxx |xxxxxxxxxxxxx |xxxxxxxxxxxxx |            0 |            0 |            0 |xxxxxxxxxxxxx |xxxxxxxxxxxxx |xxxxxxxxxxxxx |xxxxxxxxxxxxx |            0 |            0 |            0 |xxxxxxxxxxxxx |xxxxxxxxxxxxx |xxxxxxxxxxxxx |xxxxxxxxxxxxx |            0 |            0 |            0 |xxxxxxxxxxxxx |xxxxxxxxxxxxx |xxxxxxxxxxxxx |xxxxxxxxxxxxx |            0 |            0 |            0 |xxxxxxxxxxxxx |xxxxxxxxxxxxx |xxxxxxxxxxxxx |xxxxxxxxxxxxx |            0 |            0 |            0 |xxxxxxxxxxxxx |xxxxxxxxxxxxx |xxxxxxxxxxxxx |xxxxxxxxxxxxx |            0 |            0 |            0 |xxxxxxxxxxxxx |xxxxxxxxxxxxx |xxxxxxxxxxxxx |xxxxxxxxxxxxx |            0 |            0 |            0 |xxxxxxxxxxxxx |xxxxxxxxxxxxx |xxxxxxxxxxxxx |xxxxxxxxxxxxx |            0 |            0 |            0 |xxxxxxxxxxxxx |xxxxxxxxxxxxx |xxxxxxxxxxxxx |xxxxxxxxxxxxx |            0 |            0 |            0 |xxxxxxxxxxxxx |xxxxxxxxxxxxx |xxxxxxxxxxxxx |xxxxxxxxxxxxx |            0 |            0 |            0 |
bpred_bimod.jr_non_ras_seen.PP                   0 |            0 |            0 |xxxxxxxxxxxxx |xxxxxxxxxxxxx |xxxxxxxxxxxxx |xxxxxxxxxxxxx |            0 |            0 |            0 |xxxxxxxxxxxxx |xxxxxxxxxxxxx |xxxxxxxxxxxxx |xxxxxxxxxxxxx |            0 |            0 |            0 |xxxxxxxxxxxxx |xxxxxxxxxxxxx |xxxxxxxxxxxxx |xxxxxxxxxxxxx |            0 |            0 |            0 |xxxxxxxxxxxxx |xxxxxxxxxxxxx |xxxxxxxxxxxxx |xxxxxxxxxxxxx |            0 |            0 |            0 |xxxxxxxxxxxxx |xxxxxxxxxxxxx |xxxxxxxxxxxxx |xxxxxxxxxxxxx |            0 |            0 |            0 |xxxxxxxxxxxxx |xxxxxxxxxxxxx |xxxxxxxxxxxxx |xxxxxxxxxxxxx |            0 |            0 |            0 |xxxxxxxxxxxxx |xxxxxxxxxxxxx |xxxxxxxxxxxxx |xxxxxxxxxxxxx |            0 |            0 |            0 |xxxxxxxxxxxxx |xxxxxxxxxxxxx |xxxxxxxxxxxxx |xxxxxxxxxxxxx |            0 |            0 |            0 |xxxxxxxxxxxxx |xxxxxxxxxxxxx |xxxxxxxxxxxxx |xxxxxxxxxxxxx |            0 |            0 |            0 |xxxxxxxxxxxxx |xxxxxxxxxxxxx |xxxxxxxxxxxxx |xxxxxxxxxxxxx |            0 |            0 |            0 |
bpred_bimod.bpred_addr_rate                 0.6920 |       0.6921 |       0.6921 |xxxxxxxxxxxxx |xxxxxxxxxxxxx |xxxxxxxxxxxxx |xxxxxxxxxxxxx |       0.7072 |       0.7072 |       0.7072 |xxxxxxxxxxxxx |xxxxxxxxxxxxx |xxxxxxxxxxxxx |xxxxxxxxxxxxx |       0.7014 |       0.7014 |       0.7014 |xxxxxxxxxxxxx |xxxxxxxxxxxxx |xxxxxxxxxxxxx |xxxxxxxxxxxxx |       0.7085 |       0.7085 |       0.7085 |xxxxxxxxxxxxx |xxxxxxxxxxxxx |xxxxxxxxxxxxx |xxxxxxxxxxxxx |       0.7097 |       0.7097 |       0.7097 |xxxxxxxxxxxxx |xxxxxxxxxxxxx |xxxxxxxxxxxxx |xxxxxxxxxxxxx |       0.7170 |       0.7170 |       0.7170 |xxxxxxxxxxxxx |xxxxxxxxxxxxx |xxxxxxxxxxxxx |xxxxxxxxxxxxx |       0.7074 |       0.7074 |       0.7074 |xxxxxxxxxxxxx |xxxxxxxxxxxxx |xxxxxxxxxxxxx |xxxxxxxxxxxxx |       0.7151 |       0.7151 |       0.7151 |xxxxxxxxxxxxx |xxxxxxxxxxxxx |xxxxxxxxxxxxx |xxxxxxxxxxxxx |       0.7210 |       0.7210 |       0.7210 |xxxxxxxxxxxxx |xxxxxxxxxxxxx |xxxxxxxxxxxxx |xxxxxxxxxxxxx |       0.7196 |       0.7196 |       0.7196 |xxxxxxxxxxxxx |xxxxxxxxxxxxx |xxxxxxxxxxxxx |xxxxxxxxxxxxx |       0.7151 |       0.7151 |       0.7151 |
bpred_bimod.bpred_dir_rate                  0.6935 |       0.6936 |       0.6936 |xxxxxxxxxxxxx |xxxxxxxxxxxxx |xxxxxxxxxxxxx |xxxxxxxxxxxxx |       0.7079 |       0.7078 |       0.7079 |xxxxxxxxxxxxx |xxxxxxxxxxxxx |xxxxxxxxxxxxx |xxxxxxxxxxxxx |       0.7018 |       0.7018 |       0.7018 |xxxxxxxxxxxxx |xxxxxxxxxxxxx |xxxxxxxxxxxxx |xxxxxxxxxxxxx |       0.7087 |       0.7087 |       0.7086 |xxxxxxxxxxxxx |xxxxxxxxxxxxx |xxxxxxxxxxxxx |xxxxxxxxxxxxx |       0.7098 |       0.7098 |       0.7098 |xxxxxxxxxxxxx |xxxxxxxxxxxxx |xxxxxxxxxxxxx |xxxxxxxxxxxxx |       0.7170 |       0.7170 |       0.7170 |xxxxxxxxxxxxx |xxxxxxxxxxxxx |xxxxxxxxxxxxx |xxxxxxxxxxxxx |       0.7074 |       0.7074 |       0.7074 |xxxxxxxxxxxxx |xxxxxxxxxxxxx |xxxxxxxxxxxxx |xxxxxxxxxxxxx |       0.7151 |       0.7151 |       0.7151 |xxxxxxxxxxxxx |xxxxxxxxxxxxx |xxxxxxxxxxxxx |xxxxxxxxxxxxx |       0.7210 |       0.7210 |       0.7210 |xxxxxxxxxxxxx |xxxxxxxxxxxxx |xxxxxxxxxxxxx |xxxxxxxxxxxxx |       0.7196 |       0.7196 |       0.7196 |xxxxxxxxxxxxx |xxxxxxxxxxxxx |xxxxxxxxxxxxx |xxxxxxxxxxxxx |       0.7151 |       0.7151 |       0.7151 |
bpred_bimod.bpred_jr_rate                   1.0000 |       1.0000 |       1.0000 |xxxxxxxxxxxxx |xxxxxxxxxxxxx |xxxxxxxxxxxxx |xxxxxxxxxxxxx |       1.0000 |       1.0000 |       1.0000 |xxxxxxxxxxxxx |xxxxxxxxxxxxx |xxxxxxxxxxxxx |xxxxxxxxxxxxx |       1.0000 |       1.0000 |       1.0000 |xxxxxxxxxxxxx |xxxxxxxxxxxxx |xxxxxxxxxxxxx |xxxxxxxxxxxxx |       1.0000 |       1.0000 |       1.0000 |xxxxxxxxxxxxx |xxxxxxxxxxxxx |xxxxxxxxxxxxx |xxxxxxxxxxxxx |       1.0000 |       1.0000 |       1.0000 |xxxxxxxxxxxxx |xxxxxxxxxxxxx |xxxxxxxxxxxxx |xxxxxxxxxxxxx |       1.0000 |       1.0000 |       1.0000 |xxxxxxxxxxxxx |xxxxxxxxxxxxx |xxxxxxxxxxxxx |xxxxxxxxxxxxx |       1.0000 |       1.0000 |       1.0000 |xxxxxxxxxxxxx |xxxxxxxxxxxxx |xxxxxxxxxxxxx |xxxxxxxxxxxxx |       1.0000 |       1.0000 |       1.0000 |xxxxxxxxxxxxx |xxxxxxxxxxxxx |xxxxxxxxxxxxx |xxxxxxxxxxxxx |       1.0000 |       1.0000 |       1.0000 |xxxxxxxxxxxxx |xxxxxxxxxxxxx |xxxxxxxxxxxxx |xxxxxxxxxxxxx |       1.0000 |       1.0000 |       1.0000 |xxxxxxxxxxxxx |xxxxxxxxxxxxx |xxxxxxxxxxxxx |xxxxxxxxxxxxx |       1.0000 |       1.0000 |       1.0000 |
bpred_bimod.bpred_jr_non_ras_rate.PP       <error: |      <error: |      <error: |xxxxxxxxxxxxx |xxxxxxxxxxxxx |xxxxxxxxxxxxx |xxxxxxxxxxxxx |      <error: |      <error: |      <error: |xxxxxxxxxxxxx |xxxxxxxxxxxxx |xxxxxxxxxxxxx |xxxxxxxxxxxxx |      <error: |      <error: |      <error: |xxxxxxxxxxxxx |xxxxxxxxxxxxx |xxxxxxxxxxxxx |xxxxxxxxxxxxx |      <error: |      <error: |      <error: |xxxxxxxxxxxxx |xxxxxxxxxxxxx |xxxxxxxxxxxxx |xxxxxxxxxxxxx |      <error: |      <error: |      <error: |xxxxxxxxxxxxx |xxxxxxxxxxxxx |xxxxxxxxxxxxx |xxxxxxxxxxxxx |      <error: |      <error: |      <error: |xxxxxxxxxxxxx |xxxxxxxxxxxxx |xxxxxxxxxxxxx |xxxxxxxxxxxxx |      <error: |      <error: |      <error: |xxxxxxxxxxxxx |xxxxxxxxxxxxx |xxxxxxxxxxxxx |xxxxxxxxxxxxx |      <error: |      <error: |      <error: |xxxxxxxxxxxxx |xxxxxxxxxxxxx |xxxxxxxxxxxxx |xxxxxxxxxxxxx |      <error: |      <error: |      <error: |xxxxxxxxxxxxx |xxxxxxxxxxxxx |xxxxxxxxxxxxx |xxxxxxxxxxxxx |      <error: |      <error: |      <error: |xxxxxxxxxxxxx |xxxxxxxxxxxxx |xxxxxxxxxxxxx |xxxxxxxxxxxxx |      <error: |      <error: |      <error: |
bpred_bimod.retstack_pushes                     66 |           66 |           66 |xxxxxxxxxxxxx |xxxxxxxxxxxxx |xxxxxxxxxxxxx |xxxxxxxxxxxxx |           66 |           66 |           66 |xxxxxxxxxxxxx |xxxxxxxxxxxxx |xxxxxxxxxxxxx |xxxxxxxxxxxxx |           66 |           66 |           66 |xxxxxxxxxxxxx |xxxxxxxxxxxxx |xxxxxxxxxxxxx |xxxxxxxxxxxxx |           66 |           66 |           66 |xxxxxxxxxxxxx |xxxxxxxxxxxxx |xxxxxxxxxxxxx |xxxxxxxxxxxxx |           66 |           66 |           66 |xxxxxxxxxxxxx |xxxxxxxxxxxxx |xxxxxxxxxxxxx |xxxxxxxxxxxxx |           66 |           66 |           66 |xxxxxxxxxxxxx |xxxxxxxxxxxxx |xxxxxxxxxxxxx |xxxxxxxxxxxxx |           66 |           66 |           66 |xxxxxxxxxxxxx |xxxxxxxxxxxxx |xxxxxxxxxxxxx |xxxxxxxxxxxxx |           66 |           66 |           66 |xxxxxxxxxxxxx |xxxxxxxxxxxxx |xxxxxxxxxxxxx |xxxxxxxxxxxxx |           66 |           66 |           66 |xxxxxxxxxxxxx |xxxxxxxxxxxxx |xxxxxxxxxxxxx |xxxxxxxxxxxxx |           66 |           66 |           66 |xxxxxxxxxxxxx |xxxxxxxxxxxxx |xxxxxxxxxxxxx |xxxxxxxxxxxxx |           66 |           66 |           66 |
bpred_bimod.retstack_pops                       64 |           64 |           64 |xxxxxxxxxxxxx |xxxxxxxxxxxxx |xxxxxxxxxxxxx |xxxxxxxxxxxxx |           64 |           64 |           64 |xxxxxxxxxxxxx |xxxxxxxxxxxxx |xxxxxxxxxxxxx |xxxxxxxxxxxxx |           64 |           64 |           64 |xxxxxxxxxxxxx |xxxxxxxxxxxxx |xxxxxxxxxxxxx |xxxxxxxxxxxxx |           64 |           64 |           64 |xxxxxxxxxxxxx |xxxxxxxxxxxxx |xxxxxxxxxxxxx |xxxxxxxxxxxxx |           64 |           64 |           64 |xxxxxxxxxxxxx |xxxxxxxxxxxxx |xxxxxxxxxxxxx |xxxxxxxxxxxxx |           64 |           64 |           64 |xxxxxxxxxxxxx |xxxxxxxxxxxxx |xxxxxxxxxxxxx |xxxxxxxxxxxxx |           64 |           64 |           64 |xxxxxxxxxxxxx |xxxxxxxxxxxxx |xxxxxxxxxxxxx |xxxxxxxxxxxxx |           64 |           64 |           64 |xxxxxxxxxxxxx |xxxxxxxxxxxxx |xxxxxxxxxxxxx |xxxxxxxxxxxxx |           64 |           64 |           64 |xxxxxxxxxxxxx |xxxxxxxxxxxxx |xxxxxxxxxxxxx |xxxxxxxxxxxxx |           64 |           64 |           64 |xxxxxxxxxxxxx |xxxxxxxxxxxxx |xxxxxxxxxxxxx |xxxxxxxxxxxxx |           64 |           64 |           64 |
bpred_bimod.used_ras.PP                         64 |           64 |           64 |xxxxxxxxxxxxx |xxxxxxxxxxxxx |xxxxxxxxxxxxx |xxxxxxxxxxxxx |           64 |           64 |           64 |xxxxxxxxxxxxx |xxxxxxxxxxxxx |xxxxxxxxxxxxx |xxxxxxxxxxxxx |           64 |           64 |           64 |xxxxxxxxxxxxx |xxxxxxxxxxxxx |xxxxxxxxxxxxx |xxxxxxxxxxxxx |           64 |           64 |           64 |xxxxxxxxxxxxx |xxxxxxxxxxxxx |xxxxxxxxxxxxx |xxxxxxxxxxxxx |           64 |           64 |           64 |xxxxxxxxxxxxx |xxxxxxxxxxxxx |xxxxxxxxxxxxx |xxxxxxxxxxxxx |           64 |           64 |           64 |xxxxxxxxxxxxx |xxxxxxxxxxxxx |xxxxxxxxxxxxx |xxxxxxxxxxxxx |           64 |           64 |           64 |xxxxxxxxxxxxx |xxxxxxxxxxxxx |xxxxxxxxxxxxx |xxxxxxxxxxxxx |           64 |           64 |           64 |xxxxxxxxxxxxx |xxxxxxxxxxxxx |xxxxxxxxxxxxx |xxxxxxxxxxxxx |           64 |           64 |           64 |xxxxxxxxxxxxx |xxxxxxxxxxxxx |xxxxxxxxxxxxx |xxxxxxxxxxxxx |           64 |           64 |           64 |xxxxxxxxxxxxx |xxxxxxxxxxxxx |xxxxxxxxxxxxx |xxxxxxxxxxxxx |           64 |           64 |           64 |
bpred_bimod.ras_hits.PP                         64 |           64 |           64 |xxxxxxxxxxxxx |xxxxxxxxxxxxx |xxxxxxxxxxxxx |xxxxxxxxxxxxx |           64 |           64 |           64 |xxxxxxxxxxxxx |xxxxxxxxxxxxx |xxxxxxxxxxxxx |xxxxxxxxxxxxx |           64 |           64 |           64 |xxxxxxxxxxxxx |xxxxxxxxxxxxx |xxxxxxxxxxxxx |xxxxxxxxxxxxx |           64 |           64 |           64 |xxxxxxxxxxxxx |xxxxxxxxxxxxx |xxxxxxxxxxxxx |xxxxxxxxxxxxx |           64 |           64 |           64 |xxxxxxxxxxxxx |xxxxxxxxxxxxx |xxxxxxxxxxxxx |xxxxxxxxxxxxx |           64 |           64 |           64 |xxxxxxxxxxxxx |xxxxxxxxxxxxx |xxxxxxxxxxxxx |xxxxxxxxxxxxx |           64 |           64 |           64 |xxxxxxxxxxxxx |xxxxxxxxxxxxx |xxxxxxxxxxxxx |xxxxxxxxxxxxx |           64 |           64 |           64 |xxxxxxxxxxxxx |xxxxxxxxxxxxx |xxxxxxxxxxxxx |xxxxxxxxxxxxx |           64 |           64 |           64 |xxxxxxxxxxxxx |xxxxxxxxxxxxx |xxxxxxxxxxxxx |xxxxxxxxxxxxx |           64 |           64 |           64 |xxxxxxxxxxxxx |xxxxxxxxxxxxx |xxxxxxxxxxxxx |xxxxxxxxxxxxx |           64 |           64 |           64 |
bpred_bimod.ras_rate.PP                     1.0000 |       1.0000 |       1.0000 |xxxxxxxxxxxxx |xxxxxxxxxxxxx |xxxxxxxxxxxxx |xxxxxxxxxxxxx |       1.0000 |       1.0000 |       1.0000 |xxxxxxxxxxxxx |xxxxxxxxxxxxx |xxxxxxxxxxxxx |xxxxxxxxxxxxx |       1.0000 |       1.0000 |       1.0000 |xxxxxxxxxxxxx |xxxxxxxxxxxxx |xxxxxxxxxxxxx |xxxxxxxxxxxxx |       1.0000 |       1.0000 |       1.0000 |xxxxxxxxxxxxx |xxxxxxxxxxxxx |xxxxxxxxxxxxx |xxxxxxxxxxxxx |       1.0000 |       1.0000 |       1.0000 |xxxxxxxxxxxxx |xxxxxxxxxxxxx |xxxxxxxxxxxxx |xxxxxxxxxxxxx |       1.0000 |       1.0000 |       1.0000 |xxxxxxxxxxxxx |xxxxxxxxxxxxx |xxxxxxxxxxxxx |xxxxxxxxxxxxx |       1.0000 |       1.0000 |       1.0000 |xxxxxxxxxxxxx |xxxxxxxxxxxxx |xxxxxxxxxxxxx |xxxxxxxxxxxxx |       1.0000 |       1.0000 |       1.0000 |xxxxxxxxxxxxx |xxxxxxxxxxxxx |xxxxxxxxxxxxx |xxxxxxxxxxxxx |       1.0000 |       1.0000 |       1.0000 |xxxxxxxxxxxxx |xxxxxxxxxxxxx |xxxxxxxxxxxxx |xxxxxxxxxxxxx |       1.0000 |       1.0000 |       1.0000 |xxxxxxxxxxxxx |xxxxxxxxxxxxx |xxxxxxxxxxxxx |xxxxxxxxxxxxx |       1.0000 |       1.0000 |       1.0000 |
bpred_2lev.lookups                   xxxxxxxxxxxxx |xxxxxxxxxxxxx |xxxxxxxxxxxxx |        75323 |        75323 |        75323 |        75323 |xxxxxxxxxxxxx |xxxxxxxxxxxxx |xxxxxxxxxxxxx |       166591 |       166591 |       166591 |       166591 |xxxxxxxxxxxxx |xxxxxxxxxxxxx |xxxxxxxxxxxxx |       353645 |       353645 |       353645 |       353645 |xxxxxxxxxxxxx |xxxxxxxxxxxxx |xxxxxxxxxxxxx |       765359 |       765359 |       765359 |       765359 |xxxxxxxxxxxxx |xxxxxxxxxxxxx |xxxxxxxxxxxxx |      1632893 |      1632893 |      1632893 |      1632893 |xxxxxxxxxxxxx |xxxxxxxxxxxxx |xxxxxxxxxxxxx |      3506728 |      3506728 |      3506728 |      3506728 |xxxxxxxxxxxxx |xxxxxxxxxxxxx |xxxxxxxxxxxxx |      7313135 |      7313135 |      7313135 |      7313135 |xxxxxxxxxxxxx |xxxxxxxxxxxxx |xxxxxxxxxxxxx |     15614916 |     15614916 |     15614916 |     15614916 |xxxxxxxxxxxxx |xxxxxxxxxxxxx |xxxxxxxxxxxxx |     33320801 |     33320801 |     33320801 |     33320801 |xxxxxxxxxxxxx |xxxxxxxxxxxxx |xxxxxxxxxxxxx |     69788090 |     69788090 |     69788090 |     69788090 |xxxxxxxxxxxxx |xxxxxxxxxxxxx |xxxxxxxxxxxxx |    144927023 |    144927023 |    144927023 |    144927023 |
[...]
bpred_2lev.retstack_pushes           xxxxxxxxxxxxx |xxxxxxxxxxxxx |xxxxxxxxxxxxx |           66 |           66 |           66 |           66 |xxxxxxxxxxxxx |xxxxxxxxxxxxx |xxxxxxxxxxxxx |           66 |           66 |           66 |           66 |xxxxxxxxxxxxx |xxxxxxxxxxxxx |xxxxxxxxxxxxx |           66 |           66 |           66 |           66 |xxxxxxxxxxxxx |xxxxxxxxxxxxx |xxxxxxxxxxxxx |           66 |           66 |           66 |           66 |xxxxxxxxxxxxx |xxxxxxxxxxxxx |xxxxxxxxxxxxx |           66 |           66 |           66 |           66 |xxxxxxxxxxxxx |xxxxxxxxxxxxx |xxxxxxxxxxxxx |           66 |           66 |           66 |           66 |xxxxxxxxxxxxx |xxxxxxxxxxxxx |xxxxxxxxxxxxx |           66 |           66 |           66 |           66 |xxxxxxxxxxxxx |xxxxxxxxxxxxx |xxxxxxxxxxxxx |           66 |           66 |           66 |           66 |xxxxxxxxxxxxx |xxxxxxxxxxxxx |xxxxxxxxxxxxx |           66 |           66 |           66 |           66 |xxxxxxxxxxxxx |xxxxxxxxxxxxx |xxxxxxxxxxxxx |           66 |           66 |           66 |           66 |xxxxxxxxxxxxx |xxxxxxxxxxxxx |xxxxxxxxxxxxx |           66 |           66 |           66 |           66 |
bpred_2lev.retstack_pops             xxxxxxxxxxxxx |xxxxxxxxxxxxx |xxxxxxxxxxxxx |           64 |           64 |           64 |           64 |xxxxxxxxxxxxx |xxxxxxxxxxxxx |xxxxxxxxxxxxx |           64 |           64 |           64 |           64 |xxxxxxxxxxxxx |xxxxxxxxxxxxx |xxxxxxxxxxxxx |           64 |           64 |           64 |           64 |xxxxxxxxxxxxx |xxxxxxxxxxxxx |xxxxxxxxxxxxx |           64 |           64 |           64 |           64 |xxxxxxxxxxxxx |xxxxxxxxxxxxx |xxxxxxxxxxxxx |           64 |           64 |           64 |           64 |xxxxxxxxxxxxx |xxxxxxxxxxxxx |xxxxxxxxxxxxx |           64 |           64 |           64 |           64 |xxxxxxxxxxxxx |xxxxxxxxxxxxx |xxxxxxxxxxxxx |           64 |           64 |           64 |           64 |xxxxxxxxxxxxx |xxxxxxxxxxxxx |xxxxxxxxxxxxx |           64 |           64 |           64 |           64 |xxxxxxxxxxxxx |xxxxxxxxxxxxx |xxxxxxxxxxxxx |           64 |           64 |           64 |           64 |xxxxxxxxxxxxx |xxxxxxxxxxxxx |xxxxxxxxxxxxx |           64 |           64 |           64 |           64 |xxxxxxxxxxxxx |xxxxxxxxxxxxx |xxxxxxxxxxxxx |           64 |           64 |           64 |           64 |
bpred_2lev.used_ras.PP               xxxxxxxxxxxxx |xxxxxxxxxxxxx |xxxxxxxxxxxxx |           64 |           64 |           64 |           64 |xxxxxxxxxxxxx |xxxxxxxxxxxxx |xxxxxxxxxxxxx |           64 |           64 |           64 |           64 |xxxxxxxxxxxxx |xxxxxxxxxxxxx |xxxxxxxxxxxxx |           64 |           64 |           64 |           64 |xxxxxxxxxxxxx |xxxxxxxxxxxxx |xxxxxxxxxxxxx |           64 |           64 |           64 |           64 |xxxxxxxxxxxxx |xxxxxxxxxxxxx |xxxxxxxxxxxxx |           64 |           64 |           64 |           64 |xxxxxxxxxxxxx |xxxxxxxxxxxxx |xxxxxxxxxxxxx |           64 |           64 |           64 |           64 |xxxxxxxxxxxxx |xxxxxxxxxxxxx |xxxxxxxxxxxxx |           64 |           64 |           64 |           64 |xxxxxxxxxxxxx |xxxxxxxxxxxxx |xxxxxxxxxxxxx |           64 |           64 |           64 |           64 |xxxxxxxxxxxxx |xxxxxxxxxxxxx |xxxxxxxxxxxxx |           64 |           64 |           64 |           64 |xxxxxxxxxxxxx |xxxxxxxxxxxxx |xxxxxxxxxxxxx |           64 |           64 |           64 |           64 |xxxxxxxxxxxxx |xxxxxxxxxxxxx |xxxxxxxxxxxxx |           64 |           64 |           64 |           64 |
bpred_2lev.ras_hits.PP               xxxxxxxxxxxxx |xxxxxxxxxxxxx |xxxxxxxxxxxxx |           64 |           64 |           64 |           64 |xxxxxxxxxxxxx |xxxxxxxxxxxxx |xxxxxxxxxxxxx |           64 |           64 |           64 |           64 |xxxxxxxxxxxxx |xxxxxxxxxxxxx |xxxxxxxxxxxxx |           64 |           64 |           64 |           64 |xxxxxxxxxxxxx |xxxxxxxxxxxxx |xxxxxxxxxxxxx |           64 |           64 |           64 |           64 |xxxxxxxxxxxxx |xxxxxxxxxxxxx |xxxxxxxxxxxxx |           64 |           64 |           64 |           64 |xxxxxxxxxxxxx |xxxxxxxxxxxxx |xxxxxxxxxxxxx |           64 |           64 |           64 |           64 |xxxxxxxxxxxxx |xxxxxxxxxxxxx |xxxxxxxxxxxxx |           64 |           64 |           64 |           64 |xxxxxxxxxxxxx |xxxxxxxxxxxxx |xxxxxxxxxxxxx |           64 |           64 |           64 |           64 |xxxxxxxxxxxxx |xxxxxxxxxxxxx |xxxxxxxxxxxxx |           64 |           64 |           64 |           64 |xxxxxxxxxxxxx |xxxxxxxxxxxxx |xxxxxxxxxxxxx |           64 |           64 |           64 |           64 |xxxxxxxxxxxxx |xxxxxxxxxxxxx |xxxxxxxxxxxxx |           64 |           64 |           64 |           64 |
bpred_2lev.ras_rate.PP               xxxxxxxxxxxxx |xxxxxxxxxxxxx |xxxxxxxxxxxxx |       1.0000 |       1.0000 |       1.0000 |       1.0000 |xxxxxxxxxxxxx |xxxxxxxxxxxxx |xxxxxxxxxxxxx |       1.0000 |       1.0000 |       1.0000 |       1.0000 |xxxxxxxxxxxxx |xxxxxxxxxxxxx |xxxxxxxxxxxxx |       1.0000 |       1.0000 |       1.0000 |       1.0000 |xxxxxxxxxxxxx |xxxxxxxxxxxxx |xxxxxxxxxxxxx |       1.0000 |       1.0000 |       1.0000 |       1.0000 |xxxxxxxxxxxxx |xxxxxxxxxxxxx |xxxxxxxxxxxxx |       1.0000 |       1.0000 |       1.0000 |       1.0000 |xxxxxxxxxxxxx |xxxxxxxxxxxxx |xxxxxxxxxxxxx |       1.0000 |       1.0000 |       1.0000 |       1.0000 |xxxxxxxxxxxxx |xxxxxxxxxxxxx |xxxxxxxxxxxxx |       1.0000 |       1.0000 |       1.0000 |       1.0000 |xxxxxxxxxxxxx |xxxxxxxxxxxxx |xxxxxxxxxxxxx |       1.0000 |       1.0000 |       1.0000 |       1.0000 |xxxxxxxxxxxxx |xxxxxxxxxxxxx |xxxxxxxxxxxxx |       1.0000 |       1.0000 |       1.0000 |       1.0000 |xxxxxxxxxxxxx |xxxxxxxxxxxxx |xxxxxxxxxxxxx |       1.0000 |       1.0000 |       1.0000 |       1.0000 |xxxxxxxxxxxxx |xxxxxxxxxxxxx |xxxxxxxxxxxxx |       1.0000 |       1.0000 |       1.0000 |       1.0000 |

Command list: 
	sslittle-na-sstrix-gcc -Wall -O3 -funroll-loops -finline-functions  -DRANDOM_SIZE=4096 -DOFFSET=1 -DSORT=base_quicksort5 sorts/base_quicksort5465126268.c simpleMain.c -o base_quicksort51544618221
	sim-cache -cache:dl1 dl1:256:32:1:l -cache:dl2 dl2:131072:32:1:l -cache:il1 il1:256:32:1:l -cache:il2 dl2 base_quicksort51544618221
	sim-cache -cache:dl1 dl1:256:32:1:l -cache:dl2 dl2:65536:32:1:l -cache:il1 il1:256:32:1:l -cache:il2 dl2 base_quicksort51544618221
	sim-cache -cache:dl1 dl1:1:32:256:l -cache:dl2 dl2:1:32:131072:l -cache:il1 il1:1:32:256:l -cache:il2 dl2 base_quicksort51544618221
	sim-cache -cache:dl1 dl1:1:32:256:l -cache:dl2 dl2:1:32:65536:l -cache:il1 il1:1:32:256:l -cache:il2 dl2 base_quicksort51544618221
	sim-bpred -bpred bimod -bpred:bimod 512 base_quicksort51544618221
	sim-bpred -bpred bimod -bpred:bimod 1024 base_quicksort51544618221
	sim-bpred -bpred bimod -bpred:bimod 2048 base_quicksort51544618221
	sim-bpred -bpred 2lev -bpred:2lev 1 512 10 1 base_quicksort51544618221
	sim-bpred -bpred 2lev -bpred:2lev 1 1024 10 1 base_quicksort51544618221
	sim-bpred -bpred 2lev -bpred:2lev 1 2048 10 1 base_quicksort51544618221
	sim-bpred -bpred 2lev -bpred:2lev 1 4096 10 1 base_quicksort51544618221
	sslittle-na-sstrix-gcc -Wall -O3 -funroll-loops -finline-functions  -DRANDOM_SIZE=8192 -DOFFSET=1 -DSORT=base_quicksort5 sorts/base_quicksort5465126268.c simpleMain.c -o base_quicksort51544618221
	sim-cache -cache:dl1 dl1:256:32:1:l -cache:dl2 dl2:131072:32:1:l -cache:il1 il1:256:32:1:l -cache:il2 dl2 base_quicksort51544618221
	sim-cache -cache:dl1 dl1:256:32:1:l -cache:dl2 dl2:65536:32:1:l -cache:il1 il1:256:32:1:l -cache:il2 dl2 base_quicksort51544618221
	sim-cache -cache:dl1 dl1:1:32:256:l -cache:dl2 dl2:1:32:131072:l -cache:il1 il1:1:32:256:l -cache:il2 dl2 base_quicksort51544618221
	sim-cache -cache:dl1 dl1:1:32:256:l -cache:dl2 dl2:1:32:65536:l -cache:il1 il1:1:32:256:l -cache:il2 dl2 base_quicksort51544618221
	sim-bpred -bpred bimod -bpred:bimod 512 base_quicksort51544618221
	sim-bpred -bpred bimod -bpred:bimod 1024 base_quicksort51544618221
	sim-bpred -bpred bimod -bpred:bimod 2048 base_quicksort51544618221
	sim-bpred -bpred 2lev -bpred:2lev 1 512 10 1 base_quicksort51544618221
	sim-bpred -bpred 2lev -bpred:2lev 1 1024 10 1 base_quicksort51544618221
	sim-bpred -bpred 2lev -bpred:2lev 1 2048 10 1 base_quicksort51544618221
	sim-bpred -bpred 2lev -bpred:2lev 1 4096 10 1 base_quicksort51544618221
	sslittle-na-sstrix-gcc -Wall -O3 -funroll-loops -finline-functions  -DRANDOM_SIZE=16384 -DOFFSET=1 -DSORT=base_quicksort5 sorts/base_quicksort5465126268.c simpleMain.c -o base_quicksort51544618221
	sim-cache -cache:dl1 dl1:256:32:1:l -cache:dl2 dl2:131072:32:1:l -cache:il1 il1:256:32:1:l -cache:il2 dl2 base_quicksort51544618221
	sim-cache -cache:dl1 dl1:256:32:1:l -cache:dl2 dl2:65536:32:1:l -cache:il1 il1:256:32:1:l -cache:il2 dl2 base_quicksort51544618221
	sim-cache -cache:dl1 dl1:1:32:256:l -cache:dl2 dl2:1:32:131072:l -cache:il1 il1:1:32:256:l -cache:il2 dl2 base_quicksort51544618221
	sim-cache -cache:dl1 dl1:1:32:256:l -cache:dl2 dl2:1:32:65536:l -cache:il1 il1:1:32:256:l -cache:il2 dl2 base_quicksort51544618221
	sim-bpred -bpred bimod -bpred:bimod 512 base_quicksort51544618221
	sim-bpred -bpred bimod -bpred:bimod 1024 base_quicksort51544618221
	sim-bpred -bpred bimod -bpred:bimod 2048 base_quicksort51544618221
	sim-bpred -bpred 2lev -bpred:2lev 1 512 10 1 base_quicksort51544618221
	sim-bpred -bpred 2lev -bpred:2lev 1 1024 10 1 base_quicksort51544618221
	sim-bpred -bpred 2lev -bpred:2lev 1 2048 10 1 base_quicksort51544618221
	sim-bpred -bpred 2lev -bpred:2lev 1 4096 10 1 base_quicksort51544618221
	sslittle-na-sstrix-gcc -Wall -O3 -funroll-loops -finline-functions  -DRANDOM_SIZE=32768 -DOFFSET=1 -DSORT=base_quicksort5 sorts/base_quicksort5465126268.c simpleMain.c -o base_quicksort51544618221
	sim-cache -cache:dl1 dl1:256:32:1:l -cache:dl2 dl2:131072:32:1:l -cache:il1 il1:256:32:1:l -cache:il2 dl2 base_quicksort51544618221
	sim-cache -cache:dl1 dl1:256:32:1:l -cache:dl2 dl2:65536:32:1:l -cache:il1 il1:256:32:1:l -cache:il2 dl2 base_quicksort51544618221
	sim-cache -cache:dl1 dl1:1:32:256:l -cache:dl2 dl2:1:32:131072:l -cache:il1 il1:1:32:256:l -cache:il2 dl2 base_quicksort51544618221
	sim-cache -cache:dl1 dl1:1:32:256:l -cache:dl2 dl2:1:32:65536:l -cache:il1 il1:1:32:256:l -cache:il2 dl2 base_quicksort51544618221
	sim-bpred -bpred bimod -bpred:bimod 512 base_quicksort51544618221
	sim-bpred -bpred bimod -bpred:bimod 1024 base_quicksort51544618221
	sim-bpred -bpred bimod -bpred:bimod 2048 base_quicksort51544618221
	sim-bpred -bpred 2lev -bpred:2lev 1 512 10 1 base_quicksort51544618221
	sim-bpred -bpred 2lev -bpred:2lev 1 1024 10 1 base_quicksort51544618221
	sim-bpred -bpred 2lev -bpred:2lev 1 2048 10 1 base_quicksort51544618221
	sim-bpred -bpred 2lev -bpred:2lev 1 4096 10 1 base_quicksort51544618221
	sslittle-na-sstrix-gcc -Wall -O3 -funroll-loops -finline-functions  -DRANDOM_SIZE=65536 -DOFFSET=1 -DSORT=base_quicksort5 sorts/base_quicksort5465126268.c simpleMain.c -o base_quicksort51544618221
	sim-cache -cache:dl1 dl1:256:32:1:l -cache:dl2 dl2:131072:32:1:l -cache:il1 il1:256:32:1:l -cache:il2 dl2 base_quicksort51544618221
	sim-cache -cache:dl1 dl1:256:32:1:l -cache:dl2 dl2:65536:32:1:l -cache:il1 il1:256:32:1:l -cache:il2 dl2 base_quicksort51544618221
	sim-cache -cache:dl1 dl1:1:32:256:l -cache:dl2 dl2:1:32:131072:l -cache:il1 il1:1:32:256:l -cache:il2 dl2 base_quicksort51544618221
	sim-cache -cache:dl1 dl1:1:32:256:l -cache:dl2 dl2:1:32:65536:l -cache:il1 il1:1:32:256:l -cache:il2 dl2 base_quicksort51544618221
	sim-bpred -bpred bimod -bpred:bimod 512 base_quicksort51544618221
	sim-bpred -bpred bimod -bpred:bimod 1024 base_quicksort51544618221
	sim-bpred -bpred bimod -bpred:bimod 2048 base_quicksort51544618221
	sim-bpred -bpred 2lev -bpred:2lev 1 512 10 1 base_quicksort51544618221
	sim-bpred -bpred 2lev -bpred:2lev 1 1024 10 1 base_quicksort51544618221
	sim-bpred -bpred 2lev -bpred:2lev 1 2048 10 1 base_quicksort51544618221
	sim-bpred -bpred 2lev -bpred:2lev 1 4096 10 1 base_quicksort51544618221
	sslittle-na-sstrix-gcc -Wall -O3 -funroll-loops -finline-functions  -DRANDOM_SIZE=131072 -DOFFSET=1 -DSORT=base_quicksort5 sorts/base_quicksort5465126268.c simpleMain.c -o base_quicksort51544618221
	sim-cache -cache:dl1 dl1:256:32:1:l -cache:dl2 dl2:131072:32:1:l -cache:il1 il1:256:32:1:l -cache:il2 dl2 base_quicksort51544618221
	sim-cache -cache:dl1 dl1:256:32:1:l -cache:dl2 dl2:65536:32:1:l -cache:il1 il1:256:32:1:l -cache:il2 dl2 base_quicksort51544618221
	sim-cache -cache:dl1 dl1:1:32:256:l -cache:dl2 dl2:1:32:131072:l -cache:il1 il1:1:32:256:l -cache:il2 dl2 base_quicksort51544618221
	sim-cache -cache:dl1 dl1:1:32:256:l -cache:dl2 dl2:1:32:65536:l -cache:il1 il1:1:32:256:l -cache:il2 dl2 base_quicksort51544618221
	sim-bpred -bpred bimod -bpred:bimod 512 base_quicksort51544618221
	sim-bpred -bpred bimod -bpred:bimod 1024 base_quicksort51544618221
	sim-bpred -bpred bimod -bpred:bimod 2048 base_quicksort51544618221
	sim-bpred -bpred 2lev -bpred:2lev 1 512 10 1 base_quicksort51544618221
	sim-bpred -bpred 2lev -bpred:2lev 1 1024 10 1 base_quicksort51544618221
	sim-bpred -bpred 2lev -bpred:2lev 1 2048 10 1 base_quicksort51544618221
	sim-bpred -bpred 2lev -bpred:2lev 1 4096 10 1 base_quicksort51544618221
	sslittle-na-sstrix-gcc -Wall -O3 -funroll-loops -finline-functions  -DRANDOM_SIZE=262144 -DOFFSET=1 -DSORT=base_quicksort5 sorts/base_quicksort5465126268.c simpleMain.c -o base_quicksort51544618221
	sim-cache -cache:dl1 dl1:256:32:1:l -cache:dl2 dl2:131072:32:1:l -cache:il1 il1:256:32:1:l -cache:il2 dl2 base_quicksort51544618221
	sim-cache -cache:dl1 dl1:256:32:1:l -cache:dl2 dl2:65536:32:1:l -cache:il1 il1:256:32:1:l -cache:il2 dl2 base_quicksort51544618221
	sim-cache -cache:dl1 dl1:1:32:256:l -cache:dl2 dl2:1:32:131072:l -cache:il1 il1:1:32:256:l -cache:il2 dl2 base_quicksort51544618221
	sim-cache -cache:dl1 dl1:1:32:256:l -cache:dl2 dl2:1:32:65536:l -cache:il1 il1:1:32:256:l -cache:il2 dl2 base_quicksort51544618221
	sim-bpred -bpred bimod -bpred:bimod 512 base_quicksort51544618221
	sim-bpred -bpred bimod -bpred:bimod 1024 base_quicksort51544618221
	sim-bpred -bpred bimod -bpred:bimod 2048 base_quicksort51544618221
	sim-bpred -bpred 2lev -bpred:2lev 1 512 10 1 base_quicksort51544618221
	sim-bpred -bpred 2lev -bpred:2lev 1 1024 10 1 base_quicksort51544618221
	sim-bpred -bpred 2lev -bpred:2lev 1 2048 10 1 base_quicksort51544618221
	sim-bpred -bpred 2lev -bpred:2lev 1 4096 10 1 base_quicksort51544618221
	sslittle-na-sstrix-gcc -Wall -O3 -funroll-loops -finline-functions  -DRANDOM_SIZE=524288 -DOFFSET=1 -DSORT=base_quicksort5 sorts/base_quicksort5465126268.c simpleMain.c -o base_quicksort51544618221
	sim-cache -cache:dl1 dl1:256:32:1:l -cache:dl2 dl2:131072:32:1:l -cache:il1 il1:256:32:1:l -cache:il2 dl2 base_quicksort51544618221
	sim-cache -cache:dl1 dl1:256:32:1:l -cache:dl2 dl2:65536:32:1:l -cache:il1 il1:256:32:1:l -cache:il2 dl2 base_quicksort51544618221
	sim-cache -cache:dl1 dl1:1:32:256:l -cache:dl2 dl2:1:32:131072:l -cache:il1 il1:1:32:256:l -cache:il2 dl2 base_quicksort51544618221
	sim-cache -cache:dl1 dl1:1:32:256:l -cache:dl2 dl2:1:32:65536:l -cache:il1 il1:1:32:256:l -cache:il2 dl2 base_quicksort51544618221
	sim-bpred -bpred bimod -bpred:bimod 512 base_quicksort51544618221
	sim-bpred -bpred bimod -bpred:bimod 1024 base_quicksort51544618221
	sim-bpred -bpred bimod -bpred:bimod 2048 base_quicksort51544618221
	sim-bpred -bpred 2lev -bpred:2lev 1 512 10 1 base_quicksort51544618221
	sim-bpred -bpred 2lev -bpred:2lev 1 1024 10 1 base_quicksort51544618221
	sim-bpred -bpred 2lev -bpred:2lev 1 2048 10 1 base_quicksort51544618221
	sim-bpred -bpred 2lev -bpred:2lev 1 4096 10 1 base_quicksort51544618221
	sslittle-na-sstrix-gcc -Wall -O3 -funroll-loops -finline-functions  -DRANDOM_SIZE=1048576 -DOFFSET=1 -DSORT=base_quicksort5 sorts/base_quicksort5465126268.c simpleMain.c -o base_quicksort51544618221
	sim-cache -cache:dl1 dl1:256:32:1:l -cache:dl2 dl2:131072:32:1:l -cache:il1 il1:256:32:1:l -cache:il2 dl2 base_quicksort51544618221
	sim-cache -cache:dl1 dl1:256:32:1:l -cache:dl2 dl2:65536:32:1:l -cache:il1 il1:256:32:1:l -cache:il2 dl2 base_quicksort51544618221
	sim-cache -cache:dl1 dl1:1:32:256:l -cache:dl2 dl2:1:32:131072:l -cache:il1 il1:1:32:256:l -cache:il2 dl2 base_quicksort51544618221
	sim-cache -cache:dl1 dl1:1:32:256:l -cache:dl2 dl2:1:32:65536:l -cache:il1 il1:1:32:256:l -cache:il2 dl2 base_quicksort51544618221
	sim-bpred -bpred bimod -bpred:bimod 512 base_quicksort51544618221
	sim-bpred -bpred bimod -bpred:bimod 1024 base_quicksort51544618221
	sim-bpred -bpred bimod -bpred:bimod 2048 base_quicksort51544618221
	sim-bpred -bpred 2lev -bpred:2lev 1 512 10 1 base_quicksort51544618221
	sim-bpred -bpred 2lev -bpred:2lev 1 1024 10 1 base_quicksort51544618221
	sim-bpred -bpred 2lev -bpred:2lev 1 2048 10 1 base_quicksort51544618221
	sim-bpred -bpred 2lev -bpred:2lev 1 4096 10 1 base_quicksort51544618221
	sslittle-na-sstrix-gcc -Wall -O3 -funroll-loops -finline-functions  -DRANDOM_SIZE=2097152 -DOFFSET=1 -DSORT=base_quicksort5 sorts/base_quicksort5465126268.c simpleMain.c -o base_quicksort51544618221
	sim-cache -cache:dl1 dl1:256:32:1:l -cache:dl2 dl2:131072:32:1:l -cache:il1 il1:256:32:1:l -cache:il2 dl2 base_quicksort51544618221
	sim-cache -cache:dl1 dl1:256:32:1:l -cache:dl2 dl2:65536:32:1:l -cache:il1 il1:256:32:1:l -cache:il2 dl2 base_quicksort51544618221
	sim-cache -cache:dl1 dl1:1:32:256:l -cache:dl2 dl2:1:32:131072:l -cache:il1 il1:1:32:256:l -cache:il2 dl2 base_quicksort51544618221
	sim-cache -cache:dl1 dl1:1:32:256:l -cache:dl2 dl2:1:32:65536:l -cache:il1 il1:1:32:256:l -cache:il2 dl2 base_quicksort51544618221
	sim-bpred -bpred bimod -bpred:bimod 512 base_quicksort51544618221
	sim-bpred -bpred bimod -bpred:bimod 1024 base_quicksort51544618221
	sim-bpred -bpred bimod -bpred:bimod 2048 base_quicksort51544618221
	sim-bpred -bpred 2lev -bpred:2lev 1 512 10 1 base_quicksort51544618221
	sim-bpred -bpred 2lev -bpred:2lev 1 1024 10 1 base_quicksort51544618221
	sim-bpred -bpred 2lev -bpred:2lev 1 2048 10 1 base_quicksort51544618221
	sim-bpred -bpred 2lev -bpred:2lev 1 4096 10 1 base_quicksort51544618221
	sslittle-na-sstrix-gcc -Wall -O3 -funroll-loops -finline-functions  -DRANDOM_SIZE=4194304 -DOFFSET=1 -DSORT=base_quicksort5 sorts/base_quicksort5465126268.c simpleMain.c -o base_quicksort51544618221
	sim-cache -cache:dl1 dl1:256:32:1:l -cache:dl2 dl2:131072:32:1:l -cache:il1 il1:256:32:1:l -cache:il2 dl2 base_quicksort51544618221
	sim-cache -cache:dl1 dl1:256:32:1:l -cache:dl2 dl2:65536:32:1:l -cache:il1 il1:256:32:1:l -cache:il2 dl2 base_quicksort51544618221
	sim-cache -cache:dl1 dl1:1:32:256:l -cache:dl2 dl2:1:32:131072:l -cache:il1 il1:1:32:256:l -cache:il2 dl2 base_quicksort51544618221
	sim-cache -cache:dl1 dl1:1:32:256:l -cache:dl2 dl2:1:32:65536:l -cache:il1 il1:1:32:256:l -cache:il2 dl2 base_quicksort51544618221
	sim-bpred -bpred bimod -bpred:bimod 512 base_quicksort51544618221
	sim-bpred -bpred bimod -bpred:bimod 1024 base_quicksort51544618221
	sim-bpred -bpred bimod -bpred:bimod 2048 base_quicksort51544618221
	sim-bpred -bpred 2lev -bpred:2lev 1 512 10 1 base_quicksort51544618221
	sim-bpred -bpred 2lev -bpred:2lev 1 1024 10 1 base_quicksort51544618221
	sim-bpred -bpred 2lev -bpred:2lev 1 2048 10 1 base_quicksort51544618221
	sim-bpred -bpred 2lev -bpred:2lev 1 4096 10 1 base_quicksort51544618221
