Thu Jul  7 05:48:47 2005
Run as: "./do_simple -c random.org4 -o 4 base_quicksort7"
-------------------------------------------------------------------------------------------------
sim-cache                                     4096 |         4096 |         4096 |         4096 |         8192 |         8192 |         8192 |         8192 |        16384 |        16384 |        16384 |        16384 |        32768 |        32768 |        32768 |        32768 |        65536 |        65536 |        65536 |        65536 |       131072 |       131072 |       131072 |       131072 |       262144 |       262144 |       262144 |       262144 |       524288 |       524288 |       524288 |       524288 |      1048576 |      1048576 |      1048576 |      1048576 |      2097152 |      2097152 |      2097152 |      2097152 |      4194304 |      4194304 |      4194304 |      4194304 |
-cache:dl1 dl1:256:32:1:l -cache:dl2 dl2:131072:32:1:l -cache:il1 il1:256:32:1:l -cache:il2 dl2
-cache:dl1 dl1:256:32:1:l -cache:dl2 dl2:65536:32:1:l -cache:il1 il1:256:32:1:l -cache:il2 dl2
-cache:dl1 dl1:1:32:256:l -cache:dl2 dl2:1:32:131072:l -cache:il1 il1:1:32:256:l -cache:il2 dl2
-cache:dl1 dl1:1:32:256:l -cache:dl2 dl2:1:32:65536:l -cache:il1 il1:1:32:256:l -cache:il2 dl2
-------------------------------------------------------------------------------------------------
sim_num_insn                                477132 |       477132 |       477132 |       477132 |      1025320 |      1025320 |      1025320 |      1025320 |      2177602 |      2177602 |      2177602 |      2177602 |      4656972 |      4656972 |      4656972 |      4656972 |      9860049 |      9860049 |      9860049 |      9860049 |     20888360 |     20888360 |     20888360 |     20888360 |     44035053 |     44035053 |     44035053 |     44035053 |     93070066 |     93070066 |     93070066 |     93070066 |    194511199 |    194511199 |    194511199 |    194511199 |    404336988 |    404336988 |    404336988 |    404336988 |    862287276 |    862287276 |    862287276 |    862287276 |
sim_num_refs                                126962 |       126962 |       126962 |       126962 |       266339 |       266339 |       266339 |       266339 |       561433 |       561433 |       561433 |       561433 |      1189628 |      1189628 |      1189628 |      1189628 |      2505032 |      2505032 |      2505032 |      2505032 |      5277974 |      5277974 |      5277974 |      5277974 |     11101738 |     11101738 |     11101738 |     11101738 |     23306359 |     23306359 |     23306359 |     23306359 |     48693421 |     48693421 |     48693421 |     48693421 |    101363865 |    101363865 |    101363865 |    101363865 |    213670107 |    213670107 |    213670107 |    213670107 |
sim_elapsed_time                                 1 |            1 |            7 |            4 |            1 |            1 |           10 |            5 |            1 |            1 |           16 |            8 |            1 |            1 |           27 |           14 |            3 |            3 |           49 |           25 |            6 |            6 |           91 |           46 |           12 |           13 |          167 |           79 |           26 |           25 |          289 |          113 |           53 |           54 |          401 |          142 |          112 |          111 |          463 |          203 |          237 |          238 |          598 |          338 |
sim_inst_rate                          477132.0000 |  477132.0000 |   68161.7143 |  119283.0000 | 1025320.0000 | 1025320.0000 |  102532.0000 |  205064.0000 | 2177602.0000 | 2177602.0000 |  136100.1250 |  272200.2500 | 4656972.0000 | 4656972.0000 |  172480.4444 |  332640.8571 | 3286683.0000 | 3286683.0000 |  201225.4898 |  394401.9600 | 3481393.3333 | 3481393.3333 |  229542.4176 |  454094.7826 | 3669587.7500 | 3387311.7692 |  263682.9521 |  557405.7342 | 3579617.9231 | 3722802.6400 |  322041.7509 |  823628.9027 | 3670022.6226 | 3602059.2407 |  485065.3342 | 1369797.1761 | 3610151.6786 | 3642675.5676 |  873298.0302 | 1991807.8227 | 3638342.9367 | 3623055.7815 | 1441951.9666 | 2551145.7870 |
il1.accesses                                477132 |       477132 |       477132 |       477132 |      1025320 |      1025320 |      1025320 |      1025320 |      2177602 |      2177602 |      2177602 |      2177602 |      4656972 |      4656972 |      4656972 |      4656972 |      9860049 |      9860049 |      9860049 |      9860049 |     20888360 |     20888360 |     20888360 |     20888360 |     44035053 |     44035053 |     44035053 |     44035053 |     93070066 |     93070066 |     93070066 |     93070066 |    194511199 |    194511199 |    194511199 |    194511199 |    404336988 |    404336988 |    404336988 |    404336988 |    862287276 |    862287276 |    862287276 |    862287276 |
il1.hits                                    476664 |       476664 |       476693 |       476693 |      1024851 |      1024851 |      1024879 |      1024879 |      2177121 |      2177121 |      2177157 |      2177157 |      4656502 |      4656502 |      4656530 |      4656530 |      9859579 |      9859579 |      9859607 |      9859607 |     20887891 |     20887891 |     20887919 |     20887919 |     44034584 |     44034584 |     44034612 |     44034612 |     93069597 |     93069597 |     93069625 |     93069625 |    194510730 |    194510730 |    194510758 |    194510758 |    404336519 |    404336519 |    404336547 |    404336547 |    862286807 |    862286807 |    862286835 |    862286835 |
il1.misses                                     468 |          468 |          439 |          439 |          469 |          469 |          441 |          441 |          481 |          481 |          445 |          445 |          470 |          470 |          442 |          442 |          470 |          470 |          442 |          442 |          469 |          469 |          441 |          441 |          469 |          469 |          441 |          441 |          469 |          469 |          441 |          441 |          469 |          469 |          441 |          441 |          469 |          469 |          441 |          441 |          469 |          469 |          441 |          441 |
il1.replacements                               226 |          226 |          183 |          183 |          227 |          227 |          185 |          185 |          241 |          241 |          189 |          189 |          229 |          229 |          186 |          186 |          229 |          229 |          186 |          186 |          229 |          229 |          185 |          185 |          229 |          229 |          185 |          185 |          229 |          229 |          185 |          185 |          229 |          229 |          185 |          185 |          229 |          229 |          185 |          185 |          229 |          229 |          185 |          185 |
il1.writebacks                                   0 |            0 |            0 |            0 |            0 |            0 |            0 |            0 |            0 |            0 |            0 |            0 |            0 |            0 |            0 |            0 |            0 |            0 |            0 |            0 |            0 |            0 |            0 |            0 |            0 |            0 |            0 |            0 |            0 |            0 |            0 |            0 |            0 |            0 |            0 |            0 |            0 |            0 |            0 |            0 |            0 |            0 |            0 |            0 |
il1.invalidations                                0 |            0 |            0 |            0 |            0 |            0 |            0 |            0 |            0 |            0 |            0 |            0 |            0 |            0 |            0 |            0 |            0 |            0 |            0 |            0 |            0 |            0 |            0 |            0 |            0 |            0 |            0 |            0 |            0 |            0 |            0 |            0 |            0 |            0 |            0 |            0 |            0 |            0 |            0 |            0 |            0 |            0 |            0 |            0 |
il1.miss_rate                               0.0010 |       0.0010 |       0.0009 |       0.0009 |       0.0005 |       0.0005 |       0.0004 |       0.0004 |       0.0002 |       0.0002 |       0.0002 |       0.0002 |       0.0001 |       0.0001 |       0.0001 |       0.0001 |       0.0000 |       0.0000 |       0.0000 |       0.0000 |       0.0000 |       0.0000 |       0.0000 |       0.0000 |       0.0000 |       0.0000 |       0.0000 |       0.0000 |       0.0000 |       0.0000 |       0.0000 |       0.0000 |       0.0000 |       0.0000 |       0.0000 |       0.0000 |       0.0000 |       0.0000 |       0.0000 |       0.0000 |       0.0000 |       0.0000 |       0.0000 |       0.0000 |
il1.repl_rate                               0.0005 |       0.0005 |       0.0004 |       0.0004 |       0.0002 |       0.0002 |       0.0002 |       0.0002 |       0.0001 |       0.0001 |       0.0001 |       0.0001 |       0.0000 |       0.0000 |       0.0000 |       0.0000 |       0.0000 |       0.0000 |       0.0000 |       0.0000 |       0.0000 |       0.0000 |       0.0000 |       0.0000 |       0.0000 |       0.0000 |       0.0000 |       0.0000 |       0.0000 |       0.0000 |       0.0000 |       0.0000 |       0.0000 |       0.0000 |       0.0000 |       0.0000 |       0.0000 |       0.0000 |       0.0000 |       0.0000 |       0.0000 |       0.0000 |       0.0000 |       0.0000 |
il1.wb_rate                                 0.0000 |       0.0000 |       0.0000 |       0.0000 |       0.0000 |       0.0000 |       0.0000 |       0.0000 |       0.0000 |       0.0000 |       0.0000 |       0.0000 |       0.0000 |       0.0000 |       0.0000 |       0.0000 |       0.0000 |       0.0000 |       0.0000 |       0.0000 |       0.0000 |       0.0000 |       0.0000 |       0.0000 |       0.0000 |       0.0000 |       0.0000 |       0.0000 |       0.0000 |       0.0000 |       0.0000 |       0.0000 |       0.0000 |       0.0000 |       0.0000 |       0.0000 |       0.0000 |       0.0000 |       0.0000 |       0.0000 |       0.0000 |       0.0000 |       0.0000 |       0.0000 |
il1.inv_rate                                0.0000 |       0.0000 |       0.0000 |       0.0000 |       0.0000 |       0.0000 |       0.0000 |       0.0000 |       0.0000 |       0.0000 |       0.0000 |       0.0000 |       0.0000 |       0.0000 |       0.0000 |       0.0000 |       0.0000 |       0.0000 |       0.0000 |       0.0000 |       0.0000 |       0.0000 |       0.0000 |       0.0000 |       0.0000 |       0.0000 |       0.0000 |       0.0000 |       0.0000 |       0.0000 |       0.0000 |       0.0000 |       0.0000 |       0.0000 |       0.0000 |       0.0000 |       0.0000 |       0.0000 |       0.0000 |       0.0000 |       0.0000 |       0.0000 |       0.0000 |       0.0000 |
dl1.accesses                                143428 |       143428 |       143428 |       143428 |       299189 |       299189 |       299189 |       299189 |       627051 |       627051 |       627051 |       627051 |      1320782 |      1320782 |      1320782 |      1320782 |      2767258 |      2767258 |      2767258 |      2767258 |      5802344 |      5802344 |      5802344 |      5802344 |     12150396 |     12150396 |     12150396 |     12150396 |     25403593 |     25403593 |     25403593 |     25403593 |     52887807 |     52887807 |     52887807 |     52887807 |    109752555 |    109752555 |    109752555 |    109752555 |    230447405 |    230447405 |    230447405 |    230447405 |
dl1.hits                                    140889 |       140889 |       140883 |       140883 |       293463 |       293463 |       293246 |       293246 |       613706 |       613706 |       613634 |       613634 |      1289564 |      1289564 |      1289337 |      1289337 |      2696677 |      2696677 |      2696704 |      2696704 |      5642313 |      5642313 |      5643109 |      5643109 |     11795353 |     11795353 |     11797595 |     11797595 |     24609057 |     24609057 |     24614608 |     24614608 |     51174298 |     51174298 |     51190195 |     51190195 |    106088818 |    106088818 |    106131629 |    106131629 |    222149809 |    222149809 |    222248984 |    222248984 |
dl1.misses                                    2539 |         2539 |         2545 |         2545 |         5726 |         5726 |         5943 |         5943 |        13345 |        13345 |        13417 |        13417 |        31218 |        31218 |        31445 |        31445 |        70581 |        70581 |        70554 |        70554 |       160031 |       160031 |       159235 |       159235 |       355043 |       355043 |       352801 |       352801 |       794536 |       794536 |       788985 |       788985 |      1713509 |      1713509 |      1697612 |      1697612 |      3663737 |      3663737 |      3620926 |      3620926 |      8297596 |      8297596 |      8198421 |      8198421 |
dl1.replacements                              2283 |         2283 |         2289 |         2289 |         5470 |         5470 |         5687 |         5687 |        13089 |        13089 |        13161 |        13161 |        30962 |        30962 |        31189 |        31189 |        70325 |        70325 |        70298 |        70298 |       159775 |       159775 |       158979 |       158979 |       354787 |       354787 |       352545 |       352545 |       794280 |       794280 |       788729 |       788729 |      1713253 |      1713253 |      1697356 |      1697356 |      3663481 |      3663481 |      3620670 |      3620670 |      8297340 |      8297340 |      8198165 |      8198165 |
dl1.writebacks                                2238 |         2238 |         2261 |         2261 |         5352 |         5352 |         5596 |         5596 |        12693 |        12693 |        12867 |        12867 |        29723 |        29723 |        30159 |        30159 |        67900 |        67900 |        68481 |        68481 |       153633 |       153633 |       154385 |       154385 |       339799 |       339799 |       341267 |       341267 |       757526 |       757526 |       760335 |       760335 |      1639718 |      1639718 |      1642390 |      1642390 |      3524379 |      3524379 |      3523111 |      3523111 |      7769542 |      7769542 |      7762894 |      7762894 |
dl1.invalidations                                0 |            0 |            0 |            0 |            0 |            0 |            0 |            0 |            0 |            0 |            0 |            0 |            0 |            0 |            0 |            0 |            0 |            0 |            0 |            0 |            0 |            0 |            0 |            0 |            0 |            0 |            0 |            0 |            0 |            0 |            0 |            0 |            0 |            0 |            0 |            0 |            0 |            0 |            0 |            0 |            0 |            0 |            0 |            0 |
dl1.miss_rate                               0.0177 |       0.0177 |       0.0177 |       0.0177 |       0.0191 |       0.0191 |       0.0199 |       0.0199 |       0.0213 |       0.0213 |       0.0214 |       0.0214 |       0.0236 |       0.0236 |       0.0238 |       0.0238 |       0.0255 |       0.0255 |       0.0255 |       0.0255 |       0.0276 |       0.0276 |       0.0274 |       0.0274 |       0.0292 |       0.0292 |       0.0290 |       0.0290 |       0.0313 |       0.0313 |       0.0311 |       0.0311 |       0.0324 |       0.0324 |       0.0321 |       0.0321 |       0.0334 |       0.0334 |       0.0330 |       0.0330 |       0.0360 |       0.0360 |       0.0356 |       0.0356 |
dl1.repl_rate                               0.0159 |       0.0159 |       0.0160 |       0.0160 |       0.0183 |       0.0183 |       0.0190 |       0.0190 |       0.0209 |       0.0209 |       0.0210 |       0.0210 |       0.0234 |       0.0234 |       0.0236 |       0.0236 |       0.0254 |       0.0254 |       0.0254 |       0.0254 |       0.0275 |       0.0275 |       0.0274 |       0.0274 |       0.0292 |       0.0292 |       0.0290 |       0.0290 |       0.0313 |       0.0313 |       0.0310 |       0.0310 |       0.0324 |       0.0324 |       0.0321 |       0.0321 |       0.0334 |       0.0334 |       0.0330 |       0.0330 |       0.0360 |       0.0360 |       0.0356 |       0.0356 |
dl1.wb_rate                                 0.0156 |       0.0156 |       0.0158 |       0.0158 |       0.0179 |       0.0179 |       0.0187 |       0.0187 |       0.0202 |       0.0202 |       0.0205 |       0.0205 |       0.0225 |       0.0225 |       0.0228 |       0.0228 |       0.0245 |       0.0245 |       0.0247 |       0.0247 |       0.0265 |       0.0265 |       0.0266 |       0.0266 |       0.0280 |       0.0280 |       0.0281 |       0.0281 |       0.0298 |       0.0298 |       0.0299 |       0.0299 |       0.0310 |       0.0310 |       0.0311 |       0.0311 |       0.0321 |       0.0321 |       0.0321 |       0.0321 |       0.0337 |       0.0337 |       0.0337 |       0.0337 |
dl1.inv_rate                                0.0000 |       0.0000 |       0.0000 |       0.0000 |       0.0000 |       0.0000 |       0.0000 |       0.0000 |       0.0000 |       0.0000 |       0.0000 |       0.0000 |       0.0000 |       0.0000 |       0.0000 |       0.0000 |       0.0000 |       0.0000 |       0.0000 |       0.0000 |       0.0000 |       0.0000 |       0.0000 |       0.0000 |       0.0000 |       0.0000 |       0.0000 |       0.0000 |       0.0000 |       0.0000 |       0.0000 |       0.0000 |       0.0000 |       0.0000 |       0.0000 |       0.0000 |       0.0000 |       0.0000 |       0.0000 |       0.0000 |       0.0000 |       0.0000 |       0.0000 |       0.0000 |
dl2.accesses                                  5245 |         5245 |         5245 |         5245 |        11547 |        11547 |        11980 |        11980 |        26519 |        26519 |        26729 |        26729 |        61411 |        61411 |        62046 |        62046 |       138951 |       138951 |       139477 |       139477 |       314133 |       314133 |       314061 |       314061 |       695311 |       695311 |       694509 |       694509 |      1552531 |      1552531 |      1549761 |      1549761 |      3353696 |      3353696 |      3340443 |      3340443 |      7188585 |      7188585 |      7144478 |      7144478 |     16067607 |     16067607 |     15961756 |     15961756 |
dl2.hits                                      3859 |         3859 |         3873 |         3873 |         9647 |         9647 |        10094 |        10094 |        23598 |        23598 |        23825 |        23825 |        56445 |        56445 |        57094 |        57094 |       129889 |       129889 |       130429 |       130429 |       296880 |       296880 |       296822 |       296822 |       661674 |       661674 |       660886 |       660886 |      1486126 |      1485347 |      1483370 |      1429915 |      3220948 |      2919117 |      3078390 |      2855827 |      6254221 |      5963448 |      6144082 |      5826346 |     13332453 |     12679174 |     13053784 |     12449862 |
dl2.misses                                    1386 |         1386 |         1372 |         1372 |         1900 |         1900 |         1886 |         1886 |         2921 |         2921 |         2904 |         2904 |         4966 |         4966 |         4952 |         4952 |         9062 |         9062 |         9048 |         9048 |        17253 |        17253 |        17239 |        17239 |        33637 |        33637 |        33623 |        33623 |        66405 |        67184 |        66391 |       119846 |       132748 |       434579 |       262053 |       484616 |       934364 |      1225137 |      1000396 |      1318132 |      2735154 |      3388433 |      2907972 |      3511894 |
dl2.replacements                               171 |          171 |            0 |            0 |          170 |          170 |            0 |            0 |          171 |          171 |            0 |            0 |          169 |          169 |            0 |            0 |          169 |          169 |            0 |            0 |          169 |          169 |            0 |            0 |          169 |          169 |            0 |            0 |          169 |         1648 |            0 |        54310 |         1676 |       369043 |       130981 |       419080 |       803292 |      1159601 |       869324 |      1252596 |      2604082 |      3322897 |      2776900 |      3446358 |
dl2.writebacks                                 104 |          104 |            0 |            0 |          104 |          104 |            0 |            0 |          105 |          105 |            0 |            0 |          104 |          104 |            0 |            0 |          104 |          104 |            0 |            0 |          104 |          104 |            0 |            0 |          104 |          104 |            0 |            0 |          104 |         1321 |            0 |        52399 |         1351 |       366030 |       129216 |       415982 |       802190 |      1155309 |       868026 |      1247361 |      2474450 |      3125917 |      2613348 |      3239295 |
dl2.invalidations                                0 |            0 |            0 |            0 |            0 |            0 |            0 |            0 |            0 |            0 |            0 |            0 |            0 |            0 |            0 |            0 |            0 |            0 |            0 |            0 |            0 |            0 |            0 |            0 |            0 |            0 |            0 |            0 |            0 |            0 |            0 |            0 |            0 |            0 |            0 |            0 |            0 |            0 |            0 |            0 |            0 |            0 |            0 |            0 |
dl2.miss_rate                               0.2643 |       0.2643 |       0.2616 |       0.2616 |       0.1645 |       0.1645 |       0.1574 |       0.1574 |       0.1101 |       0.1101 |       0.1086 |       0.1086 |       0.0809 |       0.0809 |       0.0798 |       0.0798 |       0.0652 |       0.0652 |       0.0649 |       0.0649 |       0.0549 |       0.0549 |       0.0549 |       0.0549 |       0.0484 |       0.0484 |       0.0484 |       0.0484 |       0.0428 |       0.0433 |       0.0428 |       0.0773 |       0.0396 |       0.1296 |       0.0784 |       0.1451 |       0.1300 |       0.1704 |       0.1400 |       0.1845 |       0.1702 |       0.2109 |       0.1822 |       0.2200 |
dl2.repl_rate                               0.0326 |       0.0326 |       0.0000 |       0.0000 |       0.0147 |       0.0147 |       0.0000 |       0.0000 |       0.0064 |       0.0064 |       0.0000 |       0.0000 |       0.0028 |       0.0028 |       0.0000 |       0.0000 |       0.0012 |       0.0012 |       0.0000 |       0.0000 |       0.0005 |       0.0005 |       0.0000 |       0.0000 |       0.0002 |       0.0002 |       0.0000 |       0.0000 |       0.0001 |       0.0011 |       0.0000 |       0.0350 |       0.0005 |       0.1100 |       0.0392 |       0.1255 |       0.1117 |       0.1613 |       0.1217 |       0.1753 |       0.1621 |       0.2068 |       0.1740 |       0.2159 |
dl2.wb_rate                                 0.0198 |       0.0198 |       0.0000 |       0.0000 |       0.0090 |       0.0090 |       0.0000 |       0.0000 |       0.0040 |       0.0040 |       0.0000 |       0.0000 |       0.0017 |       0.0017 |       0.0000 |       0.0000 |       0.0007 |       0.0007 |       0.0000 |       0.0000 |       0.0003 |       0.0003 |       0.0000 |       0.0000 |       0.0001 |       0.0001 |       0.0000 |       0.0000 |       0.0001 |       0.0009 |       0.0000 |       0.0338 |       0.0004 |       0.1091 |       0.0387 |       0.1245 |       0.1116 |       0.1607 |       0.1215 |       0.1746 |       0.1540 |       0.1945 |       0.1637 |       0.2029 |
dl2.inv_rate                                0.0000 |       0.0000 |       0.0000 |       0.0000 |       0.0000 |       0.0000 |       0.0000 |       0.0000 |       0.0000 |       0.0000 |       0.0000 |       0.0000 |       0.0000 |       0.0000 |       0.0000 |       0.0000 |       0.0000 |       0.0000 |       0.0000 |       0.0000 |       0.0000 |       0.0000 |       0.0000 |       0.0000 |       0.0000 |       0.0000 |       0.0000 |       0.0000 |       0.0000 |       0.0000 |       0.0000 |       0.0000 |       0.0000 |       0.0000 |       0.0000 |       0.0000 |       0.0000 |       0.0000 |       0.0000 |       0.0000 |       0.0000 |       0.0000 |       0.0000 |       0.0000 |
itlb.accesses                               477132 |       477132 |       477132 |       477132 |      1025320 |      1025320 |      1025320 |      1025320 |      2177602 |      2177602 |      2177602 |      2177602 |      4656972 |      4656972 |      4656972 |      4656972 |      9860049 |      9860049 |      9860049 |      9860049 |     20888360 |     20888360 |     20888360 |     20888360 |     44035053 |     44035053 |     44035053 |     44035053 |     93070066 |     93070066 |     93070066 |     93070066 |    194511199 |    194511199 |    194511199 |    194511199 |    404336988 |    404336988 |    404336988 |    404336988 |    862287276 |    862287276 |    862287276 |    862287276 |
itlb.hits                                   477122 |       477122 |       477122 |       477122 |      1025310 |      1025310 |      1025310 |      1025310 |      2177592 |      2177592 |      2177592 |      2177592 |      4656962 |      4656962 |      4656962 |      4656962 |      9860039 |      9860039 |      9860039 |      9860039 |     20888350 |     20888350 |     20888350 |     20888350 |     44035043 |     44035043 |     44035043 |     44035043 |     93070056 |     93070056 |     93070056 |     93070056 |    194511189 |    194511189 |    194511189 |    194511189 |    404336978 |    404336978 |    404336978 |    404336978 |    862287266 |    862287266 |    862287266 |    862287266 |
itlb.misses                                     10 |           10 |           10 |           10 |           10 |           10 |           10 |           10 |           10 |           10 |           10 |           10 |           10 |           10 |           10 |           10 |           10 |           10 |           10 |           10 |           10 |           10 |           10 |           10 |           10 |           10 |           10 |           10 |           10 |           10 |           10 |           10 |           10 |           10 |           10 |           10 |           10 |           10 |           10 |           10 |           10 |           10 |           10 |           10 |
itlb.replacements                                0 |            0 |            0 |            0 |            0 |            0 |            0 |            0 |            0 |            0 |            0 |            0 |            0 |            0 |            0 |            0 |            0 |            0 |            0 |            0 |            0 |            0 |            0 |            0 |            0 |            0 |            0 |            0 |            0 |            0 |            0 |            0 |            0 |            0 |            0 |            0 |            0 |            0 |            0 |            0 |            0 |            0 |            0 |            0 |
itlb.writebacks                                  0 |            0 |            0 |            0 |            0 |            0 |            0 |            0 |            0 |            0 |            0 |            0 |            0 |            0 |            0 |            0 |            0 |            0 |            0 |            0 |            0 |            0 |            0 |            0 |            0 |            0 |            0 |            0 |            0 |            0 |            0 |            0 |            0 |            0 |            0 |            0 |            0 |            0 |            0 |            0 |            0 |            0 |            0 |            0 |
itlb.invalidations                               0 |            0 |            0 |            0 |            0 |            0 |            0 |            0 |            0 |            0 |            0 |            0 |            0 |            0 |            0 |            0 |            0 |            0 |            0 |            0 |            0 |            0 |            0 |            0 |            0 |            0 |            0 |            0 |            0 |            0 |            0 |            0 |            0 |            0 |            0 |            0 |            0 |            0 |            0 |            0 |            0 |            0 |            0 |            0 |
itlb.miss_rate                              0.0000 |       0.0000 |       0.0000 |       0.0000 |       0.0000 |       0.0000 |       0.0000 |       0.0000 |       0.0000 |       0.0000 |       0.0000 |       0.0000 |       0.0000 |       0.0000 |       0.0000 |       0.0000 |       0.0000 |       0.0000 |       0.0000 |       0.0000 |       0.0000 |       0.0000 |       0.0000 |       0.0000 |       0.0000 |       0.0000 |       0.0000 |       0.0000 |       0.0000 |       0.0000 |       0.0000 |       0.0000 |       0.0000 |       0.0000 |       0.0000 |       0.0000 |       0.0000 |       0.0000 |       0.0000 |       0.0000 |       0.0000 |       0.0000 |       0.0000 |       0.0000 |
itlb.repl_rate                              0.0000 |       0.0000 |       0.0000 |       0.0000 |       0.0000 |       0.0000 |       0.0000 |       0.0000 |       0.0000 |       0.0000 |       0.0000 |       0.0000 |       0.0000 |       0.0000 |       0.0000 |       0.0000 |       0.0000 |       0.0000 |       0.0000 |       0.0000 |       0.0000 |       0.0000 |       0.0000 |       0.0000 |       0.0000 |       0.0000 |       0.0000 |       0.0000 |       0.0000 |       0.0000 |       0.0000 |       0.0000 |       0.0000 |       0.0000 |       0.0000 |       0.0000 |       0.0000 |       0.0000 |       0.0000 |       0.0000 |       0.0000 |       0.0000 |       0.0000 |       0.0000 |
itlb.wb_rate                                0.0000 |       0.0000 |       0.0000 |       0.0000 |       0.0000 |       0.0000 |       0.0000 |       0.0000 |       0.0000 |       0.0000 |       0.0000 |       0.0000 |       0.0000 |       0.0000 |       0.0000 |       0.0000 |       0.0000 |       0.0000 |       0.0000 |       0.0000 |       0.0000 |       0.0000 |       0.0000 |       0.0000 |       0.0000 |       0.0000 |       0.0000 |       0.0000 |       0.0000 |       0.0000 |       0.0000 |       0.0000 |       0.0000 |       0.0000 |       0.0000 |       0.0000 |       0.0000 |       0.0000 |       0.0000 |       0.0000 |       0.0000 |       0.0000 |       0.0000 |       0.0000 |
itlb.inv_rate                               0.0000 |       0.0000 |       0.0000 |       0.0000 |       0.0000 |       0.0000 |       0.0000 |       0.0000 |       0.0000 |       0.0000 |       0.0000 |       0.0000 |       0.0000 |       0.0000 |       0.0000 |       0.0000 |       0.0000 |       0.0000 |       0.0000 |       0.0000 |       0.0000 |       0.0000 |       0.0000 |       0.0000 |       0.0000 |       0.0000 |       0.0000 |       0.0000 |       0.0000 |       0.0000 |       0.0000 |       0.0000 |       0.0000 |       0.0000 |       0.0000 |       0.0000 |       0.0000 |       0.0000 |       0.0000 |       0.0000 |       0.0000 |       0.0000 |       0.0000 |       0.0000 |
dtlb.accesses                               143428 |       143428 |       143428 |       143428 |       299189 |       299189 |       299189 |       299189 |       627051 |       627051 |       627051 |       627051 |      1320782 |      1320782 |      1320782 |      1320782 |      2767258 |      2767258 |      2767258 |      2767258 |      5802344 |      5802344 |      5802344 |      5802344 |     12150396 |     12150396 |     12150396 |     12150396 |     25403593 |     25403593 |     25403593 |     25403593 |     52887807 |     52887807 |     52887807 |     52887807 |    109752555 |    109752555 |    109752555 |    109752555 |    230447405 |    230447405 |    230447405 |    230447405 |
dtlb.hits                                   143416 |       143416 |       143416 |       143416 |       299173 |       299173 |       299173 |       299173 |       627027 |       627027 |       627027 |       627027 |      1320742 |      1320742 |      1320742 |      1320742 |      2767186 |      2767186 |      2767186 |      2767186 |      5802171 |      5802171 |      5802171 |      5802171 |     12149439 |     12149439 |     12149439 |     12149439 |     25400814 |     25400814 |     25400814 |     25400814 |     52881418 |     52881418 |     52881418 |     52881418 |    109738098 |    109738098 |    109738098 |    109738098 |    230410856 |    230410856 |    230410856 |    230410856 |
dtlb.misses                                     12 |           12 |           12 |           12 |           16 |           16 |           16 |           16 |           24 |           24 |           24 |           24 |           40 |           40 |           40 |           40 |           72 |           72 |           72 |           72 |          173 |          173 |          173 |          173 |          957 |          957 |          957 |          957 |         2779 |         2779 |         2779 |         2779 |         6389 |         6389 |         6389 |         6389 |        14457 |        14457 |        14457 |        14457 |        36549 |        36549 |        36549 |        36549 |
dtlb.replacements                                0 |            0 |            0 |            0 |            0 |            0 |            0 |            0 |            0 |            0 |            0 |            0 |            0 |            0 |            0 |            0 |            0 |            0 |            0 |            0 |           45 |           45 |           45 |           45 |          829 |          829 |          829 |          829 |         2651 |         2651 |         2651 |         2651 |         6261 |         6261 |         6261 |         6261 |        14329 |        14329 |        14329 |        14329 |        36421 |        36421 |        36421 |        36421 |
dtlb.writebacks                                  0 |            0 |            0 |            0 |            0 |            0 |            0 |            0 |            0 |            0 |            0 |            0 |            0 |            0 |            0 |            0 |            0 |            0 |            0 |            0 |           43 |           43 |           43 |           43 |          826 |          826 |          826 |          826 |         2641 |         2641 |         2641 |         2641 |         6247 |         6247 |         6247 |         6247 |        14298 |        14298 |        14298 |        14298 |        36354 |        36354 |        36354 |        36354 |
dtlb.invalidations                               0 |            0 |            0 |            0 |            0 |            0 |            0 |            0 |            0 |            0 |            0 |            0 |            0 |            0 |            0 |            0 |            0 |            0 |            0 |            0 |            0 |            0 |            0 |            0 |            0 |            0 |            0 |            0 |            0 |            0 |            0 |            0 |            0 |            0 |            0 |            0 |            0 |            0 |            0 |            0 |            0 |            0 |            0 |            0 |
dtlb.miss_rate                              0.0001 |       0.0001 |       0.0001 |       0.0001 |       0.0001 |       0.0001 |       0.0001 |       0.0001 |       0.0000 |       0.0000 |       0.0000 |       0.0000 |       0.0000 |       0.0000 |       0.0000 |       0.0000 |       0.0000 |       0.0000 |       0.0000 |       0.0000 |       0.0000 |       0.0000 |       0.0000 |       0.0000 |       0.0001 |       0.0001 |       0.0001 |       0.0001 |       0.0001 |       0.0001 |       0.0001 |       0.0001 |       0.0001 |       0.0001 |       0.0001 |       0.0001 |       0.0001 |       0.0001 |       0.0001 |       0.0001 |       0.0002 |       0.0002 |       0.0002 |       0.0002 |
dtlb.repl_rate                              0.0000 |       0.0000 |       0.0000 |       0.0000 |       0.0000 |       0.0000 |       0.0000 |       0.0000 |       0.0000 |       0.0000 |       0.0000 |       0.0000 |       0.0000 |       0.0000 |       0.0000 |       0.0000 |       0.0000 |       0.0000 |       0.0000 |       0.0000 |       0.0000 |       0.0000 |       0.0000 |       0.0000 |       0.0001 |       0.0001 |       0.0001 |       0.0001 |       0.0001 |       0.0001 |       0.0001 |       0.0001 |       0.0001 |       0.0001 |       0.0001 |       0.0001 |       0.0001 |       0.0001 |       0.0001 |       0.0001 |       0.0002 |       0.0002 |       0.0002 |       0.0002 |
dtlb.wb_rate                                0.0000 |       0.0000 |       0.0000 |       0.0000 |       0.0000 |       0.0000 |       0.0000 |       0.0000 |       0.0000 |       0.0000 |       0.0000 |       0.0000 |       0.0000 |       0.0000 |       0.0000 |       0.0000 |       0.0000 |       0.0000 |       0.0000 |       0.0000 |       0.0000 |       0.0000 |       0.0000 |       0.0000 |       0.0001 |       0.0001 |       0.0001 |       0.0001 |       0.0001 |       0.0001 |       0.0001 |       0.0001 |       0.0001 |       0.0001 |       0.0001 |       0.0001 |       0.0001 |       0.0001 |       0.0001 |       0.0001 |       0.0002 |       0.0002 |       0.0002 |       0.0002 |
dtlb.inv_rate                               0.0000 |       0.0000 |       0.0000 |       0.0000 |       0.0000 |       0.0000 |       0.0000 |       0.0000 |       0.0000 |       0.0000 |       0.0000 |       0.0000 |       0.0000 |       0.0000 |       0.0000 |       0.0000 |       0.0000 |       0.0000 |       0.0000 |       0.0000 |       0.0000 |       0.0000 |       0.0000 |       0.0000 |       0.0000 |       0.0000 |       0.0000 |       0.0000 |       0.0000 |       0.0000 |       0.0000 |       0.0000 |       0.0000 |       0.0000 |       0.0000 |       0.0000 |       0.0000 |       0.0000 |       0.0000 |       0.0000 |       0.0000 |       0.0000 |       0.0000 |       0.0000 |
ld_text_base                            0x00400000 |   0x00400000 |   0x00400000 |   0x00400000 |   0x00400000 |   0x00400000 |   0x00400000 |   0x00400000 |   0x00400000 |   0x00400000 |   0x00400000 |   0x00400000 |   0x00400000 |   0x00400000 |   0x00400000 |   0x00400000 |   0x00400000 |   0x00400000 |   0x00400000 |   0x00400000 |   0x00400000 |   0x00400000 |   0x00400000 |   0x00400000 |   0x00400000 |   0x00400000 |   0x00400000 |   0x00400000 |   0x00400000 |   0x00400000 |   0x00400000 |   0x00400000 |   0x00400000 |   0x00400000 |   0x00400000 |   0x00400000 |   0x00400000 |   0x00400000 |   0x00400000 |   0x00400000 |   0x00400000 |   0x00400000 |   0x00400000 |   0x00400000 |
ld_text_size                                 74064 |        74064 |        74064 |        74064 |        74096 |        74096 |        74096 |        74096 |        74112 |        74112 |        74112 |        74112 |        74128 |        74128 |        74128 |        74128 |        74128 |        74128 |        74128 |        74128 |        74128 |        74128 |        74128 |        74128 |        74128 |        74128 |        74128 |        74128 |        74128 |        74128 |        74128 |        74128 |        74128 |        74128 |        74128 |        74128 |        74128 |        74128 |        74128 |        74128 |        74128 |        74128 |        74128 |        74128 |
ld_data_base                            0x10000000 |   0x10000000 |   0x10000000 |   0x10000000 |   0x10000000 |   0x10000000 |   0x10000000 |   0x10000000 |   0x10000000 |   0x10000000 |   0x10000000 |   0x10000000 |   0x10000000 |   0x10000000 |   0x10000000 |   0x10000000 |   0x10000000 |   0x10000000 |   0x10000000 |   0x10000000 |   0x10000000 |   0x10000000 |   0x10000000 |   0x10000000 |   0x10000000 |   0x10000000 |   0x10000000 |   0x10000000 |   0x10000000 |   0x10000000 |   0x10000000 |   0x10000000 |   0x10000000 |   0x10000000 |   0x10000000 |   0x10000000 |   0x10000000 |   0x10000000 |   0x10000000 |   0x10000000 |   0x10000000 |   0x10000000 |   0x10000000 |   0x10000000 |
ld_data_size                                  8192 |         8192 |         8192 |         8192 |         8192 |         8192 |         8192 |         8192 |         8192 |         8192 |         8192 |         8192 |         8192 |         8192 |         8192 |         8192 |         8192 |         8192 |         8192 |         8192 |         8192 |         8192 |         8192 |         8192 |         8192 |         8192 |         8192 |         8192 |         8192 |         8192 |         8192 |         8192 |         8192 |         8192 |         8192 |         8192 |         8192 |         8192 |         8192 |         8192 |         8192 |         8192 |         8192 |         8192 |
ld_stack_base                           0x7fffc000 |   0x7fffc000 |   0x7fffc000 |   0x7fffc000 |   0x7fffc000 |   0x7fffc000 |   0x7fffc000 |   0x7fffc000 |   0x7fffc000 |   0x7fffc000 |   0x7fffc000 |   0x7fffc000 |   0x7fffc000 |   0x7fffc000 |   0x7fffc000 |   0x7fffc000 |   0x7fffc000 |   0x7fffc000 |   0x7fffc000 |   0x7fffc000 |   0x7fffc000 |   0x7fffc000 |   0x7fffc000 |   0x7fffc000 |   0x7fffc000 |   0x7fffc000 |   0x7fffc000 |   0x7fffc000 |   0x7fffc000 |   0x7fffc000 |   0x7fffc000 |   0x7fffc000 |   0x7fffc000 |   0x7fffc000 |   0x7fffc000 |   0x7fffc000 |   0x7fffc000 |   0x7fffc000 |   0x7fffc000 |   0x7fffc000 |   0x7fffc000 |   0x7fffc000 |   0x7fffc000 |   0x7fffc000 |
ld_stack_size                                16384 |        16384 |        16384 |        16384 |        16384 |        16384 |        16384 |        16384 |        16384 |        16384 |        16384 |        16384 |        16384 |        16384 |        16384 |        16384 |        16384 |        16384 |        16384 |        16384 |        16384 |        16384 |        16384 |        16384 |        16384 |        16384 |        16384 |        16384 |        16384 |        16384 |        16384 |        16384 |        16384 |        16384 |        16384 |        16384 |        16384 |        16384 |        16384 |        16384 |        16384 |        16384 |        16384 |        16384 |
ld_prog_entry                           0x00400140 |   0x00400140 |   0x00400140 |   0x00400140 |   0x00400140 |   0x00400140 |   0x00400140 |   0x00400140 |   0x00400140 |   0x00400140 |   0x00400140 |   0x00400140 |   0x00400140 |   0x00400140 |   0x00400140 |   0x00400140 |   0x00400140 |   0x00400140 |   0x00400140 |   0x00400140 |   0x00400140 |   0x00400140 |   0x00400140 |   0x00400140 |   0x00400140 |   0x00400140 |   0x00400140 |   0x00400140 |   0x00400140 |   0x00400140 |   0x00400140 |   0x00400140 |   0x00400140 |   0x00400140 |   0x00400140 |   0x00400140 |   0x00400140 |   0x00400140 |   0x00400140 |   0x00400140 |   0x00400140 |   0x00400140 |   0x00400140 |   0x00400140 |
ld_environ_base                         0x7fff8000 |   0x7fff8000 |   0x7fff8000 |   0x7fff8000 |   0x7fff8000 |   0x7fff8000 |   0x7fff8000 |   0x7fff8000 |   0x7fff8000 |   0x7fff8000 |   0x7fff8000 |   0x7fff8000 |   0x7fff8000 |   0x7fff8000 |   0x7fff8000 |   0x7fff8000 |   0x7fff8000 |   0x7fff8000 |   0x7fff8000 |   0x7fff8000 |   0x7fff8000 |   0x7fff8000 |   0x7fff8000 |   0x7fff8000 |   0x7fff8000 |   0x7fff8000 |   0x7fff8000 |   0x7fff8000 |   0x7fff8000 |   0x7fff8000 |   0x7fff8000 |   0x7fff8000 |   0x7fff8000 |   0x7fff8000 |   0x7fff8000 |   0x7fff8000 |   0x7fff8000 |   0x7fff8000 |   0x7fff8000 |   0x7fff8000 |   0x7fff8000 |   0x7fff8000 |   0x7fff8000 |   0x7fff8000 |
ld_target_big_endian                             0 |            0 |            0 |            0 |            0 |            0 |            0 |            0 |            0 |            0 |            0 |            0 |            0 |            0 |            0 |            0 |            0 |            0 |            0 |            0 |            0 |            0 |            0 |            0 |            0 |            0 |            0 |            0 |            0 |            0 |            0 |            0 |            0 |            0 |            0 |            0 |            0 |            0 |            0 |            0 |            0 |            0 |            0 |            0 |
mem.page_count                                  31 |           31 |           31 |           31 |           35 |           35 |           35 |           35 |           43 |           43 |           43 |           43 |           59 |           59 |           59 |           59 |           91 |           91 |           91 |           91 |          155 |          155 |          155 |          155 |          283 |          283 |          283 |          283 |          539 |          539 |          539 |          539 |         1051 |         1051 |         1051 |         1051 |         2075 |         2075 |         2075 |         2075 |         4123 |         4123 |         4123 |         4123 |
mem.page_mem                                  124k |         124k |         124k |         124k |         140k |         140k |         140k |         140k |         172k |         172k |         172k |         172k |         236k |         236k |         236k |         236k |         364k |         364k |         364k |         364k |         620k |         620k |         620k |         620k |        1132k |        1132k |        1132k |        1132k |        2156k |        2156k |        2156k |        2156k |        4204k |        4204k |        4204k |        4204k |        8300k |        8300k |        8300k |        8300k |       16492k |       16492k |       16492k |       16492k |
mem.ptab_misses                                 31 |           31 |           31 |           31 |           35 |           35 |           35 |           35 |           43 |           43 |           43 |           43 |           59 |           59 |           59 |           59 |           91 |           91 |           91 |           91 |          155 |          155 |          155 |          155 |          283 |          283 |          283 |          283 |          539 |          539 |          539 |          539 |         1051 |         1051 |         1051 |         1051 |         2075 |         2075 |         2075 |         2075 |         4123 |         4123 |         4123 |         4123 |
mem.ptab_accesses                          2654392 |      2654392 |      2654392 |      2654392 |      5158858 |      5158858 |      5158858 |      5158858 |     10423806 |     10423806 |     10423806 |     10423806 |     21728844 |     21728844 |     21728844 |     21728844 |     45434104 |     45434104 |     45434104 |     45434104 |     95617520 |     95617520 |     95617520 |     95617520 |    200900396 |    200900396 |    200900396 |    200900396 |    423546842 |    423546842 |    423546842 |    423546842 |    884279802 |    884279802 |    884279802 |    884279802 |   1837312454 |   1837312454 |   1837312454 |   1837312454 |   3910503306 |   3910503306 |   3910503306 |   3910503306 |
mem.ptab_miss_rate                          0.0000 |       0.0000 |       0.0000 |       0.0000 |       0.0000 |       0.0000 |       0.0000 |       0.0000 |       0.0000 |       0.0000 |       0.0000 |       0.0000 |       0.0000 |       0.0000 |       0.0000 |       0.0000 |       0.0000 |       0.0000 |       0.0000 |       0.0000 |       0.0000 |       0.0000 |       0.0000 |       0.0000 |       0.0000 |       0.0000 |       0.0000 |       0.0000 |       0.0000 |       0.0000 |       0.0000 |       0.0000 |       0.0000 |       0.0000 |       0.0000 |       0.0000 |       0.0000 |       0.0000 |       0.0000 |       0.0000 |       0.0000 |       0.0000 |       0.0000 |       0.0000 |
-------------------------------------------------------------------------------------------------
sim-bpred                                     4096 |         4096 |         4096 |         4096 |         4096 |         4096 |         4096 |         8192 |         8192 |         8192 |         8192 |         8192 |         8192 |         8192 |        16384 |        16384 |        16384 |        16384 |        16384 |        16384 |        16384 |        32768 |        32768 |        32768 |        32768 |        32768 |        32768 |        32768 |        65536 |        65536 |        65536 |        65536 |        65536 |        65536 |        65536 |       131072 |       131072 |       131072 |       131072 |       131072 |       131072 |       131072 |       262144 |       262144 |       262144 |       262144 |       262144 |       262144 |       262144 |       524288 |       524288 |       524288 |       524288 |       524288 |       524288 |       524288 |      1048576 |      1048576 |      1048576 |      1048576 |      1048576 |      1048576 |      1048576 |      2097152 |      2097152 |      2097152 |      2097152 |      2097152 |      2097152 |      2097152 |      4194304 |      4194304 |      4194304 |      4194304 |      4194304 |      4194304 |      4194304 |
-bpred bimod -bpred:bimod 512
-bpred bimod -bpred:bimod 1024
-bpred bimod -bpred:bimod 2048
-bpred 2lev -bpred:2lev 1 512 10 1
-bpred 2lev -bpred:2lev 1 1024 10 1
-bpred 2lev -bpred:2lev 1 2048 10 1
-bpred 2lev -bpred:2lev 1 4096 10 1
-------------------------------------------------------------------------------------------------
sim_num_insn                                477132 |       477132 |       477132 |       477132 |       477132 |       477132 |       477132 |      1025320 |      1025320 |      1025320 |      1025320 |      1025320 |      1025320 |      1025320 |      2177602 |      2177602 |      2177602 |      2177602 |      2177602 |      2177602 |      2177602 |      4656972 |      4656972 |      4656972 |      4656972 |      4656972 |      4656972 |      4656972 |      9860049 |      9860049 |      9860049 |      9860049 |      9860049 |      9860049 |      9860049 |     20888360 |     20888360 |     20888360 |     20888360 |     20888360 |     20888360 |     20888360 |     44035053 |     44035053 |     44035053 |     44035053 |     44035053 |     44035053 |     44035053 |     93070066 |     93070066 |     93070066 |     93070066 |     93070066 |     93070066 |     93070066 |    194511199 |    194511199 |    194511199 |    194511199 |    194511199 |    194511199 |    194511199 |    404336988 |    404336988 |    404336988 |    404336988 |    404336988 |    404336988 |    404336988 |    862287276 |    862287276 |    862287276 |    862287276 |    862287276 |    862287276 |    862287276 |
sim_num_refs                                126962 |       126962 |       126962 |       126962 |       126962 |       126962 |       126962 |       266339 |       266339 |       266339 |       266339 |       266339 |       266339 |       266339 |       561433 |       561433 |       561433 |       561433 |       561433 |       561433 |       561433 |      1189628 |      1189628 |      1189628 |      1189628 |      1189628 |      1189628 |      1189628 |      2505032 |      2505032 |      2505032 |      2505032 |      2505032 |      2505032 |      2505032 |      5277974 |      5277974 |      5277974 |      5277974 |      5277974 |      5277974 |      5277974 |     11101738 |     11101738 |     11101738 |     11101738 |     11101738 |     11101738 |     11101738 |     23306359 |     23306359 |     23306359 |     23306359 |     23306359 |     23306359 |     23306359 |     48693421 |     48693421 |     48693421 |     48693421 |     48693421 |     48693421 |     48693421 |    101363865 |    101363865 |    101363865 |    101363865 |    101363865 |    101363865 |    101363865 |    213670107 |    213670107 |    213670107 |    213670107 |    213670107 |    213670107 |    213670107 |
sim_elapsed_time                                 1 |            1 |            1 |            1 |            1 |            1 |            1 |            1 |            1 |            1 |            1 |            1 |            1 |            1 |            1 |            1 |            1 |            1 |            1 |            1 |            1 |            1 |            1 |            1 |            1 |            1 |            1 |            1 |            1 |            1 |            1 |            1 |            2 |            1 |            1 |            3 |            2 |            3 |            3 |            2 |            3 |            3 |            6 |            5 |            6 |            5 |            5 |            6 |            6 |           12 |           12 |           11 |           12 |           12 |           12 |           12 |           25 |           25 |           24 |           25 |           25 |           25 |           25 |           52 |           51 |           51 |           52 |           52 |           51 |           52 |          109 |          108 |          109 |          110 |          110 |          110 |          113 |
sim_inst_rate                          477132.0000 |  477132.0000 |  477132.0000 |  477132.0000 |  477132.0000 |  477132.0000 |  477132.0000 | 1025320.0000 | 1025320.0000 | 1025320.0000 | 1025320.0000 | 1025320.0000 | 1025320.0000 | 1025320.0000 | 2177602.0000 | 2177602.0000 | 2177602.0000 | 2177602.0000 | 2177602.0000 | 2177602.0000 | 2177602.0000 | 4656972.0000 | 4656972.0000 | 4656972.0000 | 4656972.0000 | 4656972.0000 | 4656972.0000 | 4656972.0000 | 9860049.0000 | 9860049.0000 | 9860049.0000 | 9860049.0000 | 4930024.5000 | 9860049.0000 | 9860049.0000 | 6962786.6667 |10444180.0000 | 6962786.6667 | 6962786.6667 |10444180.0000 | 6962786.6667 | 6962786.6667 | 7339175.5000 | 8807010.6000 | 7339175.5000 | 8807010.6000 | 8807010.6000 | 7339175.5000 | 7339175.5000 | 7755838.8333 | 7755838.8333 | 8460915.0909 | 7755838.8333 | 7755838.8333 | 7755838.8333 | 7755838.8333 | 7780447.9600 | 7780447.9600 | 8104633.2917 | 7780447.9600 | 7780447.9600 | 7780447.9600 | 7780447.9600 | 7775711.3077 | 7928176.2353 | 7928176.2353 | 7775711.3077 | 7775711.3077 | 7928176.2353 | 7775711.3077 | 7910892.4404 | 7984141.4444 | 7910892.4404 | 7838975.2364 | 7838975.2364 | 7838975.2364 | 7630860.8496 |
sim_num_branches                             75290 |        75290 |        75290 |        75290 |        75290 |        75290 |        75290 |       163562 |       163562 |       163562 |       163562 |       163562 |       163562 |       163562 |       351070 |       351070 |       351070 |       351070 |       351070 |       351070 |       351070 |       755842 |       755842 |       755842 |       755842 |       755842 |       755842 |       755842 |      1610511 |      1610511 |      1610511 |      1610511 |      1610511 |      1610511 |      1610511 |      3431149 |      3431149 |      3431149 |      3431149 |      3431149 |      3431149 |      3431149 |      7274654 |      7274654 |      7274654 |      7274654 |      7274654 |      7274654 |      7274654 |     15433517 |     15433517 |     15433517 |     15433517 |     15433517 |     15433517 |     15433517 |     32402722 |     32402722 |     32402722 |     32402722 |     32402722 |     32402722 |     32402722 |     67669884 |     67669884 |     67669884 |     67669884 |     67669884 |     67669884 |     67669884 |    144669335 |    144669335 |    144669335 |    144669335 |    144669335 |    144669335 |    144669335 |
sim_IPB                                     6.3373 |       6.3373 |       6.3373 |       6.3373 |       6.3373 |       6.3373 |       6.3373 |       6.2687 |       6.2687 |       6.2687 |       6.2687 |       6.2687 |       6.2687 |       6.2687 |       6.2028 |       6.2028 |       6.2028 |       6.2028 |       6.2028 |       6.2028 |       6.2028 |       6.1613 |       6.1613 |       6.1613 |       6.1613 |       6.1613 |       6.1613 |       6.1613 |       6.1223 |       6.1223 |       6.1223 |       6.1223 |       6.1223 |       6.1223 |       6.1223 |       6.0879 |       6.0879 |       6.0879 |       6.0879 |       6.0879 |       6.0879 |       6.0879 |       6.0532 |       6.0532 |       6.0532 |       6.0532 |       6.0532 |       6.0532 |       6.0532 |       6.0304 |       6.0304 |       6.0304 |       6.0304 |       6.0304 |       6.0304 |       6.0304 |       6.0029 |       6.0029 |       6.0029 |       6.0029 |       6.0029 |       6.0029 |       6.0029 |       5.9751 |       5.9751 |       5.9751 |       5.9751 |       5.9751 |       5.9751 |       5.9751 |       5.9604 |       5.9604 |       5.9604 |       5.9604 |       5.9604 |       5.9604 |       5.9604 |
bpred_bimod.lookups                          75290 |        75290 |        75290 |xxxxxxxxxxxxx |xxxxxxxxxxxxx |xxxxxxxxxxxxx |xxxxxxxxxxxxx |       163562 |       163562 |       163562 |xxxxxxxxxxxxx |xxxxxxxxxxxxx |xxxxxxxxxxxxx |xxxxxxxxxxxxx |       351070 |       351070 |       351070 |xxxxxxxxxxxxx |xxxxxxxxxxxxx |xxxxxxxxxxxxx |xxxxxxxxxxxxx |       755842 |       755842 |       755842 |xxxxxxxxxxxxx |xxxxxxxxxxxxx |xxxxxxxxxxxxx |xxxxxxxxxxxxx |      1610511 |      1610511 |      1610511 |xxxxxxxxxxxxx |xxxxxxxxxxxxx |xxxxxxxxxxxxx |xxxxxxxxxxxxx |      3431149 |      3431149 |      3431149 |xxxxxxxxxxxxx |xxxxxxxxxxxxx |xxxxxxxxxxxxx |xxxxxxxxxxxxx |      7274654 |      7274654 |      7274654 |xxxxxxxxxxxxx |xxxxxxxxxxxxx |xxxxxxxxxxxxx |xxxxxxxxxxxxx |     15433517 |     15433517 |     15433517 |xxxxxxxxxxxxx |xxxxxxxxxxxxx |xxxxxxxxxxxxx |xxxxxxxxxxxxx |     32402722 |     32402722 |     32402722 |xxxxxxxxxxxxx |xxxxxxxxxxxxx |xxxxxxxxxxxxx |xxxxxxxxxxxxx |     67669884 |     67669884 |     67669884 |xxxxxxxxxxxxx |xxxxxxxxxxxxx |xxxxxxxxxxxxx |xxxxxxxxxxxxx |    144669335 |    144669335 |    144669335 |
bpred_bimod.updates                          75290 |        75290 |        75290 |xxxxxxxxxxxxx |xxxxxxxxxxxxx |xxxxxxxxxxxxx |xxxxxxxxxxxxx |       163562 |       163562 |       163562 |xxxxxxxxxxxxx |xxxxxxxxxxxxx |xxxxxxxxxxxxx |xxxxxxxxxxxxx |       351070 |       351070 |       351070 |xxxxxxxxxxxxx |xxxxxxxxxxxxx |xxxxxxxxxxxxx |xxxxxxxxxxxxx |       755842 |       755842 |       755842 |xxxxxxxxxxxxx |xxxxxxxxxxxxx |xxxxxxxxxxxxx |xxxxxxxxxxxxx |      1610511 |      1610511 |      1610511 |xxxxxxxxxxxxx |xxxxxxxxxxxxx |xxxxxxxxxxxxx |xxxxxxxxxxxxx |      3431149 |      3431149 |      3431149 |xxxxxxxxxxxxx |xxxxxxxxxxxxx |xxxxxxxxxxxxx |xxxxxxxxxxxxx |      7274654 |      7274654 |      7274654 |xxxxxxxxxxxxx |xxxxxxxxxxxxx |xxxxxxxxxxxxx |xxxxxxxxxxxxx |     15433517 |     15433517 |     15433517 |xxxxxxxxxxxxx |xxxxxxxxxxxxx |xxxxxxxxxxxxx |xxxxxxxxxxxxx |     32402722 |     32402722 |     32402722 |xxxxxxxxxxxxx |xxxxxxxxxxxxx |xxxxxxxxxxxxx |xxxxxxxxxxxxx |     67669884 |     67669884 |     67669884 |xxxxxxxxxxxxx |xxxxxxxxxxxxx |xxxxxxxxxxxxx |xxxxxxxxxxxxx |    144669335 |    144669335 |    144669335 |
bpred_bimod.addr_hits                        51840 |        51841 |        51842 |xxxxxxxxxxxxx |xxxxxxxxxxxxx |xxxxxxxxxxxxx |xxxxxxxxxxxxx |       114236 |       114238 |       114241 |xxxxxxxxxxxxx |xxxxxxxxxxxxx |xxxxxxxxxxxxx |xxxxxxxxxxxxx |       244783 |       244786 |       244787 |xxxxxxxxxxxxx |xxxxxxxxxxxxx |xxxxxxxxxxxxx |xxxxxxxxxxxxx |       528676 |       528677 |       528678 |xxxxxxxxxxxxx |xxxxxxxxxxxxx |xxxxxxxxxxxxx |xxxxxxxxxxxxx |      1129483 |      1129487 |      1129488 |xxxxxxxxxxxxx |xxxxxxxxxxxxx |xxxxxxxxxxxxx |xxxxxxxxxxxxx |      2410141 |      2410143 |      2410143 |xxxxxxxxxxxxx |xxxxxxxxxxxxx |xxxxxxxxxxxxx |xxxxxxxxxxxxx |      5106535 |      5106539 |      5106539 |xxxxxxxxxxxxx |xxxxxxxxxxxxx |xxxxxxxxxxxxx |xxxxxxxxxxxxx |     10918157 |     10918160 |     10918161 |xxxxxxxxxxxxx |xxxxxxxxxxxxx |xxxxxxxxxxxxx |xxxxxxxxxxxxx |     22814618 |     22814619 |     22814619 |xxxxxxxxxxxxx |xxxxxxxxxxxxx |xxxxxxxxxxxxx |xxxxxxxxxxxxx |     47257365 |     47257366 |     47257367 |xxxxxxxxxxxxx |xxxxxxxxxxxxx |xxxxxxxxxxxxx |xxxxxxxxxxxxx |    103140425 |    103140426 |    103140426 |
bpred_bimod.dir_hits                         51958 |        51955 |        51956 |xxxxxxxxxxxxx |xxxxxxxxxxxxx |xxxxxxxxxxxxx |xxxxxxxxxxxxx |       114356 |       114356 |       114357 |xxxxxxxxxxxxx |xxxxxxxxxxxxx |xxxxxxxxxxxxx |xxxxxxxxxxxxx |       244902 |       244901 |       244902 |xxxxxxxxxxxxx |xxxxxxxxxxxxx |xxxxxxxxxxxxx |xxxxxxxxxxxxx |       528797 |       528794 |       528794 |xxxxxxxxxxxxx |xxxxxxxxxxxxx |xxxxxxxxxxxxx |xxxxxxxxxxxxx |      1129602 |      1129601 |      1129602 |xxxxxxxxxxxxx |xxxxxxxxxxxxx |xxxxxxxxxxxxx |xxxxxxxxxxxxx |      2410262 |      2410260 |      2410258 |xxxxxxxxxxxxx |xxxxxxxxxxxxx |xxxxxxxxxxxxx |xxxxxxxxxxxxx |      5106658 |      5106658 |      5106656 |xxxxxxxxxxxxx |xxxxxxxxxxxxx |xxxxxxxxxxxxx |xxxxxxxxxxxxx |     10918277 |     10918276 |     10918276 |xxxxxxxxxxxxx |xxxxxxxxxxxxx |xxxxxxxxxxxxx |xxxxxxxxxxxxx |     22814737 |     22814734 |     22814734 |xxxxxxxxxxxxx |xxxxxxxxxxxxx |xxxxxxxxxxxxx |xxxxxxxxxxxxx |     47257487 |     47257484 |     47257484 |xxxxxxxxxxxxx |xxxxxxxxxxxxx |xxxxxxxxxxxxx |xxxxxxxxxxxxx |    103140543 |    103140541 |    103140540 |
bpred_bimod.misses                           23332 |        23335 |        23334 |xxxxxxxxxxxxx |xxxxxxxxxxxxx |xxxxxxxxxxxxx |xxxxxxxxxxxxx |        49206 |        49206 |        49205 |xxxxxxxxxxxxx |xxxxxxxxxxxxx |xxxxxxxxxxxxx |xxxxxxxxxxxxx |       106168 |       106169 |       106168 |xxxxxxxxxxxxx |xxxxxxxxxxxxx |xxxxxxxxxxxxx |xxxxxxxxxxxxx |       227045 |       227048 |       227048 |xxxxxxxxxxxxx |xxxxxxxxxxxxx |xxxxxxxxxxxxx |xxxxxxxxxxxxx |       480909 |       480910 |       480909 |xxxxxxxxxxxxx |xxxxxxxxxxxxx |xxxxxxxxxxxxx |xxxxxxxxxxxxx |      1020887 |      1020889 |      1020891 |xxxxxxxxxxxxx |xxxxxxxxxxxxx |xxxxxxxxxxxxx |xxxxxxxxxxxxx |      2167996 |      2167996 |      2167998 |xxxxxxxxxxxxx |xxxxxxxxxxxxx |xxxxxxxxxxxxx |xxxxxxxxxxxxx |      4515240 |      4515241 |      4515241 |xxxxxxxxxxxxx |xxxxxxxxxxxxx |xxxxxxxxxxxxx |xxxxxxxxxxxxx |      9587985 |      9587988 |      9587988 |xxxxxxxxxxxxx |xxxxxxxxxxxxx |xxxxxxxxxxxxx |xxxxxxxxxxxxx |     20412397 |     20412400 |     20412400 |xxxxxxxxxxxxx |xxxxxxxxxxxxx |xxxxxxxxxxxxx |xxxxxxxxxxxxx |     41528792 |     41528794 |     41528795 |
bpred_bimod.jr_hits                             64 |           64 |           64 |xxxxxxxxxxxxx |xxxxxxxxxxxxx |xxxxxxxxxxxxx |xxxxxxxxxxxxx |           64 |           64 |           64 |xxxxxxxxxxxxx |xxxxxxxxxxxxx |xxxxxxxxxxxxx |xxxxxxxxxxxxx |           64 |           64 |           64 |xxxxxxxxxxxxx |xxxxxxxxxxxxx |xxxxxxxxxxxxx |xxxxxxxxxxxxx |           64 |           64 |           64 |xxxxxxxxxxxxx |xxxxxxxxxxxxx |xxxxxxxxxxxxx |xxxxxxxxxxxxx |           64 |           64 |           64 |xxxxxxxxxxxxx |xxxxxxxxxxxxx |xxxxxxxxxxxxx |xxxxxxxxxxxxx |           64 |           64 |           64 |xxxxxxxxxxxxx |xxxxxxxxxxxxx |xxxxxxxxxxxxx |xxxxxxxxxxxxx |           64 |           64 |           64 |xxxxxxxxxxxxx |xxxxxxxxxxxxx |xxxxxxxxxxxxx |xxxxxxxxxxxxx |           64 |           64 |           64 |xxxxxxxxxxxxx |xxxxxxxxxxxxx |xxxxxxxxxxxxx |xxxxxxxxxxxxx |           64 |           64 |           64 |xxxxxxxxxxxxx |xxxxxxxxxxxxx |xxxxxxxxxxxxx |xxxxxxxxxxxxx |           64 |           64 |           64 |xxxxxxxxxxxxx |xxxxxxxxxxxxx |xxxxxxxxxxxxx |xxxxxxxxxxxxx |           64 |           64 |           64 |
bpred_bimod.jr_seen                             64 |           64 |           64 |xxxxxxxxxxxxx |xxxxxxxxxxxxx |xxxxxxxxxxxxx |xxxxxxxxxxxxx |           64 |           64 |           64 |xxxxxxxxxxxxx |xxxxxxxxxxxxx |xxxxxxxxxxxxx |xxxxxxxxxxxxx |           64 |           64 |           64 |xxxxxxxxxxxxx |xxxxxxxxxxxxx |xxxxxxxxxxxxx |xxxxxxxxxxxxx |           64 |           64 |           64 |xxxxxxxxxxxxx |xxxxxxxxxxxxx |xxxxxxxxxxxxx |xxxxxxxxxxxxx |           64 |           64 |           64 |xxxxxxxxxxxxx |xxxxxxxxxxxxx |xxxxxxxxxxxxx |xxxxxxxxxxxxx |           64 |           64 |           64 |xxxxxxxxxxxxx |xxxxxxxxxxxxx |xxxxxxxxxxxxx |xxxxxxxxxxxxx |           64 |           64 |           64 |xxxxxxxxxxxxx |xxxxxxxxxxxxx |xxxxxxxxxxxxx |xxxxxxxxxxxxx |           64 |           64 |           64 |xxxxxxxxxxxxx |xxxxxxxxxxxxx |xxxxxxxxxxxxx |xxxxxxxxxxxxx |           64 |           64 |           64 |xxxxxxxxxxxxx |xxxxxxxxxxxxx |xxxxxxxxxxxxx |xxxxxxxxxxxxx |           64 |           64 |           64 |xxxxxxxxxxxxx |xxxxxxxxxxxxx |xxxxxxxxxxxxx |xxxxxxxxxxxxx |           64 |           64 |           64 |
bpred_bimod.jr_non_ras_hits.PP                   0 |            0 |            0 |xxxxxxxxxxxxx |xxxxxxxxxxxxx |xxxxxxxxxxxxx |xxxxxxxxxxxxx |            0 |            0 |            0 |xxxxxxxxxxxxx |xxxxxxxxxxxxx |xxxxxxxxxxxxx |xxxxxxxxxxxxx |            0 |            0 |            0 |xxxxxxxxxxxxx |xxxxxxxxxxxxx |xxxxxxxxxxxxx |xxxxxxxxxxxxx |            0 |            0 |            0 |xxxxxxxxxxxxx |xxxxxxxxxxxxx |xxxxxxxxxxxxx |xxxxxxxxxxxxx |            0 |            0 |            0 |xxxxxxxxxxxxx |xxxxxxxxxxxxx |xxxxxxxxxxxxx |xxxxxxxxxxxxx |            0 |            0 |            0 |xxxxxxxxxxxxx |xxxxxxxxxxxxx |xxxxxxxxxxxxx |xxxxxxxxxxxxx |            0 |            0 |            0 |xxxxxxxxxxxxx |xxxxxxxxxxxxx |xxxxxxxxxxxxx |xxxxxxxxxxxxx |            0 |            0 |            0 |xxxxxxxxxxxxx |xxxxxxxxxxxxx |xxxxxxxxxxxxx |xxxxxxxxxxxxx |            0 |            0 |            0 |xxxxxxxxxxxxx |xxxxxxxxxxxxx |xxxxxxxxxxxxx |xxxxxxxxxxxxx |            0 |            0 |            0 |xxxxxxxxxxxxx |xxxxxxxxxxxxx |xxxxxxxxxxxxx |xxxxxxxxxxxxx |            0 |            0 |            0 |
bpred_bimod.jr_non_ras_seen.PP                   0 |            0 |            0 |xxxxxxxxxxxxx |xxxxxxxxxxxxx |xxxxxxxxxxxxx |xxxxxxxxxxxxx |            0 |            0 |            0 |xxxxxxxxxxxxx |xxxxxxxxxxxxx |xxxxxxxxxxxxx |xxxxxxxxxxxxx |            0 |            0 |            0 |xxxxxxxxxxxxx |xxxxxxxxxxxxx |xxxxxxxxxxxxx |xxxxxxxxxxxxx |            0 |            0 |            0 |xxxxxxxxxxxxx |xxxxxxxxxxxxx |xxxxxxxxxxxxx |xxxxxxxxxxxxx |            0 |            0 |            0 |xxxxxxxxxxxxx |xxxxxxxxxxxxx |xxxxxxxxxxxxx |xxxxxxxxxxxxx |            0 |            0 |            0 |xxxxxxxxxxxxx |xxxxxxxxxxxxx |xxxxxxxxxxxxx |xxxxxxxxxxxxx |            0 |            0 |            0 |xxxxxxxxxxxxx |xxxxxxxxxxxxx |xxxxxxxxxxxxx |xxxxxxxxxxxxx |            0 |            0 |            0 |xxxxxxxxxxxxx |xxxxxxxxxxxxx |xxxxxxxxxxxxx |xxxxxxxxxxxxx |            0 |            0 |            0 |xxxxxxxxxxxxx |xxxxxxxxxxxxx |xxxxxxxxxxxxx |xxxxxxxxxxxxx |            0 |            0 |            0 |xxxxxxxxxxxxx |xxxxxxxxxxxxx |xxxxxxxxxxxxx |xxxxxxxxxxxxx |            0 |            0 |            0 |
bpred_bimod.bpred_addr_rate                 0.6885 |       0.6886 |       0.6886 |xxxxxxxxxxxxx |xxxxxxxxxxxxx |xxxxxxxxxxxxx |xxxxxxxxxxxxx |       0.6984 |       0.6984 |       0.6985 |xxxxxxxxxxxxx |xxxxxxxxxxxxx |xxxxxxxxxxxxx |xxxxxxxxxxxxx |       0.6972 |       0.6973 |       0.6973 |xxxxxxxxxxxxx |xxxxxxxxxxxxx |xxxxxxxxxxxxx |xxxxxxxxxxxxx |       0.6995 |       0.6995 |       0.6995 |xxxxxxxxxxxxx |xxxxxxxxxxxxx |xxxxxxxxxxxxx |xxxxxxxxxxxxx |       0.7013 |       0.7013 |       0.7013 |xxxxxxxxxxxxx |xxxxxxxxxxxxx |xxxxxxxxxxxxx |xxxxxxxxxxxxx |       0.7024 |       0.7024 |       0.7024 |xxxxxxxxxxxxx |xxxxxxxxxxxxx |xxxxxxxxxxxxx |xxxxxxxxxxxxx |       0.7020 |       0.7020 |       0.7020 |xxxxxxxxxxxxx |xxxxxxxxxxxxx |xxxxxxxxxxxxx |xxxxxxxxxxxxx |       0.7074 |       0.7074 |       0.7074 |xxxxxxxxxxxxx |xxxxxxxxxxxxx |xxxxxxxxxxxxx |xxxxxxxxxxxxx |       0.7041 |       0.7041 |       0.7041 |xxxxxxxxxxxxx |xxxxxxxxxxxxx |xxxxxxxxxxxxx |xxxxxxxxxxxxx |       0.6984 |       0.6984 |       0.6984 |xxxxxxxxxxxxx |xxxxxxxxxxxxx |xxxxxxxxxxxxx |xxxxxxxxxxxxx |       0.7129 |       0.7129 |       0.7129 |
bpred_bimod.bpred_dir_rate                  0.6901 |       0.6901 |       0.6901 |xxxxxxxxxxxxx |xxxxxxxxxxxxx |xxxxxxxxxxxxx |xxxxxxxxxxxxx |       0.6992 |       0.6992 |       0.6992 |xxxxxxxxxxxxx |xxxxxxxxxxxxx |xxxxxxxxxxxxx |xxxxxxxxxxxxx |       0.6976 |       0.6976 |       0.6976 |xxxxxxxxxxxxx |xxxxxxxxxxxxx |xxxxxxxxxxxxx |xxxxxxxxxxxxx |       0.6996 |       0.6996 |       0.6996 |xxxxxxxxxxxxx |xxxxxxxxxxxxx |xxxxxxxxxxxxx |xxxxxxxxxxxxx |       0.7014 |       0.7014 |       0.7014 |xxxxxxxxxxxxx |xxxxxxxxxxxxx |xxxxxxxxxxxxx |xxxxxxxxxxxxx |       0.7025 |       0.7025 |       0.7025 |xxxxxxxxxxxxx |xxxxxxxxxxxxx |xxxxxxxxxxxxx |xxxxxxxxxxxxx |       0.7020 |       0.7020 |       0.7020 |xxxxxxxxxxxxx |xxxxxxxxxxxxx |xxxxxxxxxxxxx |xxxxxxxxxxxxx |       0.7074 |       0.7074 |       0.7074 |xxxxxxxxxxxxx |xxxxxxxxxxxxx |xxxxxxxxxxxxx |xxxxxxxxxxxxx |       0.7041 |       0.7041 |       0.7041 |xxxxxxxxxxxxx |xxxxxxxxxxxxx |xxxxxxxxxxxxx |xxxxxxxxxxxxx |       0.6984 |       0.6984 |       0.6984 |xxxxxxxxxxxxx |xxxxxxxxxxxxx |xxxxxxxxxxxxx |xxxxxxxxxxxxx |       0.7129 |       0.7129 |       0.7129 |
bpred_bimod.bpred_jr_rate                   1.0000 |       1.0000 |       1.0000 |xxxxxxxxxxxxx |xxxxxxxxxxxxx |xxxxxxxxxxxxx |xxxxxxxxxxxxx |       1.0000 |       1.0000 |       1.0000 |xxxxxxxxxxxxx |xxxxxxxxxxxxx |xxxxxxxxxxxxx |xxxxxxxxxxxxx |       1.0000 |       1.0000 |       1.0000 |xxxxxxxxxxxxx |xxxxxxxxxxxxx |xxxxxxxxxxxxx |xxxxxxxxxxxxx |       1.0000 |       1.0000 |       1.0000 |xxxxxxxxxxxxx |xxxxxxxxxxxxx |xxxxxxxxxxxxx |xxxxxxxxxxxxx |       1.0000 |       1.0000 |       1.0000 |xxxxxxxxxxxxx |xxxxxxxxxxxxx |xxxxxxxxxxxxx |xxxxxxxxxxxxx |       1.0000 |       1.0000 |       1.0000 |xxxxxxxxxxxxx |xxxxxxxxxxxxx |xxxxxxxxxxxxx |xxxxxxxxxxxxx |       1.0000 |       1.0000 |       1.0000 |xxxxxxxxxxxxx |xxxxxxxxxxxxx |xxxxxxxxxxxxx |xxxxxxxxxxxxx |       1.0000 |       1.0000 |       1.0000 |xxxxxxxxxxxxx |xxxxxxxxxxxxx |xxxxxxxxxxxxx |xxxxxxxxxxxxx |       1.0000 |       1.0000 |       1.0000 |xxxxxxxxxxxxx |xxxxxxxxxxxxx |xxxxxxxxxxxxx |xxxxxxxxxxxxx |       1.0000 |       1.0000 |       1.0000 |xxxxxxxxxxxxx |xxxxxxxxxxxxx |xxxxxxxxxxxxx |xxxxxxxxxxxxx |       1.0000 |       1.0000 |       1.0000 |
bpred_bimod.bpred_jr_non_ras_rate.PP       <error: |      <error: |      <error: |xxxxxxxxxxxxx |xxxxxxxxxxxxx |xxxxxxxxxxxxx |xxxxxxxxxxxxx |      <error: |      <error: |      <error: |xxxxxxxxxxxxx |xxxxxxxxxxxxx |xxxxxxxxxxxxx |xxxxxxxxxxxxx |      <error: |      <error: |      <error: |xxxxxxxxxxxxx |xxxxxxxxxxxxx |xxxxxxxxxxxxx |xxxxxxxxxxxxx |      <error: |      <error: |      <error: |xxxxxxxxxxxxx |xxxxxxxxxxxxx |xxxxxxxxxxxxx |xxxxxxxxxxxxx |      <error: |      <error: |      <error: |xxxxxxxxxxxxx |xxxxxxxxxxxxx |xxxxxxxxxxxxx |xxxxxxxxxxxxx |      <error: |      <error: |      <error: |xxxxxxxxxxxxx |xxxxxxxxxxxxx |xxxxxxxxxxxxx |xxxxxxxxxxxxx |      <error: |      <error: |      <error: |xxxxxxxxxxxxx |xxxxxxxxxxxxx |xxxxxxxxxxxxx |xxxxxxxxxxxxx |      <error: |      <error: |      <error: |xxxxxxxxxxxxx |xxxxxxxxxxxxx |xxxxxxxxxxxxx |xxxxxxxxxxxxx |      <error: |      <error: |      <error: |xxxxxxxxxxxxx |xxxxxxxxxxxxx |xxxxxxxxxxxxx |xxxxxxxxxxxxx |      <error: |      <error: |      <error: |xxxxxxxxxxxxx |xxxxxxxxxxxxx |xxxxxxxxxxxxx |xxxxxxxxxxxxx |      <error: |      <error: |      <error: |
bpred_bimod.retstack_pushes                     66 |           66 |           66 |xxxxxxxxxxxxx |xxxxxxxxxxxxx |xxxxxxxxxxxxx |xxxxxxxxxxxxx |           66 |           66 |           66 |xxxxxxxxxxxxx |xxxxxxxxxxxxx |xxxxxxxxxxxxx |xxxxxxxxxxxxx |           66 |           66 |           66 |xxxxxxxxxxxxx |xxxxxxxxxxxxx |xxxxxxxxxxxxx |xxxxxxxxxxxxx |           66 |           66 |           66 |xxxxxxxxxxxxx |xxxxxxxxxxxxx |xxxxxxxxxxxxx |xxxxxxxxxxxxx |           66 |           66 |           66 |xxxxxxxxxxxxx |xxxxxxxxxxxxx |xxxxxxxxxxxxx |xxxxxxxxxxxxx |           66 |           66 |           66 |xxxxxxxxxxxxx |xxxxxxxxxxxxx |xxxxxxxxxxxxx |xxxxxxxxxxxxx |           66 |           66 |           66 |xxxxxxxxxxxxx |xxxxxxxxxxxxx |xxxxxxxxxxxxx |xxxxxxxxxxxxx |           66 |           66 |           66 |xxxxxxxxxxxxx |xxxxxxxxxxxxx |xxxxxxxxxxxxx |xxxxxxxxxxxxx |           66 |           66 |           66 |xxxxxxxxxxxxx |xxxxxxxxxxxxx |xxxxxxxxxxxxx |xxxxxxxxxxxxx |           66 |           66 |           66 |xxxxxxxxxxxxx |xxxxxxxxxxxxx |xxxxxxxxxxxxx |xxxxxxxxxxxxx |           66 |           66 |           66 |
bpred_bimod.retstack_pops                       64 |           64 |           64 |xxxxxxxxxxxxx |xxxxxxxxxxxxx |xxxxxxxxxxxxx |xxxxxxxxxxxxx |           64 |           64 |           64 |xxxxxxxxxxxxx |xxxxxxxxxxxxx |xxxxxxxxxxxxx |xxxxxxxxxxxxx |           64 |           64 |           64 |xxxxxxxxxxxxx |xxxxxxxxxxxxx |xxxxxxxxxxxxx |xxxxxxxxxxxxx |           64 |           64 |           64 |xxxxxxxxxxxxx |xxxxxxxxxxxxx |xxxxxxxxxxxxx |xxxxxxxxxxxxx |           64 |           64 |           64 |xxxxxxxxxxxxx |xxxxxxxxxxxxx |xxxxxxxxxxxxx |xxxxxxxxxxxxx |           64 |           64 |           64 |xxxxxxxxxxxxx |xxxxxxxxxxxxx |xxxxxxxxxxxxx |xxxxxxxxxxxxx |           64 |           64 |           64 |xxxxxxxxxxxxx |xxxxxxxxxxxxx |xxxxxxxxxxxxx |xxxxxxxxxxxxx |           64 |           64 |           64 |xxxxxxxxxxxxx |xxxxxxxxxxxxx |xxxxxxxxxxxxx |xxxxxxxxxxxxx |           64 |           64 |           64 |xxxxxxxxxxxxx |xxxxxxxxxxxxx |xxxxxxxxxxxxx |xxxxxxxxxxxxx |           64 |           64 |           64 |xxxxxxxxxxxxx |xxxxxxxxxxxxx |xxxxxxxxxxxxx |xxxxxxxxxxxxx |           64 |           64 |           64 |
bpred_bimod.used_ras.PP                         64 |           64 |           64 |xxxxxxxxxxxxx |xxxxxxxxxxxxx |xxxxxxxxxxxxx |xxxxxxxxxxxxx |           64 |           64 |           64 |xxxxxxxxxxxxx |xxxxxxxxxxxxx |xxxxxxxxxxxxx |xxxxxxxxxxxxx |           64 |           64 |           64 |xxxxxxxxxxxxx |xxxxxxxxxxxxx |xxxxxxxxxxxxx |xxxxxxxxxxxxx |           64 |           64 |           64 |xxxxxxxxxxxxx |xxxxxxxxxxxxx |xxxxxxxxxxxxx |xxxxxxxxxxxxx |           64 |           64 |           64 |xxxxxxxxxxxxx |xxxxxxxxxxxxx |xxxxxxxxxxxxx |xxxxxxxxxxxxx |           64 |           64 |           64 |xxxxxxxxxxxxx |xxxxxxxxxxxxx |xxxxxxxxxxxxx |xxxxxxxxxxxxx |           64 |           64 |           64 |xxxxxxxxxxxxx |xxxxxxxxxxxxx |xxxxxxxxxxxxx |xxxxxxxxxxxxx |           64 |           64 |           64 |xxxxxxxxxxxxx |xxxxxxxxxxxxx |xxxxxxxxxxxxx |xxxxxxxxxxxxx |           64 |           64 |           64 |xxxxxxxxxxxxx |xxxxxxxxxxxxx |xxxxxxxxxxxxx |xxxxxxxxxxxxx |           64 |           64 |           64 |xxxxxxxxxxxxx |xxxxxxxxxxxxx |xxxxxxxxxxxxx |xxxxxxxxxxxxx |           64 |           64 |           64 |
bpred_bimod.ras_hits.PP                         64 |           64 |           64 |xxxxxxxxxxxxx |xxxxxxxxxxxxx |xxxxxxxxxxxxx |xxxxxxxxxxxxx |           64 |           64 |           64 |xxxxxxxxxxxxx |xxxxxxxxxxxxx |xxxxxxxxxxxxx |xxxxxxxxxxxxx |           64 |           64 |           64 |xxxxxxxxxxxxx |xxxxxxxxxxxxx |xxxxxxxxxxxxx |xxxxxxxxxxxxx |           64 |           64 |           64 |xxxxxxxxxxxxx |xxxxxxxxxxxxx |xxxxxxxxxxxxx |xxxxxxxxxxxxx |           64 |           64 |           64 |xxxxxxxxxxxxx |xxxxxxxxxxxxx |xxxxxxxxxxxxx |xxxxxxxxxxxxx |           64 |           64 |           64 |xxxxxxxxxxxxx |xxxxxxxxxxxxx |xxxxxxxxxxxxx |xxxxxxxxxxxxx |           64 |           64 |           64 |xxxxxxxxxxxxx |xxxxxxxxxxxxx |xxxxxxxxxxxxx |xxxxxxxxxxxxx |           64 |           64 |           64 |xxxxxxxxxxxxx |xxxxxxxxxxxxx |xxxxxxxxxxxxx |xxxxxxxxxxxxx |           64 |           64 |           64 |xxxxxxxxxxxxx |xxxxxxxxxxxxx |xxxxxxxxxxxxx |xxxxxxxxxxxxx |           64 |           64 |           64 |xxxxxxxxxxxxx |xxxxxxxxxxxxx |xxxxxxxxxxxxx |xxxxxxxxxxxxx |           64 |           64 |           64 |
bpred_bimod.ras_rate.PP                     1.0000 |       1.0000 |       1.0000 |xxxxxxxxxxxxx |xxxxxxxxxxxxx |xxxxxxxxxxxxx |xxxxxxxxxxxxx |       1.0000 |       1.0000 |       1.0000 |xxxxxxxxxxxxx |xxxxxxxxxxxxx |xxxxxxxxxxxxx |xxxxxxxxxxxxx |       1.0000 |       1.0000 |       1.0000 |xxxxxxxxxxxxx |xxxxxxxxxxxxx |xxxxxxxxxxxxx |xxxxxxxxxxxxx |       1.0000 |       1.0000 |       1.0000 |xxxxxxxxxxxxx |xxxxxxxxxxxxx |xxxxxxxxxxxxx |xxxxxxxxxxxxx |       1.0000 |       1.0000 |       1.0000 |xxxxxxxxxxxxx |xxxxxxxxxxxxx |xxxxxxxxxxxxx |xxxxxxxxxxxxx |       1.0000 |       1.0000 |       1.0000 |xxxxxxxxxxxxx |xxxxxxxxxxxxx |xxxxxxxxxxxxx |xxxxxxxxxxxxx |       1.0000 |       1.0000 |       1.0000 |xxxxxxxxxxxxx |xxxxxxxxxxxxx |xxxxxxxxxxxxx |xxxxxxxxxxxxx |       1.0000 |       1.0000 |       1.0000 |xxxxxxxxxxxxx |xxxxxxxxxxxxx |xxxxxxxxxxxxx |xxxxxxxxxxxxx |       1.0000 |       1.0000 |       1.0000 |xxxxxxxxxxxxx |xxxxxxxxxxxxx |xxxxxxxxxxxxx |xxxxxxxxxxxxx |       1.0000 |       1.0000 |       1.0000 |xxxxxxxxxxxxx |xxxxxxxxxxxxx |xxxxxxxxxxxxx |xxxxxxxxxxxxx |       1.0000 |       1.0000 |       1.0000 |
bpred_2lev.lookups                   xxxxxxxxxxxxx |xxxxxxxxxxxxx |xxxxxxxxxxxxx |        75290 |        75290 |        75290 |        75290 |xxxxxxxxxxxxx |xxxxxxxxxxxxx |xxxxxxxxxxxxx |       163562 |       163562 |       163562 |       163562 |xxxxxxxxxxxxx |xxxxxxxxxxxxx |xxxxxxxxxxxxx |       351070 |       351070 |       351070 |       351070 |xxxxxxxxxxxxx |xxxxxxxxxxxxx |xxxxxxxxxxxxx |       755842 |       755842 |       755842 |       755842 |xxxxxxxxxxxxx |xxxxxxxxxxxxx |xxxxxxxxxxxxx |      1610511 |      1610511 |      1610511 |      1610511 |xxxxxxxxxxxxx |xxxxxxxxxxxxx |xxxxxxxxxxxxx |      3431149 |      3431149 |      3431149 |      3431149 |xxxxxxxxxxxxx |xxxxxxxxxxxxx |xxxxxxxxxxxxx |      7274654 |      7274654 |      7274654 |      7274654 |xxxxxxxxxxxxx |xxxxxxxxxxxxx |xxxxxxxxxxxxx |     15433517 |     15433517 |     15433517 |     15433517 |xxxxxxxxxxxxx |xxxxxxxxxxxxx |xxxxxxxxxxxxx |     32402722 |     32402722 |     32402722 |     32402722 |xxxxxxxxxxxxx |xxxxxxxxxxxxx |xxxxxxxxxxxxx |     67669884 |     67669884 |     67669884 |     67669884 |xxxxxxxxxxxxx |xxxxxxxxxxxxx |xxxxxxxxxxxxx |    144669335 |    144669335 |    144669335 |    144669335 |
[...]
bpred_2lev.retstack_pushes           xxxxxxxxxxxxx |xxxxxxxxxxxxx |xxxxxxxxxxxxx |           66 |           66 |           66 |           66 |xxxxxxxxxxxxx |xxxxxxxxxxxxx |xxxxxxxxxxxxx |           66 |           66 |           66 |           66 |xxxxxxxxxxxxx |xxxxxxxxxxxxx |xxxxxxxxxxxxx |           66 |           66 |           66 |           66 |xxxxxxxxxxxxx |xxxxxxxxxxxxx |xxxxxxxxxxxxx |           66 |           66 |           66 |           66 |xxxxxxxxxxxxx |xxxxxxxxxxxxx |xxxxxxxxxxxxx |           66 |           66 |           66 |           66 |xxxxxxxxxxxxx |xxxxxxxxxxxxx |xxxxxxxxxxxxx |           66 |           66 |           66 |           66 |xxxxxxxxxxxxx |xxxxxxxxxxxxx |xxxxxxxxxxxxx |           66 |           66 |           66 |           66 |xxxxxxxxxxxxx |xxxxxxxxxxxxx |xxxxxxxxxxxxx |           66 |           66 |           66 |           66 |xxxxxxxxxxxxx |xxxxxxxxxxxxx |xxxxxxxxxxxxx |           66 |           66 |           66 |           66 |xxxxxxxxxxxxx |xxxxxxxxxxxxx |xxxxxxxxxxxxx |           66 |           66 |           66 |           66 |xxxxxxxxxxxxx |xxxxxxxxxxxxx |xxxxxxxxxxxxx |           66 |           66 |           66 |           66 |
bpred_2lev.retstack_pops             xxxxxxxxxxxxx |xxxxxxxxxxxxx |xxxxxxxxxxxxx |           64 |           64 |           64 |           64 |xxxxxxxxxxxxx |xxxxxxxxxxxxx |xxxxxxxxxxxxx |           64 |           64 |           64 |           64 |xxxxxxxxxxxxx |xxxxxxxxxxxxx |xxxxxxxxxxxxx |           64 |           64 |           64 |           64 |xxxxxxxxxxxxx |xxxxxxxxxxxxx |xxxxxxxxxxxxx |           64 |           64 |           64 |           64 |xxxxxxxxxxxxx |xxxxxxxxxxxxx |xxxxxxxxxxxxx |           64 |           64 |           64 |           64 |xxxxxxxxxxxxx |xxxxxxxxxxxxx |xxxxxxxxxxxxx |           64 |           64 |           64 |           64 |xxxxxxxxxxxxx |xxxxxxxxxxxxx |xxxxxxxxxxxxx |           64 |           64 |           64 |           64 |xxxxxxxxxxxxx |xxxxxxxxxxxxx |xxxxxxxxxxxxx |           64 |           64 |           64 |           64 |xxxxxxxxxxxxx |xxxxxxxxxxxxx |xxxxxxxxxxxxx |           64 |           64 |           64 |           64 |xxxxxxxxxxxxx |xxxxxxxxxxxxx |xxxxxxxxxxxxx |           64 |           64 |           64 |           64 |xxxxxxxxxxxxx |xxxxxxxxxxxxx |xxxxxxxxxxxxx |           64 |           64 |           64 |           64 |
bpred_2lev.used_ras.PP               xxxxxxxxxxxxx |xxxxxxxxxxxxx |xxxxxxxxxxxxx |           64 |           64 |           64 |           64 |xxxxxxxxxxxxx |xxxxxxxxxxxxx |xxxxxxxxxxxxx |           64 |           64 |           64 |           64 |xxxxxxxxxxxxx |xxxxxxxxxxxxx |xxxxxxxxxxxxx |           64 |           64 |           64 |           64 |xxxxxxxxxxxxx |xxxxxxxxxxxxx |xxxxxxxxxxxxx |           64 |           64 |           64 |           64 |xxxxxxxxxxxxx |xxxxxxxxxxxxx |xxxxxxxxxxxxx |           64 |           64 |           64 |           64 |xxxxxxxxxxxxx |xxxxxxxxxxxxx |xxxxxxxxxxxxx |           64 |           64 |           64 |           64 |xxxxxxxxxxxxx |xxxxxxxxxxxxx |xxxxxxxxxxxxx |           64 |           64 |           64 |           64 |xxxxxxxxxxxxx |xxxxxxxxxxxxx |xxxxxxxxxxxxx |           64 |           64 |           64 |           64 |xxxxxxxxxxxxx |xxxxxxxxxxxxx |xxxxxxxxxxxxx |           64 |           64 |           64 |           64 |xxxxxxxxxxxxx |xxxxxxxxxxxxx |xxxxxxxxxxxxx |           64 |           64 |           64 |           64 |xxxxxxxxxxxxx |xxxxxxxxxxxxx |xxxxxxxxxxxxx |           64 |           64 |           64 |           64 |
bpred_2lev.ras_hits.PP               xxxxxxxxxxxxx |xxxxxxxxxxxxx |xxxxxxxxxxxxx |           64 |           64 |           64 |           64 |xxxxxxxxxxxxx |xxxxxxxxxxxxx |xxxxxxxxxxxxx |           64 |           64 |           64 |           64 |xxxxxxxxxxxxx |xxxxxxxxxxxxx |xxxxxxxxxxxxx |           64 |           64 |           64 |           64 |xxxxxxxxxxxxx |xxxxxxxxxxxxx |xxxxxxxxxxxxx |           64 |           64 |           64 |           64 |xxxxxxxxxxxxx |xxxxxxxxxxxxx |xxxxxxxxxxxxx |           64 |           64 |           64 |           64 |xxxxxxxxxxxxx |xxxxxxxxxxxxx |xxxxxxxxxxxxx |           64 |           64 |           64 |           64 |xxxxxxxxxxxxx |xxxxxxxxxxxxx |xxxxxxxxxxxxx |           64 |           64 |           64 |           64 |xxxxxxxxxxxxx |xxxxxxxxxxxxx |xxxxxxxxxxxxx |           64 |           64 |           64 |           64 |xxxxxxxxxxxxx |xxxxxxxxxxxxx |xxxxxxxxxxxxx |           64 |           64 |           64 |           64 |xxxxxxxxxxxxx |xxxxxxxxxxxxx |xxxxxxxxxxxxx |           64 |           64 |           64 |           64 |xxxxxxxxxxxxx |xxxxxxxxxxxxx |xxxxxxxxxxxxx |           64 |           64 |           64 |           64 |
bpred_2lev.ras_rate.PP               xxxxxxxxxxxxx |xxxxxxxxxxxxx |xxxxxxxxxxxxx |       1.0000 |       1.0000 |       1.0000 |       1.0000 |xxxxxxxxxxxxx |xxxxxxxxxxxxx |xxxxxxxxxxxxx |       1.0000 |       1.0000 |       1.0000 |       1.0000 |xxxxxxxxxxxxx |xxxxxxxxxxxxx |xxxxxxxxxxxxx |       1.0000 |       1.0000 |       1.0000 |       1.0000 |xxxxxxxxxxxxx |xxxxxxxxxxxxx |xxxxxxxxxxxxx |       1.0000 |       1.0000 |       1.0000 |       1.0000 |xxxxxxxxxxxxx |xxxxxxxxxxxxx |xxxxxxxxxxxxx |       1.0000 |       1.0000 |       1.0000 |       1.0000 |xxxxxxxxxxxxx |xxxxxxxxxxxxx |xxxxxxxxxxxxx |       1.0000 |       1.0000 |       1.0000 |       1.0000 |xxxxxxxxxxxxx |xxxxxxxxxxxxx |xxxxxxxxxxxxx |       1.0000 |       1.0000 |       1.0000 |       1.0000 |xxxxxxxxxxxxx |xxxxxxxxxxxxx |xxxxxxxxxxxxx |       1.0000 |       1.0000 |       1.0000 |       1.0000 |xxxxxxxxxxxxx |xxxxxxxxxxxxx |xxxxxxxxxxxxx |       1.0000 |       1.0000 |       1.0000 |       1.0000 |xxxxxxxxxxxxx |xxxxxxxxxxxxx |xxxxxxxxxxxxx |       1.0000 |       1.0000 |       1.0000 |       1.0000 |xxxxxxxxxxxxx |xxxxxxxxxxxxx |xxxxxxxxxxxxx |       1.0000 |       1.0000 |       1.0000 |       1.0000 |

Command list: 
	sslittle-na-sstrix-gcc -Wall -O3 -funroll-loops -finline-functions  -DRANDOM_SIZE=4096 -DOFFSET=4 -DSORT=base_quicksort7 sorts/base_quicksort7365159102.c simpleMain.c -o base_quicksort72064492752
	sim-cache -cache:dl1 dl1:256:32:1:l -cache:dl2 dl2:131072:32:1:l -cache:il1 il1:256:32:1:l -cache:il2 dl2 base_quicksort72064492752
	sim-cache -cache:dl1 dl1:256:32:1:l -cache:dl2 dl2:65536:32:1:l -cache:il1 il1:256:32:1:l -cache:il2 dl2 base_quicksort72064492752
	sim-cache -cache:dl1 dl1:1:32:256:l -cache:dl2 dl2:1:32:131072:l -cache:il1 il1:1:32:256:l -cache:il2 dl2 base_quicksort72064492752
	sim-cache -cache:dl1 dl1:1:32:256:l -cache:dl2 dl2:1:32:65536:l -cache:il1 il1:1:32:256:l -cache:il2 dl2 base_quicksort72064492752
	sim-bpred -bpred bimod -bpred:bimod 512 base_quicksort72064492752
	sim-bpred -bpred bimod -bpred:bimod 1024 base_quicksort72064492752
	sim-bpred -bpred bimod -bpred:bimod 2048 base_quicksort72064492752
	sim-bpred -bpred 2lev -bpred:2lev 1 512 10 1 base_quicksort72064492752
	sim-bpred -bpred 2lev -bpred:2lev 1 1024 10 1 base_quicksort72064492752
	sim-bpred -bpred 2lev -bpred:2lev 1 2048 10 1 base_quicksort72064492752
	sim-bpred -bpred 2lev -bpred:2lev 1 4096 10 1 base_quicksort72064492752
	sslittle-na-sstrix-gcc -Wall -O3 -funroll-loops -finline-functions  -DRANDOM_SIZE=8192 -DOFFSET=4 -DSORT=base_quicksort7 sorts/base_quicksort7365159102.c simpleMain.c -o base_quicksort72064492752
	sim-cache -cache:dl1 dl1:256:32:1:l -cache:dl2 dl2:131072:32:1:l -cache:il1 il1:256:32:1:l -cache:il2 dl2 base_quicksort72064492752
	sim-cache -cache:dl1 dl1:256:32:1:l -cache:dl2 dl2:65536:32:1:l -cache:il1 il1:256:32:1:l -cache:il2 dl2 base_quicksort72064492752
	sim-cache -cache:dl1 dl1:1:32:256:l -cache:dl2 dl2:1:32:131072:l -cache:il1 il1:1:32:256:l -cache:il2 dl2 base_quicksort72064492752
	sim-cache -cache:dl1 dl1:1:32:256:l -cache:dl2 dl2:1:32:65536:l -cache:il1 il1:1:32:256:l -cache:il2 dl2 base_quicksort72064492752
	sim-bpred -bpred bimod -bpred:bimod 512 base_quicksort72064492752
	sim-bpred -bpred bimod -bpred:bimod 1024 base_quicksort72064492752
	sim-bpred -bpred bimod -bpred:bimod 2048 base_quicksort72064492752
	sim-bpred -bpred 2lev -bpred:2lev 1 512 10 1 base_quicksort72064492752
	sim-bpred -bpred 2lev -bpred:2lev 1 1024 10 1 base_quicksort72064492752
	sim-bpred -bpred 2lev -bpred:2lev 1 2048 10 1 base_quicksort72064492752
	sim-bpred -bpred 2lev -bpred:2lev 1 4096 10 1 base_quicksort72064492752
	sslittle-na-sstrix-gcc -Wall -O3 -funroll-loops -finline-functions  -DRANDOM_SIZE=16384 -DOFFSET=4 -DSORT=base_quicksort7 sorts/base_quicksort7365159102.c simpleMain.c -o base_quicksort72064492752
	sim-cache -cache:dl1 dl1:256:32:1:l -cache:dl2 dl2:131072:32:1:l -cache:il1 il1:256:32:1:l -cache:il2 dl2 base_quicksort72064492752
	sim-cache -cache:dl1 dl1:256:32:1:l -cache:dl2 dl2:65536:32:1:l -cache:il1 il1:256:32:1:l -cache:il2 dl2 base_quicksort72064492752
	sim-cache -cache:dl1 dl1:1:32:256:l -cache:dl2 dl2:1:32:131072:l -cache:il1 il1:1:32:256:l -cache:il2 dl2 base_quicksort72064492752
	sim-cache -cache:dl1 dl1:1:32:256:l -cache:dl2 dl2:1:32:65536:l -cache:il1 il1:1:32:256:l -cache:il2 dl2 base_quicksort72064492752
	sim-bpred -bpred bimod -bpred:bimod 512 base_quicksort72064492752
	sim-bpred -bpred bimod -bpred:bimod 1024 base_quicksort72064492752
	sim-bpred -bpred bimod -bpred:bimod 2048 base_quicksort72064492752
	sim-bpred -bpred 2lev -bpred:2lev 1 512 10 1 base_quicksort72064492752
	sim-bpred -bpred 2lev -bpred:2lev 1 1024 10 1 base_quicksort72064492752
	sim-bpred -bpred 2lev -bpred:2lev 1 2048 10 1 base_quicksort72064492752
	sim-bpred -bpred 2lev -bpred:2lev 1 4096 10 1 base_quicksort72064492752
	sslittle-na-sstrix-gcc -Wall -O3 -funroll-loops -finline-functions  -DRANDOM_SIZE=32768 -DOFFSET=4 -DSORT=base_quicksort7 sorts/base_quicksort7365159102.c simpleMain.c -o base_quicksort72064492752
	sim-cache -cache:dl1 dl1:256:32:1:l -cache:dl2 dl2:131072:32:1:l -cache:il1 il1:256:32:1:l -cache:il2 dl2 base_quicksort72064492752
	sim-cache -cache:dl1 dl1:256:32:1:l -cache:dl2 dl2:65536:32:1:l -cache:il1 il1:256:32:1:l -cache:il2 dl2 base_quicksort72064492752
	sim-cache -cache:dl1 dl1:1:32:256:l -cache:dl2 dl2:1:32:131072:l -cache:il1 il1:1:32:256:l -cache:il2 dl2 base_quicksort72064492752
	sim-cache -cache:dl1 dl1:1:32:256:l -cache:dl2 dl2:1:32:65536:l -cache:il1 il1:1:32:256:l -cache:il2 dl2 base_quicksort72064492752
	sim-bpred -bpred bimod -bpred:bimod 512 base_quicksort72064492752
	sim-bpred -bpred bimod -bpred:bimod 1024 base_quicksort72064492752
	sim-bpred -bpred bimod -bpred:bimod 2048 base_quicksort72064492752
	sim-bpred -bpred 2lev -bpred:2lev 1 512 10 1 base_quicksort72064492752
	sim-bpred -bpred 2lev -bpred:2lev 1 1024 10 1 base_quicksort72064492752
	sim-bpred -bpred 2lev -bpred:2lev 1 2048 10 1 base_quicksort72064492752
	sim-bpred -bpred 2lev -bpred:2lev 1 4096 10 1 base_quicksort72064492752
	sslittle-na-sstrix-gcc -Wall -O3 -funroll-loops -finline-functions  -DRANDOM_SIZE=65536 -DOFFSET=4 -DSORT=base_quicksort7 sorts/base_quicksort7365159102.c simpleMain.c -o base_quicksort72064492752
	sim-cache -cache:dl1 dl1:256:32:1:l -cache:dl2 dl2:131072:32:1:l -cache:il1 il1:256:32:1:l -cache:il2 dl2 base_quicksort72064492752
	sim-cache -cache:dl1 dl1:256:32:1:l -cache:dl2 dl2:65536:32:1:l -cache:il1 il1:256:32:1:l -cache:il2 dl2 base_quicksort72064492752
	sim-cache -cache:dl1 dl1:1:32:256:l -cache:dl2 dl2:1:32:131072:l -cache:il1 il1:1:32:256:l -cache:il2 dl2 base_quicksort72064492752
	sim-cache -cache:dl1 dl1:1:32:256:l -cache:dl2 dl2:1:32:65536:l -cache:il1 il1:1:32:256:l -cache:il2 dl2 base_quicksort72064492752
	sim-bpred -bpred bimod -bpred:bimod 512 base_quicksort72064492752
	sim-bpred -bpred bimod -bpred:bimod 1024 base_quicksort72064492752
	sim-bpred -bpred bimod -bpred:bimod 2048 base_quicksort72064492752
	sim-bpred -bpred 2lev -bpred:2lev 1 512 10 1 base_quicksort72064492752
	sim-bpred -bpred 2lev -bpred:2lev 1 1024 10 1 base_quicksort72064492752
	sim-bpred -bpred 2lev -bpred:2lev 1 2048 10 1 base_quicksort72064492752
	sim-bpred -bpred 2lev -bpred:2lev 1 4096 10 1 base_quicksort72064492752
	sslittle-na-sstrix-gcc -Wall -O3 -funroll-loops -finline-functions  -DRANDOM_SIZE=131072 -DOFFSET=4 -DSORT=base_quicksort7 sorts/base_quicksort7365159102.c simpleMain.c -o base_quicksort72064492752
	sim-cache -cache:dl1 dl1:256:32:1:l -cache:dl2 dl2:131072:32:1:l -cache:il1 il1:256:32:1:l -cache:il2 dl2 base_quicksort72064492752
	sim-cache -cache:dl1 dl1:256:32:1:l -cache:dl2 dl2:65536:32:1:l -cache:il1 il1:256:32:1:l -cache:il2 dl2 base_quicksort72064492752
	sim-cache -cache:dl1 dl1:1:32:256:l -cache:dl2 dl2:1:32:131072:l -cache:il1 il1:1:32:256:l -cache:il2 dl2 base_quicksort72064492752
	sim-cache -cache:dl1 dl1:1:32:256:l -cache:dl2 dl2:1:32:65536:l -cache:il1 il1:1:32:256:l -cache:il2 dl2 base_quicksort72064492752
	sim-bpred -bpred bimod -bpred:bimod 512 base_quicksort72064492752
	sim-bpred -bpred bimod -bpred:bimod 1024 base_quicksort72064492752
	sim-bpred -bpred bimod -bpred:bimod 2048 base_quicksort72064492752
	sim-bpred -bpred 2lev -bpred:2lev 1 512 10 1 base_quicksort72064492752
	sim-bpred -bpred 2lev -bpred:2lev 1 1024 10 1 base_quicksort72064492752
	sim-bpred -bpred 2lev -bpred:2lev 1 2048 10 1 base_quicksort72064492752
	sim-bpred -bpred 2lev -bpred:2lev 1 4096 10 1 base_quicksort72064492752
	sslittle-na-sstrix-gcc -Wall -O3 -funroll-loops -finline-functions  -DRANDOM_SIZE=262144 -DOFFSET=4 -DSORT=base_quicksort7 sorts/base_quicksort7365159102.c simpleMain.c -o base_quicksort72064492752
	sim-cache -cache:dl1 dl1:256:32:1:l -cache:dl2 dl2:131072:32:1:l -cache:il1 il1:256:32:1:l -cache:il2 dl2 base_quicksort72064492752
	sim-cache -cache:dl1 dl1:256:32:1:l -cache:dl2 dl2:65536:32:1:l -cache:il1 il1:256:32:1:l -cache:il2 dl2 base_quicksort72064492752
	sim-cache -cache:dl1 dl1:1:32:256:l -cache:dl2 dl2:1:32:131072:l -cache:il1 il1:1:32:256:l -cache:il2 dl2 base_quicksort72064492752
	sim-cache -cache:dl1 dl1:1:32:256:l -cache:dl2 dl2:1:32:65536:l -cache:il1 il1:1:32:256:l -cache:il2 dl2 base_quicksort72064492752
	sim-bpred -bpred bimod -bpred:bimod 512 base_quicksort72064492752
	sim-bpred -bpred bimod -bpred:bimod 1024 base_quicksort72064492752
	sim-bpred -bpred bimod -bpred:bimod 2048 base_quicksort72064492752
	sim-bpred -bpred 2lev -bpred:2lev 1 512 10 1 base_quicksort72064492752
	sim-bpred -bpred 2lev -bpred:2lev 1 1024 10 1 base_quicksort72064492752
	sim-bpred -bpred 2lev -bpred:2lev 1 2048 10 1 base_quicksort72064492752
	sim-bpred -bpred 2lev -bpred:2lev 1 4096 10 1 base_quicksort72064492752
	sslittle-na-sstrix-gcc -Wall -O3 -funroll-loops -finline-functions  -DRANDOM_SIZE=524288 -DOFFSET=4 -DSORT=base_quicksort7 sorts/base_quicksort7365159102.c simpleMain.c -o base_quicksort72064492752
	sim-cache -cache:dl1 dl1:256:32:1:l -cache:dl2 dl2:131072:32:1:l -cache:il1 il1:256:32:1:l -cache:il2 dl2 base_quicksort72064492752
	sim-cache -cache:dl1 dl1:256:32:1:l -cache:dl2 dl2:65536:32:1:l -cache:il1 il1:256:32:1:l -cache:il2 dl2 base_quicksort72064492752
	sim-cache -cache:dl1 dl1:1:32:256:l -cache:dl2 dl2:1:32:131072:l -cache:il1 il1:1:32:256:l -cache:il2 dl2 base_quicksort72064492752
	sim-cache -cache:dl1 dl1:1:32:256:l -cache:dl2 dl2:1:32:65536:l -cache:il1 il1:1:32:256:l -cache:il2 dl2 base_quicksort72064492752
	sim-bpred -bpred bimod -bpred:bimod 512 base_quicksort72064492752
	sim-bpred -bpred bimod -bpred:bimod 1024 base_quicksort72064492752
	sim-bpred -bpred bimod -bpred:bimod 2048 base_quicksort72064492752
	sim-bpred -bpred 2lev -bpred:2lev 1 512 10 1 base_quicksort72064492752
	sim-bpred -bpred 2lev -bpred:2lev 1 1024 10 1 base_quicksort72064492752
	sim-bpred -bpred 2lev -bpred:2lev 1 2048 10 1 base_quicksort72064492752
	sim-bpred -bpred 2lev -bpred:2lev 1 4096 10 1 base_quicksort72064492752
	sslittle-na-sstrix-gcc -Wall -O3 -funroll-loops -finline-functions  -DRANDOM_SIZE=1048576 -DOFFSET=4 -DSORT=base_quicksort7 sorts/base_quicksort7365159102.c simpleMain.c -o base_quicksort72064492752
	sim-cache -cache:dl1 dl1:256:32:1:l -cache:dl2 dl2:131072:32:1:l -cache:il1 il1:256:32:1:l -cache:il2 dl2 base_quicksort72064492752
	sim-cache -cache:dl1 dl1:256:32:1:l -cache:dl2 dl2:65536:32:1:l -cache:il1 il1:256:32:1:l -cache:il2 dl2 base_quicksort72064492752
	sim-cache -cache:dl1 dl1:1:32:256:l -cache:dl2 dl2:1:32:131072:l -cache:il1 il1:1:32:256:l -cache:il2 dl2 base_quicksort72064492752
	sim-cache -cache:dl1 dl1:1:32:256:l -cache:dl2 dl2:1:32:65536:l -cache:il1 il1:1:32:256:l -cache:il2 dl2 base_quicksort72064492752
	sim-bpred -bpred bimod -bpred:bimod 512 base_quicksort72064492752
	sim-bpred -bpred bimod -bpred:bimod 1024 base_quicksort72064492752
	sim-bpred -bpred bimod -bpred:bimod 2048 base_quicksort72064492752
	sim-bpred -bpred 2lev -bpred:2lev 1 512 10 1 base_quicksort72064492752
	sim-bpred -bpred 2lev -bpred:2lev 1 1024 10 1 base_quicksort72064492752
	sim-bpred -bpred 2lev -bpred:2lev 1 2048 10 1 base_quicksort72064492752
	sim-bpred -bpred 2lev -bpred:2lev 1 4096 10 1 base_quicksort72064492752
	sslittle-na-sstrix-gcc -Wall -O3 -funroll-loops -finline-functions  -DRANDOM_SIZE=2097152 -DOFFSET=4 -DSORT=base_quicksort7 sorts/base_quicksort7365159102.c simpleMain.c -o base_quicksort72064492752
	sim-cache -cache:dl1 dl1:256:32:1:l -cache:dl2 dl2:131072:32:1:l -cache:il1 il1:256:32:1:l -cache:il2 dl2 base_quicksort72064492752
	sim-cache -cache:dl1 dl1:256:32:1:l -cache:dl2 dl2:65536:32:1:l -cache:il1 il1:256:32:1:l -cache:il2 dl2 base_quicksort72064492752
	sim-cache -cache:dl1 dl1:1:32:256:l -cache:dl2 dl2:1:32:131072:l -cache:il1 il1:1:32:256:l -cache:il2 dl2 base_quicksort72064492752
	sim-cache -cache:dl1 dl1:1:32:256:l -cache:dl2 dl2:1:32:65536:l -cache:il1 il1:1:32:256:l -cache:il2 dl2 base_quicksort72064492752
	sim-bpred -bpred bimod -bpred:bimod 512 base_quicksort72064492752
	sim-bpred -bpred bimod -bpred:bimod 1024 base_quicksort72064492752
	sim-bpred -bpred bimod -bpred:bimod 2048 base_quicksort72064492752
	sim-bpred -bpred 2lev -bpred:2lev 1 512 10 1 base_quicksort72064492752
	sim-bpred -bpred 2lev -bpred:2lev 1 1024 10 1 base_quicksort72064492752
	sim-bpred -bpred 2lev -bpred:2lev 1 2048 10 1 base_quicksort72064492752
	sim-bpred -bpred 2lev -bpred:2lev 1 4096 10 1 base_quicksort72064492752
	sslittle-na-sstrix-gcc -Wall -O3 -funroll-loops -finline-functions  -DRANDOM_SIZE=4194304 -DOFFSET=4 -DSORT=base_quicksort7 sorts/base_quicksort7365159102.c simpleMain.c -o base_quicksort72064492752
	sim-cache -cache:dl1 dl1:256:32:1:l -cache:dl2 dl2:131072:32:1:l -cache:il1 il1:256:32:1:l -cache:il2 dl2 base_quicksort72064492752
	sim-cache -cache:dl1 dl1:256:32:1:l -cache:dl2 dl2:65536:32:1:l -cache:il1 il1:256:32:1:l -cache:il2 dl2 base_quicksort72064492752
	sim-cache -cache:dl1 dl1:1:32:256:l -cache:dl2 dl2:1:32:131072:l -cache:il1 il1:1:32:256:l -cache:il2 dl2 base_quicksort72064492752
	sim-cache -cache:dl1 dl1:1:32:256:l -cache:dl2 dl2:1:32:65536:l -cache:il1 il1:1:32:256:l -cache:il2 dl2 base_quicksort72064492752
	sim-bpred -bpred bimod -bpred:bimod 512 base_quicksort72064492752
	sim-bpred -bpred bimod -bpred:bimod 1024 base_quicksort72064492752
	sim-bpred -bpred bimod -bpred:bimod 2048 base_quicksort72064492752
	sim-bpred -bpred 2lev -bpred:2lev 1 512 10 1 base_quicksort72064492752
	sim-bpred -bpred 2lev -bpred:2lev 1 1024 10 1 base_quicksort72064492752
	sim-bpred -bpred 2lev -bpred:2lev 1 2048 10 1 base_quicksort72064492752
	sim-bpred -bpred 2lev -bpred:2lev 1 4096 10 1 base_quicksort72064492752
