Mon Jun 27 20:18:16 2005
Run as: "./do_simple -c random.org2 -o 2 base_quicksort7"
-------------------------------------------------------------------------------------------------
sim-cache                                     4096 |         4096 |         4096 |         4096 |         8192 |         8192 |         8192 |         8192 |        16384 |        16384 |        16384 |        16384 |        32768 |        32768 |        32768 |        32768 |        65536 |        65536 |        65536 |        65536 |       131072 |       131072 |       131072 |       131072 |       262144 |       262144 |       262144 |       262144 |       524288 |       524288 |       524288 |       524288 |      1048576 |      1048576 |      1048576 |      1048576 |      2097152 |      2097152 |      2097152 |      2097152 |      4194304 |      4194304 |      4194304 |      4194304 |
-cache:dl1 dl1:256:32:1:l -cache:dl2 dl2:131072:32:1:l -cache:il1 il1:256:32:1:l -cache:il2 dl2
-cache:dl1 dl1:256:32:1:l -cache:dl2 dl2:65536:32:1:l -cache:il1 il1:256:32:1:l -cache:il2 dl2
-cache:dl1 dl1:1:32:256:l -cache:dl2 dl2:1:32:131072:l -cache:il1 il1:1:32:256:l -cache:il2 dl2
-cache:dl1 dl1:1:32:256:l -cache:dl2 dl2:1:32:65536:l -cache:il1 il1:1:32:256:l -cache:il2 dl2
-------------------------------------------------------------------------------------------------
sim_num_insn                                477321 |       477321 |       477321 |       477321 |      1031262 |      1031262 |      1031262 |      1031262 |      2194450 |      2194450 |      2194450 |      2194450 |      4638345 |      4638345 |      4638345 |      4638345 |     10151467 |     10151467 |     10151467 |     10151467 |     20864940 |     20864940 |     20864940 |     20864940 |     44833408 |     44833408 |     44833408 |     44833408 |     92590184 |     92590184 |     92590184 |     92590184 |    194835334 |    194835334 |    194835334 |    194835334 |    412112441 |    412112441 |    412112441 |    412112441 |    853205896 |    853205896 |    853205896 |    853205896 |
sim_num_refs                                126221 |       126221 |       126221 |       126221 |       266490 |       266490 |       266490 |       266490 |       563301 |       563301 |       563301 |       563301 |      1185620 |      1185620 |      1185620 |      1185620 |      2542744 |      2542744 |      2542744 |      2542744 |      5279716 |      5279716 |      5279716 |      5279716 |     11204392 |     11204392 |     11204392 |     11204392 |     23259786 |     23259786 |     23259786 |     23259786 |     48774571 |     48774571 |     48774571 |     48774571 |    102469372 |    102469372 |    102469372 |    102469372 |    212514366 |    212514366 |    212514366 |    212514366 |
sim_elapsed_time                                 1 |            1 |            7 |            3 |            1 |            1 |            9 |            5 |            1 |            1 |           14 |            8 |            1 |            1 |           25 |           13 |            2 |            3 |           45 |           23 |            6 |            5 |           84 |           42 |           11 |           12 |          154 |           72 |           23 |           24 |          266 |          104 |           50 |           50 |          370 |          132 |          105 |          105 |          429 |          189 |          217 |          217 |          548 |          309 |
sim_inst_rate                          477321.0000 |  477321.0000 |   68188.7143 |  159107.0000 | 1031262.0000 | 1031262.0000 |  114584.6667 |  206252.4000 | 2194450.0000 | 2194450.0000 |  156746.4286 |  274306.2500 | 4638345.0000 | 4638345.0000 |  185533.8000 |  356795.7692 | 5075733.5000 | 3383822.3333 |  225588.1556 |  441368.1304 | 3477490.0000 | 4172988.0000 |  248392.1429 |  496784.2857 | 4075764.3636 | 3736117.3333 |  291126.0260 |  622686.2222 | 4025660.1739 | 3857924.3333 |  348083.3985 |  890290.2308 | 3896706.6800 | 3896706.6800 |  526581.9838 | 1476025.2576 | 3924880.3905 | 3924880.3905 |  960635.0606 | 2180489.1058 | 3931824.4055 | 3931824.4055 | 1556945.0657 | 2761184.1294 |
il1.accesses                                477321 |       477321 |       477321 |       477321 |      1031262 |      1031262 |      1031262 |      1031262 |      2194450 |      2194450 |      2194450 |      2194450 |      4638345 |      4638345 |      4638345 |      4638345 |     10151467 |     10151467 |     10151467 |     10151467 |     20864940 |     20864940 |     20864940 |     20864940 |     44833408 |     44833408 |     44833408 |     44833408 |     92590184 |     92590184 |     92590184 |     92590184 |    194835334 |    194835334 |    194835334 |    194835334 |    412112441 |    412112441 |    412112441 |    412112441 |    853205896 |    853205896 |    853205896 |    853205896 |
il1.hits                                    476853 |       476853 |       476882 |       476882 |      1030793 |      1030793 |      1030821 |      1030821 |      2193969 |      2193969 |      2194005 |      2194005 |      4637875 |      4637875 |      4637903 |      4637903 |     10150997 |     10150997 |     10151025 |     10151025 |     20864471 |     20864471 |     20864499 |     20864499 |     44832939 |     44832939 |     44832967 |     44832967 |     92589715 |     92589715 |     92589743 |     92589743 |    194834865 |    194834865 |    194834893 |    194834893 |    412111972 |    412111972 |    412112000 |    412112000 |    853205427 |    853205427 |    853205455 |    853205455 |
il1.misses                                     468 |          468 |          439 |          439 |          469 |          469 |          441 |          441 |          481 |          481 |          445 |          445 |          470 |          470 |          442 |          442 |          470 |          470 |          442 |          442 |          469 |          469 |          441 |          441 |          469 |          469 |          441 |          441 |          469 |          469 |          441 |          441 |          469 |          469 |          441 |          441 |          469 |          469 |          441 |          441 |          469 |          469 |          441 |          441 |
il1.replacements                               226 |          226 |          183 |          183 |          227 |          227 |          185 |          185 |          241 |          241 |          189 |          189 |          229 |          229 |          186 |          186 |          229 |          229 |          186 |          186 |          229 |          229 |          185 |          185 |          229 |          229 |          185 |          185 |          229 |          229 |          185 |          185 |          229 |          229 |          185 |          185 |          229 |          229 |          185 |          185 |          229 |          229 |          185 |          185 |
il1.writebacks                                   0 |            0 |            0 |            0 |            0 |            0 |            0 |            0 |            0 |            0 |            0 |            0 |            0 |            0 |            0 |            0 |            0 |            0 |            0 |            0 |            0 |            0 |            0 |            0 |            0 |            0 |            0 |            0 |            0 |            0 |            0 |            0 |            0 |            0 |            0 |            0 |            0 |            0 |            0 |            0 |            0 |            0 |            0 |            0 |
il1.invalidations                                0 |            0 |            0 |            0 |            0 |            0 |            0 |            0 |            0 |            0 |            0 |            0 |            0 |            0 |            0 |            0 |            0 |            0 |            0 |            0 |            0 |            0 |            0 |            0 |            0 |            0 |            0 |            0 |            0 |            0 |            0 |            0 |            0 |            0 |            0 |            0 |            0 |            0 |            0 |            0 |            0 |            0 |            0 |            0 |
il1.miss_rate                               0.0010 |       0.0010 |       0.0009 |       0.0009 |       0.0005 |       0.0005 |       0.0004 |       0.0004 |       0.0002 |       0.0002 |       0.0002 |       0.0002 |       0.0001 |       0.0001 |       0.0001 |       0.0001 |       0.0000 |       0.0000 |       0.0000 |       0.0000 |       0.0000 |       0.0000 |       0.0000 |       0.0000 |       0.0000 |       0.0000 |       0.0000 |       0.0000 |       0.0000 |       0.0000 |       0.0000 |       0.0000 |       0.0000 |       0.0000 |       0.0000 |       0.0000 |       0.0000 |       0.0000 |       0.0000 |       0.0000 |       0.0000 |       0.0000 |       0.0000 |       0.0000 |
il1.repl_rate                               0.0005 |       0.0005 |       0.0004 |       0.0004 |       0.0002 |       0.0002 |       0.0002 |       0.0002 |       0.0001 |       0.0001 |       0.0001 |       0.0001 |       0.0000 |       0.0000 |       0.0000 |       0.0000 |       0.0000 |       0.0000 |       0.0000 |       0.0000 |       0.0000 |       0.0000 |       0.0000 |       0.0000 |       0.0000 |       0.0000 |       0.0000 |       0.0000 |       0.0000 |       0.0000 |       0.0000 |       0.0000 |       0.0000 |       0.0000 |       0.0000 |       0.0000 |       0.0000 |       0.0000 |       0.0000 |       0.0000 |       0.0000 |       0.0000 |       0.0000 |       0.0000 |
il1.wb_rate                                 0.0000 |       0.0000 |       0.0000 |       0.0000 |       0.0000 |       0.0000 |       0.0000 |       0.0000 |       0.0000 |       0.0000 |       0.0000 |       0.0000 |       0.0000 |       0.0000 |       0.0000 |       0.0000 |       0.0000 |       0.0000 |       0.0000 |       0.0000 |       0.0000 |       0.0000 |       0.0000 |       0.0000 |       0.0000 |       0.0000 |       0.0000 |       0.0000 |       0.0000 |       0.0000 |       0.0000 |       0.0000 |       0.0000 |       0.0000 |       0.0000 |       0.0000 |       0.0000 |       0.0000 |       0.0000 |       0.0000 |       0.0000 |       0.0000 |       0.0000 |       0.0000 |
il1.inv_rate                                0.0000 |       0.0000 |       0.0000 |       0.0000 |       0.0000 |       0.0000 |       0.0000 |       0.0000 |       0.0000 |       0.0000 |       0.0000 |       0.0000 |       0.0000 |       0.0000 |       0.0000 |       0.0000 |       0.0000 |       0.0000 |       0.0000 |       0.0000 |       0.0000 |       0.0000 |       0.0000 |       0.0000 |       0.0000 |       0.0000 |       0.0000 |       0.0000 |       0.0000 |       0.0000 |       0.0000 |       0.0000 |       0.0000 |       0.0000 |       0.0000 |       0.0000 |       0.0000 |       0.0000 |       0.0000 |       0.0000 |       0.0000 |       0.0000 |       0.0000 |       0.0000 |
dl1.accesses                                142687 |       142687 |       142687 |       142687 |       299340 |       299340 |       299340 |       299340 |       628919 |       628919 |       628919 |       628919 |      1316774 |      1316774 |      1316774 |      1316774 |      2804970 |      2804970 |      2804970 |      2804970 |      5804086 |      5804086 |      5804086 |      5804086 |     12253050 |     12253050 |     12253050 |     12253050 |     25357020 |     25357020 |     25357020 |     25357020 |     52968957 |     52968957 |     52968957 |     52968957 |    110858062 |    110858062 |    110858062 |    110858062 |    229291664 |    229291664 |    229291664 |    229291664 |
dl1.hits                                    140050 |       140050 |       140079 |       140079 |       293388 |       293388 |       293365 |       293365 |       615142 |       615142 |       615071 |       615071 |      1285403 |      1285403 |      1285273 |      1285273 |      2726950 |      2726950 |      2727271 |      2727271 |      5643939 |      5643939 |      5644809 |      5644809 |     11878830 |     11878830 |     11880809 |     11880809 |     24574247 |     24574247 |     24581013 |     24581013 |     51241902 |     51241902 |     51258472 |     51258472 |    107018735 |    107018735 |    107059539 |    107059539 |    221181588 |    221181588 |    221283895 |    221283895 |
dl1.misses                                    2637 |         2637 |         2608 |         2608 |         5952 |         5952 |         5975 |         5975 |        13777 |        13777 |        13848 |        13848 |        31371 |        31371 |        31501 |        31501 |        78020 |        78020 |        77699 |        77699 |       160147 |       160147 |       159277 |       159277 |       374220 |       374220 |       372241 |       372241 |       782773 |       782773 |       776007 |       776007 |      1727055 |      1727055 |      1710485 |      1710485 |      3839327 |      3839327 |      3798523 |      3798523 |      8110076 |      8110076 |      8007769 |      8007769 |
dl1.replacements                              2381 |         2381 |         2352 |         2352 |         5696 |         5696 |         5719 |         5719 |        13521 |        13521 |        13592 |        13592 |        31115 |        31115 |        31245 |        31245 |        77764 |        77764 |        77443 |        77443 |       159891 |       159891 |       159021 |       159021 |       373964 |       373964 |       371985 |       371985 |       782517 |       782517 |       775751 |       775751 |      1726799 |      1726799 |      1710229 |      1710229 |      3839071 |      3839071 |      3798267 |      3798267 |      8109820 |      8109820 |      8007513 |      8007513 |
dl1.writebacks                                2325 |         2325 |         2304 |         2304 |         5522 |         5522 |         5567 |         5567 |        12996 |        12996 |        13174 |        13174 |        29850 |        29850 |        30203 |        30203 |        70880 |        70880 |        71200 |        71200 |       153335 |       153335 |       154006 |       154006 |       349243 |       349243 |       350911 |       350911 |       749415 |       749415 |       751022 |       751022 |      1645160 |      1645160 |      1647108 |      1647108 |      3584334 |      3584334 |      3584804 |      3584804 |      7719162 |      7719162 |      7709073 |      7709073 |
dl1.invalidations                                0 |            0 |            0 |            0 |            0 |            0 |            0 |            0 |            0 |            0 |            0 |            0 |            0 |            0 |            0 |            0 |            0 |            0 |            0 |            0 |            0 |            0 |            0 |            0 |            0 |            0 |            0 |            0 |            0 |            0 |            0 |            0 |            0 |            0 |            0 |            0 |            0 |            0 |            0 |            0 |            0 |            0 |            0 |            0 |
dl1.miss_rate                               0.0185 |       0.0185 |       0.0183 |       0.0183 |       0.0199 |       0.0199 |       0.0200 |       0.0200 |       0.0219 |       0.0219 |       0.0220 |       0.0220 |       0.0238 |       0.0238 |       0.0239 |       0.0239 |       0.0278 |       0.0278 |       0.0277 |       0.0277 |       0.0276 |       0.0276 |       0.0274 |       0.0274 |       0.0305 |       0.0305 |       0.0304 |       0.0304 |       0.0309 |       0.0309 |       0.0306 |       0.0306 |       0.0326 |       0.0326 |       0.0323 |       0.0323 |       0.0346 |       0.0346 |       0.0343 |       0.0343 |       0.0354 |       0.0354 |       0.0349 |       0.0349 |
dl1.repl_rate                               0.0167 |       0.0167 |       0.0165 |       0.0165 |       0.0190 |       0.0190 |       0.0191 |       0.0191 |       0.0215 |       0.0215 |       0.0216 |       0.0216 |       0.0236 |       0.0236 |       0.0237 |       0.0237 |       0.0277 |       0.0277 |       0.0276 |       0.0276 |       0.0275 |       0.0275 |       0.0274 |       0.0274 |       0.0305 |       0.0305 |       0.0304 |       0.0304 |       0.0309 |       0.0309 |       0.0306 |       0.0306 |       0.0326 |       0.0326 |       0.0323 |       0.0323 |       0.0346 |       0.0346 |       0.0343 |       0.0343 |       0.0354 |       0.0354 |       0.0349 |       0.0349 |
dl1.wb_rate                                 0.0163 |       0.0163 |       0.0161 |       0.0161 |       0.0184 |       0.0184 |       0.0186 |       0.0186 |       0.0207 |       0.0207 |       0.0209 |       0.0209 |       0.0227 |       0.0227 |       0.0229 |       0.0229 |       0.0253 |       0.0253 |       0.0254 |       0.0254 |       0.0264 |       0.0264 |       0.0265 |       0.0265 |       0.0285 |       0.0285 |       0.0286 |       0.0286 |       0.0296 |       0.0296 |       0.0296 |       0.0296 |       0.0311 |       0.0311 |       0.0311 |       0.0311 |       0.0323 |       0.0323 |       0.0323 |       0.0323 |       0.0337 |       0.0337 |       0.0336 |       0.0336 |
dl1.inv_rate                                0.0000 |       0.0000 |       0.0000 |       0.0000 |       0.0000 |       0.0000 |       0.0000 |       0.0000 |       0.0000 |       0.0000 |       0.0000 |       0.0000 |       0.0000 |       0.0000 |       0.0000 |       0.0000 |       0.0000 |       0.0000 |       0.0000 |       0.0000 |       0.0000 |       0.0000 |       0.0000 |       0.0000 |       0.0000 |       0.0000 |       0.0000 |       0.0000 |       0.0000 |       0.0000 |       0.0000 |       0.0000 |       0.0000 |       0.0000 |       0.0000 |       0.0000 |       0.0000 |       0.0000 |       0.0000 |       0.0000 |       0.0000 |       0.0000 |       0.0000 |       0.0000 |
dl2.accesses                                  5430 |         5430 |         5351 |         5351 |        11943 |        11943 |        11983 |        11983 |        27254 |        27254 |        27467 |        27467 |        61691 |        61691 |        62146 |        62146 |       149370 |       149370 |       149341 |       149341 |       313951 |       313951 |       313724 |       313724 |       723932 |       723932 |       723593 |       723593 |      1532657 |      1532657 |      1527470 |      1527470 |      3372684 |      3372684 |      3358034 |      3358034 |      7424130 |      7424130 |      7383768 |      7383768 |     15829707 |     15829707 |     15717283 |     15717283 |
dl2.hits                                      4044 |         4044 |         3979 |         3979 |        10043 |        10043 |        10097 |        10097 |        24333 |        24333 |        24563 |        24563 |        56725 |        56725 |        57194 |        57194 |       140308 |       140308 |       140293 |       140293 |       296698 |       296698 |       296485 |       296485 |       690295 |       690295 |       689970 |       689970 |      1466252 |      1465471 |      1461079 |      1398026 |      3239970 |      2913605 |      3189006 |      2874630 |      6512820 |      6074456 |      6397689 |      5990583 |     13298043 |     12646828 |     13023699 |     12394094 |
dl2.misses                                    1386 |         1386 |         1372 |         1372 |         1900 |         1900 |         1886 |         1886 |         2921 |         2921 |         2904 |         2904 |         4966 |         4966 |         4952 |         4952 |         9062 |         9062 |         9048 |         9048 |        17253 |        17253 |        17239 |        17239 |        33637 |        33637 |        33623 |        33623 |        66405 |        67186 |        66391 |       129444 |       132714 |       459079 |       169028 |       483404 |       911310 |      1349674 |       986079 |      1393185 |      2531664 |      3182879 |      2693584 |      3323189 |
dl2.replacements                               171 |          171 |            0 |            0 |          170 |          170 |            0 |            0 |          171 |          171 |            0 |            0 |          169 |          169 |            0 |            0 |          169 |          169 |            0 |            0 |          169 |          169 |            0 |            0 |          169 |          169 |            0 |            0 |          169 |         1650 |            0 |        63908 |         1642 |       393543 |        37956 |       417868 |       780238 |      1284138 |       855007 |      1327649 |      2400592 |      3117343 |      2562512 |      3257653 |
dl2.writebacks                                 104 |          104 |            0 |            0 |          104 |          104 |            0 |            0 |          105 |          105 |            0 |            0 |          104 |          104 |            0 |            0 |          104 |          104 |            0 |            0 |          104 |          104 |            0 |            0 |          104 |          104 |            0 |            0 |          104 |         1324 |            0 |        63209 |         1317 |       387086 |        37646 |       411256 |       757066 |      1224097 |       831541 |      1267114 |      2359100 |      3036915 |      2499933 |      3174328 |
dl2.invalidations                                0 |            0 |            0 |            0 |            0 |            0 |            0 |            0 |            0 |            0 |            0 |            0 |            0 |            0 |            0 |            0 |            0 |            0 |            0 |            0 |            0 |            0 |            0 |            0 |            0 |            0 |            0 |            0 |            0 |            0 |            0 |            0 |            0 |            0 |            0 |            0 |            0 |            0 |            0 |            0 |            0 |            0 |            0 |            0 |
dl2.miss_rate                               0.2552 |       0.2552 |       0.2564 |       0.2564 |       0.1591 |       0.1591 |       0.1574 |       0.1574 |       0.1072 |       0.1072 |       0.1057 |       0.1057 |       0.0805 |       0.0805 |       0.0797 |       0.0797 |       0.0607 |       0.0607 |       0.0606 |       0.0606 |       0.0550 |       0.0550 |       0.0549 |       0.0549 |       0.0465 |       0.0465 |       0.0465 |       0.0465 |       0.0433 |       0.0438 |       0.0435 |       0.0847 |       0.0393 |       0.1361 |       0.0503 |       0.1440 |       0.1227 |       0.1818 |       0.1335 |       0.1887 |       0.1599 |       0.2011 |       0.1714 |       0.2114 |
dl2.repl_rate                               0.0315 |       0.0315 |       0.0000 |       0.0000 |       0.0142 |       0.0142 |       0.0000 |       0.0000 |       0.0063 |       0.0063 |       0.0000 |       0.0000 |       0.0027 |       0.0027 |       0.0000 |       0.0000 |       0.0011 |       0.0011 |       0.0000 |       0.0000 |       0.0005 |       0.0005 |       0.0000 |       0.0000 |       0.0002 |       0.0002 |       0.0000 |       0.0000 |       0.0001 |       0.0011 |       0.0000 |       0.0418 |       0.0005 |       0.1167 |       0.0113 |       0.1244 |       0.1051 |       0.1730 |       0.1158 |       0.1798 |       0.1517 |       0.1969 |       0.1630 |       0.2073 |
dl2.wb_rate                                 0.0192 |       0.0192 |       0.0000 |       0.0000 |       0.0087 |       0.0087 |       0.0000 |       0.0000 |       0.0039 |       0.0039 |       0.0000 |       0.0000 |       0.0017 |       0.0017 |       0.0000 |       0.0000 |       0.0007 |       0.0007 |       0.0000 |       0.0000 |       0.0003 |       0.0003 |       0.0000 |       0.0000 |       0.0001 |       0.0001 |       0.0000 |       0.0000 |       0.0001 |       0.0009 |       0.0000 |       0.0414 |       0.0004 |       0.1148 |       0.0112 |       0.1225 |       0.1020 |       0.1649 |       0.1126 |       0.1716 |       0.1490 |       0.1918 |       0.1591 |       0.2020 |
dl2.inv_rate                                0.0000 |       0.0000 |       0.0000 |       0.0000 |       0.0000 |       0.0000 |       0.0000 |       0.0000 |       0.0000 |       0.0000 |       0.0000 |       0.0000 |       0.0000 |       0.0000 |       0.0000 |       0.0000 |       0.0000 |       0.0000 |       0.0000 |       0.0000 |       0.0000 |       0.0000 |       0.0000 |       0.0000 |       0.0000 |       0.0000 |       0.0000 |       0.0000 |       0.0000 |       0.0000 |       0.0000 |       0.0000 |       0.0000 |       0.0000 |       0.0000 |       0.0000 |       0.0000 |       0.0000 |       0.0000 |       0.0000 |       0.0000 |       0.0000 |       0.0000 |       0.0000 |
itlb.accesses                               477321 |       477321 |       477321 |       477321 |      1031262 |      1031262 |      1031262 |      1031262 |      2194450 |      2194450 |      2194450 |      2194450 |      4638345 |      4638345 |      4638345 |      4638345 |     10151467 |     10151467 |     10151467 |     10151467 |     20864940 |     20864940 |     20864940 |     20864940 |     44833408 |     44833408 |     44833408 |     44833408 |     92590184 |     92590184 |     92590184 |     92590184 |    194835334 |    194835334 |    194835334 |    194835334 |    412112441 |    412112441 |    412112441 |    412112441 |    853205896 |    853205896 |    853205896 |    853205896 |
itlb.hits                                   477311 |       477311 |       477311 |       477311 |      1031252 |      1031252 |      1031252 |      1031252 |      2194440 |      2194440 |      2194440 |      2194440 |      4638335 |      4638335 |      4638335 |      4638335 |     10151457 |     10151457 |     10151457 |     10151457 |     20864930 |     20864930 |     20864930 |     20864930 |     44833398 |     44833398 |     44833398 |     44833398 |     92590174 |     92590174 |     92590174 |     92590174 |    194835324 |    194835324 |    194835324 |    194835324 |    412112431 |    412112431 |    412112431 |    412112431 |    853205886 |    853205886 |    853205886 |    853205886 |
itlb.misses                                     10 |           10 |           10 |           10 |           10 |           10 |           10 |           10 |           10 |           10 |           10 |           10 |           10 |           10 |           10 |           10 |           10 |           10 |           10 |           10 |           10 |           10 |           10 |           10 |           10 |           10 |           10 |           10 |           10 |           10 |           10 |           10 |           10 |           10 |           10 |           10 |           10 |           10 |           10 |           10 |           10 |           10 |           10 |           10 |
itlb.replacements                                0 |            0 |            0 |            0 |            0 |            0 |            0 |            0 |            0 |            0 |            0 |            0 |            0 |            0 |            0 |            0 |            0 |            0 |            0 |            0 |            0 |            0 |            0 |            0 |            0 |            0 |            0 |            0 |            0 |            0 |            0 |            0 |            0 |            0 |            0 |            0 |            0 |            0 |            0 |            0 |            0 |            0 |            0 |            0 |
itlb.writebacks                                  0 |            0 |            0 |            0 |            0 |            0 |            0 |            0 |            0 |            0 |            0 |            0 |            0 |            0 |            0 |            0 |            0 |            0 |            0 |            0 |            0 |            0 |            0 |            0 |            0 |            0 |            0 |            0 |            0 |            0 |            0 |            0 |            0 |            0 |            0 |            0 |            0 |            0 |            0 |            0 |            0 |            0 |            0 |            0 |
itlb.invalidations                               0 |            0 |            0 |            0 |            0 |            0 |            0 |            0 |            0 |            0 |            0 |            0 |            0 |            0 |            0 |            0 |            0 |            0 |            0 |            0 |            0 |            0 |            0 |            0 |            0 |            0 |            0 |            0 |            0 |            0 |            0 |            0 |            0 |            0 |            0 |            0 |            0 |            0 |            0 |            0 |            0 |            0 |            0 |            0 |
itlb.miss_rate                              0.0000 |       0.0000 |       0.0000 |       0.0000 |       0.0000 |       0.0000 |       0.0000 |       0.0000 |       0.0000 |       0.0000 |       0.0000 |       0.0000 |       0.0000 |       0.0000 |       0.0000 |       0.0000 |       0.0000 |       0.0000 |       0.0000 |       0.0000 |       0.0000 |       0.0000 |       0.0000 |       0.0000 |       0.0000 |       0.0000 |       0.0000 |       0.0000 |       0.0000 |       0.0000 |       0.0000 |       0.0000 |       0.0000 |       0.0000 |       0.0000 |       0.0000 |       0.0000 |       0.0000 |       0.0000 |       0.0000 |       0.0000 |       0.0000 |       0.0000 |       0.0000 |
itlb.repl_rate                              0.0000 |       0.0000 |       0.0000 |       0.0000 |       0.0000 |       0.0000 |       0.0000 |       0.0000 |       0.0000 |       0.0000 |       0.0000 |       0.0000 |       0.0000 |       0.0000 |       0.0000 |       0.0000 |       0.0000 |       0.0000 |       0.0000 |       0.0000 |       0.0000 |       0.0000 |       0.0000 |       0.0000 |       0.0000 |       0.0000 |       0.0000 |       0.0000 |       0.0000 |       0.0000 |       0.0000 |       0.0000 |       0.0000 |       0.0000 |       0.0000 |       0.0000 |       0.0000 |       0.0000 |       0.0000 |       0.0000 |       0.0000 |       0.0000 |       0.0000 |       0.0000 |
itlb.wb_rate                                0.0000 |       0.0000 |       0.0000 |       0.0000 |       0.0000 |       0.0000 |       0.0000 |       0.0000 |       0.0000 |       0.0000 |       0.0000 |       0.0000 |       0.0000 |       0.0000 |       0.0000 |       0.0000 |       0.0000 |       0.0000 |       0.0000 |       0.0000 |       0.0000 |       0.0000 |       0.0000 |       0.0000 |       0.0000 |       0.0000 |       0.0000 |       0.0000 |       0.0000 |       0.0000 |       0.0000 |       0.0000 |       0.0000 |       0.0000 |       0.0000 |       0.0000 |       0.0000 |       0.0000 |       0.0000 |       0.0000 |       0.0000 |       0.0000 |       0.0000 |       0.0000 |
itlb.inv_rate                               0.0000 |       0.0000 |       0.0000 |       0.0000 |       0.0000 |       0.0000 |       0.0000 |       0.0000 |       0.0000 |       0.0000 |       0.0000 |       0.0000 |       0.0000 |       0.0000 |       0.0000 |       0.0000 |       0.0000 |       0.0000 |       0.0000 |       0.0000 |       0.0000 |       0.0000 |       0.0000 |       0.0000 |       0.0000 |       0.0000 |       0.0000 |       0.0000 |       0.0000 |       0.0000 |       0.0000 |       0.0000 |       0.0000 |       0.0000 |       0.0000 |       0.0000 |       0.0000 |       0.0000 |       0.0000 |       0.0000 |       0.0000 |       0.0000 |       0.0000 |       0.0000 |
dtlb.accesses                               142687 |       142687 |       142687 |       142687 |       299340 |       299340 |       299340 |       299340 |       628919 |       628919 |       628919 |       628919 |      1316774 |      1316774 |      1316774 |      1316774 |      2804970 |      2804970 |      2804970 |      2804970 |      5804086 |      5804086 |      5804086 |      5804086 |     12253050 |     12253050 |     12253050 |     12253050 |     25357020 |     25357020 |     25357020 |     25357020 |     52968957 |     52968957 |     52968957 |     52968957 |    110858062 |    110858062 |    110858062 |    110858062 |    229291664 |    229291664 |    229291664 |    229291664 |
dtlb.hits                                   142675 |       142675 |       142675 |       142675 |       299324 |       299324 |       299324 |       299324 |       628895 |       628895 |       628895 |       628895 |      1316734 |      1316734 |      1316734 |      1316734 |      2804898 |      2804898 |      2804898 |      2804898 |      5803904 |      5803904 |      5803904 |      5803904 |     12251978 |     12251978 |     12251978 |     12251978 |     25354426 |     25354426 |     25354426 |     25354426 |     52962474 |     52962474 |     52962474 |     52962474 |    110842224 |    110842224 |    110842224 |    110842224 |    229256502 |    229256502 |    229256502 |    229256502 |
dtlb.misses                                     12 |           12 |           12 |           12 |           16 |           16 |           16 |           16 |           24 |           24 |           24 |           24 |           40 |           40 |           40 |           40 |           72 |           72 |           72 |           72 |          182 |          182 |          182 |          182 |         1072 |         1072 |         1072 |         1072 |         2594 |         2594 |         2594 |         2594 |         6483 |         6483 |         6483 |         6483 |        15838 |        15838 |        15838 |        15838 |        35162 |        35162 |        35162 |        35162 |
dtlb.replacements                                0 |            0 |            0 |            0 |            0 |            0 |            0 |            0 |            0 |            0 |            0 |            0 |            0 |            0 |            0 |            0 |            0 |            0 |            0 |            0 |           54 |           54 |           54 |           54 |          944 |          944 |          944 |          944 |         2466 |         2466 |         2466 |         2466 |         6355 |         6355 |         6355 |         6355 |        15710 |        15710 |        15710 |        15710 |        35034 |        35034 |        35034 |        35034 |
dtlb.writebacks                                  0 |            0 |            0 |            0 |            0 |            0 |            0 |            0 |            0 |            0 |            0 |            0 |            0 |            0 |            0 |            0 |            0 |            0 |            0 |            0 |           52 |           52 |           52 |           52 |          937 |          937 |          937 |          937 |         2458 |         2458 |         2458 |         2458 |         6339 |         6339 |         6339 |         6339 |        15678 |        15678 |        15678 |        15678 |        34960 |        34960 |        34960 |        34960 |
dtlb.invalidations                               0 |            0 |            0 |            0 |            0 |            0 |            0 |            0 |            0 |            0 |            0 |            0 |            0 |            0 |            0 |            0 |            0 |            0 |            0 |            0 |            0 |            0 |            0 |            0 |            0 |            0 |            0 |            0 |            0 |            0 |            0 |            0 |            0 |            0 |            0 |            0 |            0 |            0 |            0 |            0 |            0 |            0 |            0 |            0 |
dtlb.miss_rate                              0.0001 |       0.0001 |       0.0001 |       0.0001 |       0.0001 |       0.0001 |       0.0001 |       0.0001 |       0.0000 |       0.0000 |       0.0000 |       0.0000 |       0.0000 |       0.0000 |       0.0000 |       0.0000 |       0.0000 |       0.0000 |       0.0000 |       0.0000 |       0.0000 |       0.0000 |       0.0000 |       0.0000 |       0.0001 |       0.0001 |       0.0001 |       0.0001 |       0.0001 |       0.0001 |       0.0001 |       0.0001 |       0.0001 |       0.0001 |       0.0001 |       0.0001 |       0.0001 |       0.0001 |       0.0001 |       0.0001 |       0.0002 |       0.0002 |       0.0002 |       0.0002 |
dtlb.repl_rate                              0.0000 |       0.0000 |       0.0000 |       0.0000 |       0.0000 |       0.0000 |       0.0000 |       0.0000 |       0.0000 |       0.0000 |       0.0000 |       0.0000 |       0.0000 |       0.0000 |       0.0000 |       0.0000 |       0.0000 |       0.0000 |       0.0000 |       0.0000 |       0.0000 |       0.0000 |       0.0000 |       0.0000 |       0.0001 |       0.0001 |       0.0001 |       0.0001 |       0.0001 |       0.0001 |       0.0001 |       0.0001 |       0.0001 |       0.0001 |       0.0001 |       0.0001 |       0.0001 |       0.0001 |       0.0001 |       0.0001 |       0.0002 |       0.0002 |       0.0002 |       0.0002 |
dtlb.wb_rate                                0.0000 |       0.0000 |       0.0000 |       0.0000 |       0.0000 |       0.0000 |       0.0000 |       0.0000 |       0.0000 |       0.0000 |       0.0000 |       0.0000 |       0.0000 |       0.0000 |       0.0000 |       0.0000 |       0.0000 |       0.0000 |       0.0000 |       0.0000 |       0.0000 |       0.0000 |       0.0000 |       0.0000 |       0.0001 |       0.0001 |       0.0001 |       0.0001 |       0.0001 |       0.0001 |       0.0001 |       0.0001 |       0.0001 |       0.0001 |       0.0001 |       0.0001 |       0.0001 |       0.0001 |       0.0001 |       0.0001 |       0.0002 |       0.0002 |       0.0002 |       0.0002 |
dtlb.inv_rate                               0.0000 |       0.0000 |       0.0000 |       0.0000 |       0.0000 |       0.0000 |       0.0000 |       0.0000 |       0.0000 |       0.0000 |       0.0000 |       0.0000 |       0.0000 |       0.0000 |       0.0000 |       0.0000 |       0.0000 |       0.0000 |       0.0000 |       0.0000 |       0.0000 |       0.0000 |       0.0000 |       0.0000 |       0.0000 |       0.0000 |       0.0000 |       0.0000 |       0.0000 |       0.0000 |       0.0000 |       0.0000 |       0.0000 |       0.0000 |       0.0000 |       0.0000 |       0.0000 |       0.0000 |       0.0000 |       0.0000 |       0.0000 |       0.0000 |       0.0000 |       0.0000 |
ld_text_base                            0x00400000 |   0x00400000 |   0x00400000 |   0x00400000 |   0x00400000 |   0x00400000 |   0x00400000 |   0x00400000 |   0x00400000 |   0x00400000 |   0x00400000 |   0x00400000 |   0x00400000 |   0x00400000 |   0x00400000 |   0x00400000 |   0x00400000 |   0x00400000 |   0x00400000 |   0x00400000 |   0x00400000 |   0x00400000 |   0x00400000 |   0x00400000 |   0x00400000 |   0x00400000 |   0x00400000 |   0x00400000 |   0x00400000 |   0x00400000 |   0x00400000 |   0x00400000 |   0x00400000 |   0x00400000 |   0x00400000 |   0x00400000 |   0x00400000 |   0x00400000 |   0x00400000 |   0x00400000 |   0x00400000 |   0x00400000 |   0x00400000 |   0x00400000 |
ld_text_size                                 74064 |        74064 |        74064 |        74064 |        74096 |        74096 |        74096 |        74096 |        74112 |        74112 |        74112 |        74112 |        74128 |        74128 |        74128 |        74128 |        74128 |        74128 |        74128 |        74128 |        74128 |        74128 |        74128 |        74128 |        74128 |        74128 |        74128 |        74128 |        74128 |        74128 |        74128 |        74128 |        74128 |        74128 |        74128 |        74128 |        74128 |        74128 |        74128 |        74128 |        74128 |        74128 |        74128 |        74128 |
ld_data_base                            0x10000000 |   0x10000000 |   0x10000000 |   0x10000000 |   0x10000000 |   0x10000000 |   0x10000000 |   0x10000000 |   0x10000000 |   0x10000000 |   0x10000000 |   0x10000000 |   0x10000000 |   0x10000000 |   0x10000000 |   0x10000000 |   0x10000000 |   0x10000000 |   0x10000000 |   0x10000000 |   0x10000000 |   0x10000000 |   0x10000000 |   0x10000000 |   0x10000000 |   0x10000000 |   0x10000000 |   0x10000000 |   0x10000000 |   0x10000000 |   0x10000000 |   0x10000000 |   0x10000000 |   0x10000000 |   0x10000000 |   0x10000000 |   0x10000000 |   0x10000000 |   0x10000000 |   0x10000000 |   0x10000000 |   0x10000000 |   0x10000000 |   0x10000000 |
ld_data_size                                  8192 |         8192 |         8192 |         8192 |         8192 |         8192 |         8192 |         8192 |         8192 |         8192 |         8192 |         8192 |         8192 |         8192 |         8192 |         8192 |         8192 |         8192 |         8192 |         8192 |         8192 |         8192 |         8192 |         8192 |         8192 |         8192 |         8192 |         8192 |         8192 |         8192 |         8192 |         8192 |         8192 |         8192 |         8192 |         8192 |         8192 |         8192 |         8192 |         8192 |         8192 |         8192 |         8192 |         8192 |
ld_stack_base                           0x7fffc000 |   0x7fffc000 |   0x7fffc000 |   0x7fffc000 |   0x7fffc000 |   0x7fffc000 |   0x7fffc000 |   0x7fffc000 |   0x7fffc000 |   0x7fffc000 |   0x7fffc000 |   0x7fffc000 |   0x7fffc000 |   0x7fffc000 |   0x7fffc000 |   0x7fffc000 |   0x7fffc000 |   0x7fffc000 |   0x7fffc000 |   0x7fffc000 |   0x7fffc000 |   0x7fffc000 |   0x7fffc000 |   0x7fffc000 |   0x7fffc000 |   0x7fffc000 |   0x7fffc000 |   0x7fffc000 |   0x7fffc000 |   0x7fffc000 |   0x7fffc000 |   0x7fffc000 |   0x7fffc000 |   0x7fffc000 |   0x7fffc000 |   0x7fffc000 |   0x7fffc000 |   0x7fffc000 |   0x7fffc000 |   0x7fffc000 |   0x7fffc000 |   0x7fffc000 |   0x7fffc000 |   0x7fffc000 |
ld_stack_size                                16384 |        16384 |        16384 |        16384 |        16384 |        16384 |        16384 |        16384 |        16384 |        16384 |        16384 |        16384 |        16384 |        16384 |        16384 |        16384 |        16384 |        16384 |        16384 |        16384 |        16384 |        16384 |        16384 |        16384 |        16384 |        16384 |        16384 |        16384 |        16384 |        16384 |        16384 |        16384 |        16384 |        16384 |        16384 |        16384 |        16384 |        16384 |        16384 |        16384 |        16384 |        16384 |        16384 |        16384 |
ld_prog_entry                           0x00400140 |   0x00400140 |   0x00400140 |   0x00400140 |   0x00400140 |   0x00400140 |   0x00400140 |   0x00400140 |   0x00400140 |   0x00400140 |   0x00400140 |   0x00400140 |   0x00400140 |   0x00400140 |   0x00400140 |   0x00400140 |   0x00400140 |   0x00400140 |   0x00400140 |   0x00400140 |   0x00400140 |   0x00400140 |   0x00400140 |   0x00400140 |   0x00400140 |   0x00400140 |   0x00400140 |   0x00400140 |   0x00400140 |   0x00400140 |   0x00400140 |   0x00400140 |   0x00400140 |   0x00400140 |   0x00400140 |   0x00400140 |   0x00400140 |   0x00400140 |   0x00400140 |   0x00400140 |   0x00400140 |   0x00400140 |   0x00400140 |   0x00400140 |
ld_environ_base                         0x7fff8000 |   0x7fff8000 |   0x7fff8000 |   0x7fff8000 |   0x7fff8000 |   0x7fff8000 |   0x7fff8000 |   0x7fff8000 |   0x7fff8000 |   0x7fff8000 |   0x7fff8000 |   0x7fff8000 |   0x7fff8000 |   0x7fff8000 |   0x7fff8000 |   0x7fff8000 |   0x7fff8000 |   0x7fff8000 |   0x7fff8000 |   0x7fff8000 |   0x7fff8000 |   0x7fff8000 |   0x7fff8000 |   0x7fff8000 |   0x7fff8000 |   0x7fff8000 |   0x7fff8000 |   0x7fff8000 |   0x7fff8000 |   0x7fff8000 |   0x7fff8000 |   0x7fff8000 |   0x7fff8000 |   0x7fff8000 |   0x7fff8000 |   0x7fff8000 |   0x7fff8000 |   0x7fff8000 |   0x7fff8000 |   0x7fff8000 |   0x7fff8000 |   0x7fff8000 |   0x7fff8000 |   0x7fff8000 |
ld_target_big_endian                             0 |            0 |            0 |            0 |            0 |            0 |            0 |            0 |            0 |            0 |            0 |            0 |            0 |            0 |            0 |            0 |            0 |            0 |            0 |            0 |            0 |            0 |            0 |            0 |            0 |            0 |            0 |            0 |            0 |            0 |            0 |            0 |            0 |            0 |            0 |            0 |            0 |            0 |            0 |            0 |            0 |            0 |            0 |            0 |
mem.page_count                                  31 |           31 |           31 |           31 |           35 |           35 |           35 |           35 |           43 |           43 |           43 |           43 |           59 |           59 |           59 |           59 |           91 |           91 |           91 |           91 |          155 |          155 |          155 |          155 |          283 |          283 |          283 |          283 |          539 |          539 |          539 |          539 |         1051 |         1051 |         1051 |         1051 |         2075 |         2075 |         2075 |         2075 |         4123 |         4123 |         4123 |         4123 |
mem.page_mem                                  124k |         124k |         124k |         124k |         140k |         140k |         140k |         140k |         172k |         172k |         172k |         172k |         236k |         236k |         236k |         236k |         364k |         364k |         364k |         364k |         620k |         620k |         620k |         620k |        1132k |        1132k |        1132k |        1132k |        2156k |        2156k |        2156k |        2156k |        4204k |        4204k |        4204k |        4204k |        8300k |        8300k |        8300k |        8300k |       16492k |       16492k |       16492k |       16492k |
mem.ptab_misses                                 31 |           31 |           31 |           31 |           35 |           35 |           35 |           35 |           43 |           43 |           43 |           43 |           59 |           59 |           59 |           59 |           91 |           91 |           91 |           91 |          155 |          155 |          155 |          155 |          283 |          283 |          283 |          283 |          539 |          539 |          539 |          539 |         1051 |         1051 |         1051 |         1051 |         2075 |         2075 |         2075 |         2075 |         4123 |         4123 |         4123 |         4123 |
mem.ptab_accesses                          2653666 |      2653666 |      2653666 |      2653666 |      5182928 |      5182928 |      5182928 |      5182928 |     10494934 |     10494934 |     10494934 |     10494934 |     21646320 |     21646320 |     21646320 |     21646320 |     46675200 |     46675200 |     46675200 |     46675200 |     95527324 |     95527324 |     95527324 |     95527324 |    204299124 |    204299124 |    204299124 |    204299124 |    421534168 |    421534168 |    421534168 |    421534168 |    885738642 |    885738642 |    885738642 |    885738642 |   1870625280 |   1870625280 |   1870625280 |   1870625280 |   3871866304 |   3871866304 |   3871866304 |   3871866304 |
mem.ptab_miss_rate                          0.0000 |       0.0000 |       0.0000 |       0.0000 |       0.0000 |       0.0000 |       0.0000 |       0.0000 |       0.0000 |       0.0000 |       0.0000 |       0.0000 |       0.0000 |       0.0000 |       0.0000 |       0.0000 |       0.0000 |       0.0000 |       0.0000 |       0.0000 |       0.0000 |       0.0000 |       0.0000 |       0.0000 |       0.0000 |       0.0000 |       0.0000 |       0.0000 |       0.0000 |       0.0000 |       0.0000 |       0.0000 |       0.0000 |       0.0000 |       0.0000 |       0.0000 |       0.0000 |       0.0000 |       0.0000 |       0.0000 |       0.0000 |       0.0000 |       0.0000 |       0.0000 |
-------------------------------------------------------------------------------------------------
sim-bpred                                     4096 |         4096 |         4096 |         4096 |         4096 |         4096 |         4096 |         8192 |         8192 |         8192 |         8192 |         8192 |         8192 |         8192 |        16384 |        16384 |        16384 |        16384 |        16384 |        16384 |        16384 |        32768 |        32768 |        32768 |        32768 |        32768 |        32768 |        32768 |        65536 |        65536 |        65536 |        65536 |        65536 |        65536 |        65536 |       131072 |       131072 |       131072 |       131072 |       131072 |       131072 |       131072 |       262144 |       262144 |       262144 |       262144 |       262144 |       262144 |       262144 |       524288 |       524288 |       524288 |       524288 |       524288 |       524288 |       524288 |      1048576 |      1048576 |      1048576 |      1048576 |      1048576 |      1048576 |      1048576 |      2097152 |      2097152 |      2097152 |      2097152 |      2097152 |      2097152 |      2097152 |      4194304 |      4194304 |      4194304 |      4194304 |      4194304 |      4194304 |      4194304 |
-bpred bimod -bpred:bimod 512
-bpred bimod -bpred:bimod 1024
-bpred bimod -bpred:bimod 2048
-bpred 2lev -bpred:2lev 1 512 10 1
-bpred 2lev -bpred:2lev 1 1024 10 1
-bpred 2lev -bpred:2lev 1 2048 10 1
-bpred 2lev -bpred:2lev 1 4096 10 1
-------------------------------------------------------------------------------------------------
sim_num_insn                                477321 |       477321 |       477321 |       477321 |       477321 |       477321 |       477321 |      1031262 |      1031262 |      1031262 |      1031262 |      1031262 |      1031262 |      1031262 |      2194450 |      2194450 |      2194450 |      2194450 |      2194450 |      2194450 |      2194450 |      4638345 |      4638345 |      4638345 |      4638345 |      4638345 |      4638345 |      4638345 |     10151467 |     10151467 |     10151467 |     10151467 |     10151467 |     10151467 |     10151467 |     20864940 |     20864940 |     20864940 |     20864940 |     20864940 |     20864940 |     20864940 |     44833408 |     44833408 |     44833408 |     44833408 |     44833408 |     44833408 |     44833408 |     92590184 |     92590184 |     92590184 |     92590184 |     92590184 |     92590184 |     92590184 |    194835334 |    194835334 |    194835334 |    194835334 |    194835334 |    194835334 |    194835334 |    412112441 |    412112441 |    412112441 |    412112441 |    412112441 |    412112441 |    412112441 |    853205896 |    853205896 |    853205896 |    853205896 |    853205896 |    853205896 |    853205896 |
sim_num_refs                                126221 |       126221 |       126221 |       126221 |       126221 |       126221 |       126221 |       266490 |       266490 |       266490 |       266490 |       266490 |       266490 |       266490 |       563301 |       563301 |       563301 |       563301 |       563301 |       563301 |       563301 |      1185620 |      1185620 |      1185620 |      1185620 |      1185620 |      1185620 |      1185620 |      2542744 |      2542744 |      2542744 |      2542744 |      2542744 |      2542744 |      2542744 |      5279716 |      5279716 |      5279716 |      5279716 |      5279716 |      5279716 |      5279716 |     11204392 |     11204392 |     11204392 |     11204392 |     11204392 |     11204392 |     11204392 |     23259786 |     23259786 |     23259786 |     23259786 |     23259786 |     23259786 |     23259786 |     48774571 |     48774571 |     48774571 |     48774571 |     48774571 |     48774571 |     48774571 |    102469372 |    102469372 |    102469372 |    102469372 |    102469372 |    102469372 |    102469372 |    212514366 |    212514366 |    212514366 |    212514366 |    212514366 |    212514366 |    212514366 |
sim_elapsed_time                                 1 |            1 |            1 |            1 |            1 |            1 |            1 |            1 |            1 |            1 |            1 |            1 |            1 |            1 |            1 |            1 |            1 |            1 |            1 |            1 |            1 |            1 |            1 |            1 |            1 |            1 |            1 |            1 |            2 |            1 |            1 |            1 |            2 |            1 |            1 |            3 |            2 |            3 |            2 |            3 |            2 |            3 |            6 |            5 |            5 |            5 |            6 |            5 |            5 |           11 |           10 |           11 |           11 |           11 |           11 |           11 |           22 |           23 |           23 |           23 |           23 |           23 |           23 |           48 |           48 |           48 |           49 |           48 |           49 |           50 |           99 |          100 |           99 |          100 |          100 |          101 |          103 |
sim_inst_rate                          477321.0000 |  477321.0000 |  477321.0000 |  477321.0000 |  477321.0000 |  477321.0000 |  477321.0000 | 1031262.0000 | 1031262.0000 | 1031262.0000 | 1031262.0000 | 1031262.0000 | 1031262.0000 | 1031262.0000 | 2194450.0000 | 2194450.0000 | 2194450.0000 | 2194450.0000 | 2194450.0000 | 2194450.0000 | 2194450.0000 | 4638345.0000 | 4638345.0000 | 4638345.0000 | 4638345.0000 | 4638345.0000 | 4638345.0000 | 4638345.0000 | 5075733.5000 |10151467.0000 |10151467.0000 |10151467.0000 | 5075733.5000 |10151467.0000 |10151467.0000 | 6954980.0000 |10432470.0000 | 6954980.0000 |10432470.0000 | 6954980.0000 |10432470.0000 | 6954980.0000 | 7472234.6667 | 8966681.6000 | 8966681.6000 | 8966681.6000 | 7472234.6667 | 8966681.6000 | 8966681.6000 | 8417289.4545 | 9259018.4000 | 8417289.4545 | 8417289.4545 | 8417289.4545 | 8417289.4545 | 8417289.4545 | 8856151.5455 | 8471101.4783 | 8471101.4783 | 8471101.4783 | 8471101.4783 | 8471101.4783 | 8471101.4783 | 8585675.8542 | 8585675.8542 | 8585675.8542 | 8410457.9796 | 8585675.8542 | 8410457.9796 | 8242248.8200 | 8618241.3737 | 8532058.9600 | 8618241.3737 | 8532058.9600 | 8532058.9600 | 8447583.1287 | 8283552.3883 |
sim_num_branches                             75297 |        75297 |        75297 |        75297 |        75297 |        75297 |        75297 |       164503 |       164503 |       164503 |       164503 |       164503 |       164503 |       164503 |       353856 |       353856 |       353856 |       353856 |       353856 |       353856 |       353856 |       754020 |       754020 |       754020 |       754020 |       754020 |       754020 |       754020 |      1657522 |      1657522 |      1657522 |      1657522 |      1657522 |      1657522 |      1657522 |      3429917 |      3429917 |      3429917 |      3429917 |      3429917 |      3429917 |      3429917 |      7397211 |      7397211 |      7397211 |      7397211 |      7397211 |      7397211 |      7397211 |     15358380 |     15358380 |     15358380 |     15358380 |     15358380 |     15358380 |     15358380 |     32484498 |     32484498 |     32484498 |     32484498 |     32484498 |     32484498 |     32484498 |     68951515 |     68951515 |     68951515 |     68951515 |     68951515 |     68951515 |     68951515 |    143335346 |    143335346 |    143335346 |    143335346 |    143335346 |    143335346 |    143335346 |
sim_IPB                                     6.3392 |       6.3392 |       6.3392 |       6.3392 |       6.3392 |       6.3392 |       6.3392 |       6.2690 |       6.2690 |       6.2690 |       6.2690 |       6.2690 |       6.2690 |       6.2690 |       6.2015 |       6.2015 |       6.2015 |       6.2015 |       6.2015 |       6.2015 |       6.2015 |       6.1515 |       6.1515 |       6.1515 |       6.1515 |       6.1515 |       6.1515 |       6.1515 |       6.1245 |       6.1245 |       6.1245 |       6.1245 |       6.1245 |       6.1245 |       6.1245 |       6.0832 |       6.0832 |       6.0832 |       6.0832 |       6.0832 |       6.0832 |       6.0832 |       6.0609 |       6.0609 |       6.0609 |       6.0609 |       6.0609 |       6.0609 |       6.0609 |       6.0286 |       6.0286 |       6.0286 |       6.0286 |       6.0286 |       6.0286 |       6.0286 |       5.9978 |       5.9978 |       5.9978 |       5.9978 |       5.9978 |       5.9978 |       5.9978 |       5.9768 |       5.9768 |       5.9768 |       5.9768 |       5.9768 |       5.9768 |       5.9768 |       5.9525 |       5.9525 |       5.9525 |       5.9525 |       5.9525 |       5.9525 |       5.9525 |
bpred_bimod.lookups                          75297 |        75297 |        75297 |xxxxxxxxxxxxx |xxxxxxxxxxxxx |xxxxxxxxxxxxx |xxxxxxxxxxxxx |       164503 |       164503 |       164503 |xxxxxxxxxxxxx |xxxxxxxxxxxxx |xxxxxxxxxxxxx |xxxxxxxxxxxxx |       353856 |       353856 |       353856 |xxxxxxxxxxxxx |xxxxxxxxxxxxx |xxxxxxxxxxxxx |xxxxxxxxxxxxx |       754020 |       754020 |       754020 |xxxxxxxxxxxxx |xxxxxxxxxxxxx |xxxxxxxxxxxxx |xxxxxxxxxxxxx |      1657522 |      1657522 |      1657522 |xxxxxxxxxxxxx |xxxxxxxxxxxxx |xxxxxxxxxxxxx |xxxxxxxxxxxxx |      3429917 |      3429917 |      3429917 |xxxxxxxxxxxxx |xxxxxxxxxxxxx |xxxxxxxxxxxxx |xxxxxxxxxxxxx |      7397211 |      7397211 |      7397211 |xxxxxxxxxxxxx |xxxxxxxxxxxxx |xxxxxxxxxxxxx |xxxxxxxxxxxxx |     15358380 |     15358380 |     15358380 |xxxxxxxxxxxxx |xxxxxxxxxxxxx |xxxxxxxxxxxxx |xxxxxxxxxxxxx |     32484498 |     32484498 |     32484498 |xxxxxxxxxxxxx |xxxxxxxxxxxxx |xxxxxxxxxxxxx |xxxxxxxxxxxxx |     68951515 |     68951515 |     68951515 |xxxxxxxxxxxxx |xxxxxxxxxxxxx |xxxxxxxxxxxxx |xxxxxxxxxxxxx |    143335346 |    143335346 |    143335346 |
bpred_bimod.updates                          75297 |        75297 |        75297 |xxxxxxxxxxxxx |xxxxxxxxxxxxx |xxxxxxxxxxxxx |xxxxxxxxxxxxx |       164503 |       164503 |       164503 |xxxxxxxxxxxxx |xxxxxxxxxxxxx |xxxxxxxxxxxxx |xxxxxxxxxxxxx |       353856 |       353856 |       353856 |xxxxxxxxxxxxx |xxxxxxxxxxxxx |xxxxxxxxxxxxx |xxxxxxxxxxxxx |       754020 |       754020 |       754020 |xxxxxxxxxxxxx |xxxxxxxxxxxxx |xxxxxxxxxxxxx |xxxxxxxxxxxxx |      1657522 |      1657522 |      1657522 |xxxxxxxxxxxxx |xxxxxxxxxxxxx |xxxxxxxxxxxxx |xxxxxxxxxxxxx |      3429917 |      3429917 |      3429917 |xxxxxxxxxxxxx |xxxxxxxxxxxxx |xxxxxxxxxxxxx |xxxxxxxxxxxxx |      7397211 |      7397211 |      7397211 |xxxxxxxxxxxxx |xxxxxxxxxxxxx |xxxxxxxxxxxxx |xxxxxxxxxxxxx |     15358380 |     15358380 |     15358380 |xxxxxxxxxxxxx |xxxxxxxxxxxxx |xxxxxxxxxxxxx |xxxxxxxxxxxxx |     32484498 |     32484498 |     32484498 |xxxxxxxxxxxxx |xxxxxxxxxxxxx |xxxxxxxxxxxxx |xxxxxxxxxxxxx |     68951515 |     68951515 |     68951515 |xxxxxxxxxxxxx |xxxxxxxxxxxxx |xxxxxxxxxxxxx |xxxxxxxxxxxxx |    143335346 |    143335346 |    143335346 |
bpred_bimod.addr_hits                        52433 |        52433 |        52434 |xxxxxxxxxxxxx |xxxxxxxxxxxxx |xxxxxxxxxxxxx |xxxxxxxxxxxxx |       115737 |       115738 |       115741 |xxxxxxxxxxxxx |xxxxxxxxxxxxx |xxxxxxxxxxxxx |xxxxxxxxxxxxx |       249190 |       249193 |       249194 |xxxxxxxxxxxxx |xxxxxxxxxxxxx |xxxxxxxxxxxxx |xxxxxxxxxxxxx |       526869 |       526871 |       526871 |xxxxxxxxxxxxx |xxxxxxxxxxxxx |xxxxxxxxxxxxx |xxxxxxxxxxxxx |      1192713 |      1192716 |      1192717 |xxxxxxxxxxxxx |xxxxxxxxxxxxx |xxxxxxxxxxxxx |xxxxxxxxxxxxx |      2406809 |      2406812 |      2406813 |xxxxxxxxxxxxx |xxxxxxxxxxxxx |xxxxxxxxxxxxx |xxxxxxxxxxxxx |      5286814 |      5286818 |      5286819 |xxxxxxxxxxxxx |xxxxxxxxxxxxx |xxxxxxxxxxxxx |xxxxxxxxxxxxx |     10782844 |     10782845 |     10782845 |xxxxxxxxxxxxx |xxxxxxxxxxxxx |xxxxxxxxxxxxx |xxxxxxxxxxxxx |     22904524 |     22904526 |     22904526 |xxxxxxxxxxxxx |xxxxxxxxxxxxx |xxxxxxxxxxxxx |xxxxxxxxxxxxx |     48959343 |     48959344 |     48959344 |xxxxxxxxxxxxx |xxxxxxxxxxxxx |xxxxxxxxxxxxx |xxxxxxxxxxxxx |    101493413 |    101493416 |    101493417 |
bpred_bimod.dir_hits                         52552 |        52549 |        52550 |xxxxxxxxxxxxx |xxxxxxxxxxxxx |xxxxxxxxxxxxx |xxxxxxxxxxxxx |       115855 |       115853 |       115855 |xxxxxxxxxxxxx |xxxxxxxxxxxxx |xxxxxxxxxxxxx |xxxxxxxxxxxxx |       249307 |       249307 |       249307 |xxxxxxxxxxxxx |xxxxxxxxxxxxx |xxxxxxxxxxxxx |xxxxxxxxxxxxx |       526984 |       526983 |       526983 |xxxxxxxxxxxxx |xxxxxxxxxxxxx |xxxxxxxxxxxxx |xxxxxxxxxxxxx |      1192830 |      1192829 |      1192830 |xxxxxxxxxxxxx |xxxxxxxxxxxxx |xxxxxxxxxxxxx |xxxxxxxxxxxxx |      2406926 |      2406925 |      2406926 |xxxxxxxxxxxxx |xxxxxxxxxxxxx |xxxxxxxxxxxxx |xxxxxxxxxxxxx |      5286932 |      5286933 |      5286934 |xxxxxxxxxxxxx |xxxxxxxxxxxxx |xxxxxxxxxxxxx |xxxxxxxxxxxxx |     10782962 |     10782959 |     10782958 |xxxxxxxxxxxxx |xxxxxxxxxxxxx |xxxxxxxxxxxxx |xxxxxxxxxxxxx |     22904645 |     22904643 |     22904641 |xxxxxxxxxxxxx |xxxxxxxxxxxxx |xxxxxxxxxxxxx |xxxxxxxxxxxxx |     48959463 |     48959460 |     48959459 |xxxxxxxxxxxxx |xxxxxxxxxxxxx |xxxxxxxxxxxxx |xxxxxxxxxxxxx |    101493529 |    101493528 |    101493529 |
bpred_bimod.misses                           22745 |        22748 |        22747 |xxxxxxxxxxxxx |xxxxxxxxxxxxx |xxxxxxxxxxxxx |xxxxxxxxxxxxx |        48648 |        48650 |        48648 |xxxxxxxxxxxxx |xxxxxxxxxxxxx |xxxxxxxxxxxxx |xxxxxxxxxxxxx |       104549 |       104549 |       104549 |xxxxxxxxxxxxx |xxxxxxxxxxxxx |xxxxxxxxxxxxx |xxxxxxxxxxxxx |       227036 |       227037 |       227037 |xxxxxxxxxxxxx |xxxxxxxxxxxxx |xxxxxxxxxxxxx |xxxxxxxxxxxxx |       464692 |       464693 |       464692 |xxxxxxxxxxxxx |xxxxxxxxxxxxx |xxxxxxxxxxxxx |xxxxxxxxxxxxx |      1022991 |      1022992 |      1022991 |xxxxxxxxxxxxx |xxxxxxxxxxxxx |xxxxxxxxxxxxx |xxxxxxxxxxxxx |      2110279 |      2110278 |      2110277 |xxxxxxxxxxxxx |xxxxxxxxxxxxx |xxxxxxxxxxxxx |xxxxxxxxxxxxx |      4575418 |      4575421 |      4575422 |xxxxxxxxxxxxx |xxxxxxxxxxxxx |xxxxxxxxxxxxx |xxxxxxxxxxxxx |      9579853 |      9579855 |      9579857 |xxxxxxxxxxxxx |xxxxxxxxxxxxx |xxxxxxxxxxxxx |xxxxxxxxxxxxx |     19992052 |     19992055 |     19992056 |xxxxxxxxxxxxx |xxxxxxxxxxxxx |xxxxxxxxxxxxx |xxxxxxxxxxxxx |     41841817 |     41841818 |     41841817 |
bpred_bimod.jr_hits                             64 |           64 |           64 |xxxxxxxxxxxxx |xxxxxxxxxxxxx |xxxxxxxxxxxxx |xxxxxxxxxxxxx |           64 |           64 |           64 |xxxxxxxxxxxxx |xxxxxxxxxxxxx |xxxxxxxxxxxxx |xxxxxxxxxxxxx |           64 |           64 |           64 |xxxxxxxxxxxxx |xxxxxxxxxxxxx |xxxxxxxxxxxxx |xxxxxxxxxxxxx |           64 |           64 |           64 |xxxxxxxxxxxxx |xxxxxxxxxxxxx |xxxxxxxxxxxxx |xxxxxxxxxxxxx |           64 |           64 |           64 |xxxxxxxxxxxxx |xxxxxxxxxxxxx |xxxxxxxxxxxxx |xxxxxxxxxxxxx |           64 |           64 |           64 |xxxxxxxxxxxxx |xxxxxxxxxxxxx |xxxxxxxxxxxxx |xxxxxxxxxxxxx |           64 |           64 |           64 |xxxxxxxxxxxxx |xxxxxxxxxxxxx |xxxxxxxxxxxxx |xxxxxxxxxxxxx |           64 |           64 |           64 |xxxxxxxxxxxxx |xxxxxxxxxxxxx |xxxxxxxxxxxxx |xxxxxxxxxxxxx |           64 |           64 |           64 |xxxxxxxxxxxxx |xxxxxxxxxxxxx |xxxxxxxxxxxxx |xxxxxxxxxxxxx |           64 |           64 |           64 |xxxxxxxxxxxxx |xxxxxxxxxxxxx |xxxxxxxxxxxxx |xxxxxxxxxxxxx |           64 |           64 |           64 |
bpred_bimod.jr_seen                             64 |           64 |           64 |xxxxxxxxxxxxx |xxxxxxxxxxxxx |xxxxxxxxxxxxx |xxxxxxxxxxxxx |           64 |           64 |           64 |xxxxxxxxxxxxx |xxxxxxxxxxxxx |xxxxxxxxxxxxx |xxxxxxxxxxxxx |           64 |           64 |           64 |xxxxxxxxxxxxx |xxxxxxxxxxxxx |xxxxxxxxxxxxx |xxxxxxxxxxxxx |           64 |           64 |           64 |xxxxxxxxxxxxx |xxxxxxxxxxxxx |xxxxxxxxxxxxx |xxxxxxxxxxxxx |           64 |           64 |           64 |xxxxxxxxxxxxx |xxxxxxxxxxxxx |xxxxxxxxxxxxx |xxxxxxxxxxxxx |           64 |           64 |           64 |xxxxxxxxxxxxx |xxxxxxxxxxxxx |xxxxxxxxxxxxx |xxxxxxxxxxxxx |           64 |           64 |           64 |xxxxxxxxxxxxx |xxxxxxxxxxxxx |xxxxxxxxxxxxx |xxxxxxxxxxxxx |           64 |           64 |           64 |xxxxxxxxxxxxx |xxxxxxxxxxxxx |xxxxxxxxxxxxx |xxxxxxxxxxxxx |           64 |           64 |           64 |xxxxxxxxxxxxx |xxxxxxxxxxxxx |xxxxxxxxxxxxx |xxxxxxxxxxxxx |           64 |           64 |           64 |xxxxxxxxxxxxx |xxxxxxxxxxxxx |xxxxxxxxxxxxx |xxxxxxxxxxxxx |           64 |           64 |           64 |
bpred_bimod.jr_non_ras_hits.PP                   0 |            0 |            0 |xxxxxxxxxxxxx |xxxxxxxxxxxxx |xxxxxxxxxxxxx |xxxxxxxxxxxxx |            0 |            0 |            0 |xxxxxxxxxxxxx |xxxxxxxxxxxxx |xxxxxxxxxxxxx |xxxxxxxxxxxxx |            0 |            0 |            0 |xxxxxxxxxxxxx |xxxxxxxxxxxxx |xxxxxxxxxxxxx |xxxxxxxxxxxxx |            0 |            0 |            0 |xxxxxxxxxxxxx |xxxxxxxxxxxxx |xxxxxxxxxxxxx |xxxxxxxxxxxxx |            0 |            0 |            0 |xxxxxxxxxxxxx |xxxxxxxxxxxxx |xxxxxxxxxxxxx |xxxxxxxxxxxxx |            0 |            0 |            0 |xxxxxxxxxxxxx |xxxxxxxxxxxxx |xxxxxxxxxxxxx |xxxxxxxxxxxxx |            0 |            0 |            0 |xxxxxxxxxxxxx |xxxxxxxxxxxxx |xxxxxxxxxxxxx |xxxxxxxxxxxxx |            0 |            0 |            0 |xxxxxxxxxxxxx |xxxxxxxxxxxxx |xxxxxxxxxxxxx |xxxxxxxxxxxxx |            0 |            0 |            0 |xxxxxxxxxxxxx |xxxxxxxxxxxxx |xxxxxxxxxxxxx |xxxxxxxxxxxxx |            0 |            0 |            0 |xxxxxxxxxxxxx |xxxxxxxxxxxxx |xxxxxxxxxxxxx |xxxxxxxxxxxxx |            0 |            0 |            0 |
bpred_bimod.jr_non_ras_seen.PP                   0 |            0 |            0 |xxxxxxxxxxxxx |xxxxxxxxxxxxx |xxxxxxxxxxxxx |xxxxxxxxxxxxx |            0 |            0 |            0 |xxxxxxxxxxxxx |xxxxxxxxxxxxx |xxxxxxxxxxxxx |xxxxxxxxxxxxx |            0 |            0 |            0 |xxxxxxxxxxxxx |xxxxxxxxxxxxx |xxxxxxxxxxxxx |xxxxxxxxxxxxx |            0 |            0 |            0 |xxxxxxxxxxxxx |xxxxxxxxxxxxx |xxxxxxxxxxxxx |xxxxxxxxxxxxx |            0 |            0 |            0 |xxxxxxxxxxxxx |xxxxxxxxxxxxx |xxxxxxxxxxxxx |xxxxxxxxxxxxx |            0 |            0 |            0 |xxxxxxxxxxxxx |xxxxxxxxxxxxx |xxxxxxxxxxxxx |xxxxxxxxxxxxx |            0 |            0 |            0 |xxxxxxxxxxxxx |xxxxxxxxxxxxx |xxxxxxxxxxxxx |xxxxxxxxxxxxx |            0 |            0 |            0 |xxxxxxxxxxxxx |xxxxxxxxxxxxx |xxxxxxxxxxxxx |xxxxxxxxxxxxx |            0 |            0 |            0 |xxxxxxxxxxxxx |xxxxxxxxxxxxx |xxxxxxxxxxxxx |xxxxxxxxxxxxx |            0 |            0 |            0 |xxxxxxxxxxxxx |xxxxxxxxxxxxx |xxxxxxxxxxxxx |xxxxxxxxxxxxx |            0 |            0 |            0 |
bpred_bimod.bpred_addr_rate                 0.6963 |       0.6963 |       0.6964 |xxxxxxxxxxxxx |xxxxxxxxxxxxx |xxxxxxxxxxxxx |xxxxxxxxxxxxx |       0.7036 |       0.7036 |       0.7036 |xxxxxxxxxxxxx |xxxxxxxxxxxxx |xxxxxxxxxxxxx |xxxxxxxxxxxxx |       0.7042 |       0.7042 |       0.7042 |xxxxxxxxxxxxx |xxxxxxxxxxxxx |xxxxxxxxxxxxx |xxxxxxxxxxxxx |       0.6987 |       0.6987 |       0.6987 |xxxxxxxxxxxxx |xxxxxxxxxxxxx |xxxxxxxxxxxxx |xxxxxxxxxxxxx |       0.7196 |       0.7196 |       0.7196 |xxxxxxxxxxxxx |xxxxxxxxxxxxx |xxxxxxxxxxxxx |xxxxxxxxxxxxx |       0.7017 |       0.7017 |       0.7017 |xxxxxxxxxxxxx |xxxxxxxxxxxxx |xxxxxxxxxxxxx |xxxxxxxxxxxxx |       0.7147 |       0.7147 |       0.7147 |xxxxxxxxxxxxx |xxxxxxxxxxxxx |xxxxxxxxxxxxx |xxxxxxxxxxxxx |       0.7021 |       0.7021 |       0.7021 |xxxxxxxxxxxxx |xxxxxxxxxxxxx |xxxxxxxxxxxxx |xxxxxxxxxxxxx |       0.7051 |       0.7051 |       0.7051 |xxxxxxxxxxxxx |xxxxxxxxxxxxx |xxxxxxxxxxxxx |xxxxxxxxxxxxx |       0.7101 |       0.7101 |       0.7101 |xxxxxxxxxxxxx |xxxxxxxxxxxxx |xxxxxxxxxxxxx |xxxxxxxxxxxxx |       0.7081 |       0.7081 |       0.7081 |
bpred_bimod.bpred_dir_rate                  0.6979 |       0.6979 |       0.6979 |xxxxxxxxxxxxx |xxxxxxxxxxxxx |xxxxxxxxxxxxx |xxxxxxxxxxxxx |       0.7043 |       0.7043 |       0.7043 |xxxxxxxxxxxxx |xxxxxxxxxxxxx |xxxxxxxxxxxxx |xxxxxxxxxxxxx |       0.7045 |       0.7045 |       0.7045 |xxxxxxxxxxxxx |xxxxxxxxxxxxx |xxxxxxxxxxxxx |xxxxxxxxxxxxx |       0.6989 |       0.6989 |       0.6989 |xxxxxxxxxxxxx |xxxxxxxxxxxxx |xxxxxxxxxxxxx |xxxxxxxxxxxxx |       0.7196 |       0.7196 |       0.7196 |xxxxxxxxxxxxx |xxxxxxxxxxxxx |xxxxxxxxxxxxx |xxxxxxxxxxxxx |       0.7017 |       0.7017 |       0.7017 |xxxxxxxxxxxxx |xxxxxxxxxxxxx |xxxxxxxxxxxxx |xxxxxxxxxxxxx |       0.7147 |       0.7147 |       0.7147 |xxxxxxxxxxxxx |xxxxxxxxxxxxx |xxxxxxxxxxxxx |xxxxxxxxxxxxx |       0.7021 |       0.7021 |       0.7021 |xxxxxxxxxxxxx |xxxxxxxxxxxxx |xxxxxxxxxxxxx |xxxxxxxxxxxxx |       0.7051 |       0.7051 |       0.7051 |xxxxxxxxxxxxx |xxxxxxxxxxxxx |xxxxxxxxxxxxx |xxxxxxxxxxxxx |       0.7101 |       0.7101 |       0.7101 |xxxxxxxxxxxxx |xxxxxxxxxxxxx |xxxxxxxxxxxxx |xxxxxxxxxxxxx |       0.7081 |       0.7081 |       0.7081 |
bpred_bimod.bpred_jr_rate                   1.0000 |       1.0000 |       1.0000 |xxxxxxxxxxxxx |xxxxxxxxxxxxx |xxxxxxxxxxxxx |xxxxxxxxxxxxx |       1.0000 |       1.0000 |       1.0000 |xxxxxxxxxxxxx |xxxxxxxxxxxxx |xxxxxxxxxxxxx |xxxxxxxxxxxxx |       1.0000 |       1.0000 |       1.0000 |xxxxxxxxxxxxx |xxxxxxxxxxxxx |xxxxxxxxxxxxx |xxxxxxxxxxxxx |       1.0000 |       1.0000 |       1.0000 |xxxxxxxxxxxxx |xxxxxxxxxxxxx |xxxxxxxxxxxxx |xxxxxxxxxxxxx |       1.0000 |       1.0000 |       1.0000 |xxxxxxxxxxxxx |xxxxxxxxxxxxx |xxxxxxxxxxxxx |xxxxxxxxxxxxx |       1.0000 |       1.0000 |       1.0000 |xxxxxxxxxxxxx |xxxxxxxxxxxxx |xxxxxxxxxxxxx |xxxxxxxxxxxxx |       1.0000 |       1.0000 |       1.0000 |xxxxxxxxxxxxx |xxxxxxxxxxxxx |xxxxxxxxxxxxx |xxxxxxxxxxxxx |       1.0000 |       1.0000 |       1.0000 |xxxxxxxxxxxxx |xxxxxxxxxxxxx |xxxxxxxxxxxxx |xxxxxxxxxxxxx |       1.0000 |       1.0000 |       1.0000 |xxxxxxxxxxxxx |xxxxxxxxxxxxx |xxxxxxxxxxxxx |xxxxxxxxxxxxx |       1.0000 |       1.0000 |       1.0000 |xxxxxxxxxxxxx |xxxxxxxxxxxxx |xxxxxxxxxxxxx |xxxxxxxxxxxxx |       1.0000 |       1.0000 |       1.0000 |
bpred_bimod.bpred_jr_non_ras_rate.PP       <error: |      <error: |      <error: |xxxxxxxxxxxxx |xxxxxxxxxxxxx |xxxxxxxxxxxxx |xxxxxxxxxxxxx |      <error: |      <error: |      <error: |xxxxxxxxxxxxx |xxxxxxxxxxxxx |xxxxxxxxxxxxx |xxxxxxxxxxxxx |      <error: |      <error: |      <error: |xxxxxxxxxxxxx |xxxxxxxxxxxxx |xxxxxxxxxxxxx |xxxxxxxxxxxxx |      <error: |      <error: |      <error: |xxxxxxxxxxxxx |xxxxxxxxxxxxx |xxxxxxxxxxxxx |xxxxxxxxxxxxx |      <error: |      <error: |      <error: |xxxxxxxxxxxxx |xxxxxxxxxxxxx |xxxxxxxxxxxxx |xxxxxxxxxxxxx |      <error: |      <error: |      <error: |xxxxxxxxxxxxx |xxxxxxxxxxxxx |xxxxxxxxxxxxx |xxxxxxxxxxxxx |      <error: |      <error: |      <error: |xxxxxxxxxxxxx |xxxxxxxxxxxxx |xxxxxxxxxxxxx |xxxxxxxxxxxxx |      <error: |      <error: |      <error: |xxxxxxxxxxxxx |xxxxxxxxxxxxx |xxxxxxxxxxxxx |xxxxxxxxxxxxx |      <error: |      <error: |      <error: |xxxxxxxxxxxxx |xxxxxxxxxxxxx |xxxxxxxxxxxxx |xxxxxxxxxxxxx |      <error: |      <error: |      <error: |xxxxxxxxxxxxx |xxxxxxxxxxxxx |xxxxxxxxxxxxx |xxxxxxxxxxxxx |      <error: |      <error: |      <error: |
bpred_bimod.retstack_pushes                     66 |           66 |           66 |xxxxxxxxxxxxx |xxxxxxxxxxxxx |xxxxxxxxxxxxx |xxxxxxxxxxxxx |           66 |           66 |           66 |xxxxxxxxxxxxx |xxxxxxxxxxxxx |xxxxxxxxxxxxx |xxxxxxxxxxxxx |           66 |           66 |           66 |xxxxxxxxxxxxx |xxxxxxxxxxxxx |xxxxxxxxxxxxx |xxxxxxxxxxxxx |           66 |           66 |           66 |xxxxxxxxxxxxx |xxxxxxxxxxxxx |xxxxxxxxxxxxx |xxxxxxxxxxxxx |           66 |           66 |           66 |xxxxxxxxxxxxx |xxxxxxxxxxxxx |xxxxxxxxxxxxx |xxxxxxxxxxxxx |           66 |           66 |           66 |xxxxxxxxxxxxx |xxxxxxxxxxxxx |xxxxxxxxxxxxx |xxxxxxxxxxxxx |           66 |           66 |           66 |xxxxxxxxxxxxx |xxxxxxxxxxxxx |xxxxxxxxxxxxx |xxxxxxxxxxxxx |           66 |           66 |           66 |xxxxxxxxxxxxx |xxxxxxxxxxxxx |xxxxxxxxxxxxx |xxxxxxxxxxxxx |           66 |           66 |           66 |xxxxxxxxxxxxx |xxxxxxxxxxxxx |xxxxxxxxxxxxx |xxxxxxxxxxxxx |           66 |           66 |           66 |xxxxxxxxxxxxx |xxxxxxxxxxxxx |xxxxxxxxxxxxx |xxxxxxxxxxxxx |           66 |           66 |           66 |
bpred_bimod.retstack_pops                       64 |           64 |           64 |xxxxxxxxxxxxx |xxxxxxxxxxxxx |xxxxxxxxxxxxx |xxxxxxxxxxxxx |           64 |           64 |           64 |xxxxxxxxxxxxx |xxxxxxxxxxxxx |xxxxxxxxxxxxx |xxxxxxxxxxxxx |           64 |           64 |           64 |xxxxxxxxxxxxx |xxxxxxxxxxxxx |xxxxxxxxxxxxx |xxxxxxxxxxxxx |           64 |           64 |           64 |xxxxxxxxxxxxx |xxxxxxxxxxxxx |xxxxxxxxxxxxx |xxxxxxxxxxxxx |           64 |           64 |           64 |xxxxxxxxxxxxx |xxxxxxxxxxxxx |xxxxxxxxxxxxx |xxxxxxxxxxxxx |           64 |           64 |           64 |xxxxxxxxxxxxx |xxxxxxxxxxxxx |xxxxxxxxxxxxx |xxxxxxxxxxxxx |           64 |           64 |           64 |xxxxxxxxxxxxx |xxxxxxxxxxxxx |xxxxxxxxxxxxx |xxxxxxxxxxxxx |           64 |           64 |           64 |xxxxxxxxxxxxx |xxxxxxxxxxxxx |xxxxxxxxxxxxx |xxxxxxxxxxxxx |           64 |           64 |           64 |xxxxxxxxxxxxx |xxxxxxxxxxxxx |xxxxxxxxxxxxx |xxxxxxxxxxxxx |           64 |           64 |           64 |xxxxxxxxxxxxx |xxxxxxxxxxxxx |xxxxxxxxxxxxx |xxxxxxxxxxxxx |           64 |           64 |           64 |
bpred_bimod.used_ras.PP                         64 |           64 |           64 |xxxxxxxxxxxxx |xxxxxxxxxxxxx |xxxxxxxxxxxxx |xxxxxxxxxxxxx |           64 |           64 |           64 |xxxxxxxxxxxxx |xxxxxxxxxxxxx |xxxxxxxxxxxxx |xxxxxxxxxxxxx |           64 |           64 |           64 |xxxxxxxxxxxxx |xxxxxxxxxxxxx |xxxxxxxxxxxxx |xxxxxxxxxxxxx |           64 |           64 |           64 |xxxxxxxxxxxxx |xxxxxxxxxxxxx |xxxxxxxxxxxxx |xxxxxxxxxxxxx |           64 |           64 |           64 |xxxxxxxxxxxxx |xxxxxxxxxxxxx |xxxxxxxxxxxxx |xxxxxxxxxxxxx |           64 |           64 |           64 |xxxxxxxxxxxxx |xxxxxxxxxxxxx |xxxxxxxxxxxxx |xxxxxxxxxxxxx |           64 |           64 |           64 |xxxxxxxxxxxxx |xxxxxxxxxxxxx |xxxxxxxxxxxxx |xxxxxxxxxxxxx |           64 |           64 |           64 |xxxxxxxxxxxxx |xxxxxxxxxxxxx |xxxxxxxxxxxxx |xxxxxxxxxxxxx |           64 |           64 |           64 |xxxxxxxxxxxxx |xxxxxxxxxxxxx |xxxxxxxxxxxxx |xxxxxxxxxxxxx |           64 |           64 |           64 |xxxxxxxxxxxxx |xxxxxxxxxxxxx |xxxxxxxxxxxxx |xxxxxxxxxxxxx |           64 |           64 |           64 |
bpred_bimod.ras_hits.PP                         64 |           64 |           64 |xxxxxxxxxxxxx |xxxxxxxxxxxxx |xxxxxxxxxxxxx |xxxxxxxxxxxxx |           64 |           64 |           64 |xxxxxxxxxxxxx |xxxxxxxxxxxxx |xxxxxxxxxxxxx |xxxxxxxxxxxxx |           64 |           64 |           64 |xxxxxxxxxxxxx |xxxxxxxxxxxxx |xxxxxxxxxxxxx |xxxxxxxxxxxxx |           64 |           64 |           64 |xxxxxxxxxxxxx |xxxxxxxxxxxxx |xxxxxxxxxxxxx |xxxxxxxxxxxxx |           64 |           64 |           64 |xxxxxxxxxxxxx |xxxxxxxxxxxxx |xxxxxxxxxxxxx |xxxxxxxxxxxxx |           64 |           64 |           64 |xxxxxxxxxxxxx |xxxxxxxxxxxxx |xxxxxxxxxxxxx |xxxxxxxxxxxxx |           64 |           64 |           64 |xxxxxxxxxxxxx |xxxxxxxxxxxxx |xxxxxxxxxxxxx |xxxxxxxxxxxxx |           64 |           64 |           64 |xxxxxxxxxxxxx |xxxxxxxxxxxxx |xxxxxxxxxxxxx |xxxxxxxxxxxxx |           64 |           64 |           64 |xxxxxxxxxxxxx |xxxxxxxxxxxxx |xxxxxxxxxxxxx |xxxxxxxxxxxxx |           64 |           64 |           64 |xxxxxxxxxxxxx |xxxxxxxxxxxxx |xxxxxxxxxxxxx |xxxxxxxxxxxxx |           64 |           64 |           64 |
bpred_bimod.ras_rate.PP                     1.0000 |       1.0000 |       1.0000 |xxxxxxxxxxxxx |xxxxxxxxxxxxx |xxxxxxxxxxxxx |xxxxxxxxxxxxx |       1.0000 |       1.0000 |       1.0000 |xxxxxxxxxxxxx |xxxxxxxxxxxxx |xxxxxxxxxxxxx |xxxxxxxxxxxxx |       1.0000 |       1.0000 |       1.0000 |xxxxxxxxxxxxx |xxxxxxxxxxxxx |xxxxxxxxxxxxx |xxxxxxxxxxxxx |       1.0000 |       1.0000 |       1.0000 |xxxxxxxxxxxxx |xxxxxxxxxxxxx |xxxxxxxxxxxxx |xxxxxxxxxxxxx |       1.0000 |       1.0000 |       1.0000 |xxxxxxxxxxxxx |xxxxxxxxxxxxx |xxxxxxxxxxxxx |xxxxxxxxxxxxx |       1.0000 |       1.0000 |       1.0000 |xxxxxxxxxxxxx |xxxxxxxxxxxxx |xxxxxxxxxxxxx |xxxxxxxxxxxxx |       1.0000 |       1.0000 |       1.0000 |xxxxxxxxxxxxx |xxxxxxxxxxxxx |xxxxxxxxxxxxx |xxxxxxxxxxxxx |       1.0000 |       1.0000 |       1.0000 |xxxxxxxxxxxxx |xxxxxxxxxxxxx |xxxxxxxxxxxxx |xxxxxxxxxxxxx |       1.0000 |       1.0000 |       1.0000 |xxxxxxxxxxxxx |xxxxxxxxxxxxx |xxxxxxxxxxxxx |xxxxxxxxxxxxx |       1.0000 |       1.0000 |       1.0000 |xxxxxxxxxxxxx |xxxxxxxxxxxxx |xxxxxxxxxxxxx |xxxxxxxxxxxxx |       1.0000 |       1.0000 |       1.0000 |
bpred_2lev.lookups                   xxxxxxxxxxxxx |xxxxxxxxxxxxx |xxxxxxxxxxxxx |        75297 |        75297 |        75297 |        75297 |xxxxxxxxxxxxx |xxxxxxxxxxxxx |xxxxxxxxxxxxx |       164503 |       164503 |       164503 |       164503 |xxxxxxxxxxxxx |xxxxxxxxxxxxx |xxxxxxxxxxxxx |       353856 |       353856 |       353856 |       353856 |xxxxxxxxxxxxx |xxxxxxxxxxxxx |xxxxxxxxxxxxx |       754020 |       754020 |       754020 |       754020 |xxxxxxxxxxxxx |xxxxxxxxxxxxx |xxxxxxxxxxxxx |      1657522 |      1657522 |      1657522 |      1657522 |xxxxxxxxxxxxx |xxxxxxxxxxxxx |xxxxxxxxxxxxx |      3429917 |      3429917 |      3429917 |      3429917 |xxxxxxxxxxxxx |xxxxxxxxxxxxx |xxxxxxxxxxxxx |      7397211 |      7397211 |      7397211 |      7397211 |xxxxxxxxxxxxx |xxxxxxxxxxxxx |xxxxxxxxxxxxx |     15358380 |     15358380 |     15358380 |     15358380 |xxxxxxxxxxxxx |xxxxxxxxxxxxx |xxxxxxxxxxxxx |     32484498 |     32484498 |     32484498 |     32484498 |xxxxxxxxxxxxx |xxxxxxxxxxxxx |xxxxxxxxxxxxx |     68951515 |     68951515 |     68951515 |     68951515 |xxxxxxxxxxxxx |xxxxxxxxxxxxx |xxxxxxxxxxxxx |    143335346 |    143335346 |    143335346 |    143335346 |
[...]
bpred_2lev.retstack_pushes           xxxxxxxxxxxxx |xxxxxxxxxxxxx |xxxxxxxxxxxxx |           66 |           66 |           66 |           66 |xxxxxxxxxxxxx |xxxxxxxxxxxxx |xxxxxxxxxxxxx |           66 |           66 |           66 |           66 |xxxxxxxxxxxxx |xxxxxxxxxxxxx |xxxxxxxxxxxxx |           66 |           66 |           66 |           66 |xxxxxxxxxxxxx |xxxxxxxxxxxxx |xxxxxxxxxxxxx |           66 |           66 |           66 |           66 |xxxxxxxxxxxxx |xxxxxxxxxxxxx |xxxxxxxxxxxxx |           66 |           66 |           66 |           66 |xxxxxxxxxxxxx |xxxxxxxxxxxxx |xxxxxxxxxxxxx |           66 |           66 |           66 |           66 |xxxxxxxxxxxxx |xxxxxxxxxxxxx |xxxxxxxxxxxxx |           66 |           66 |           66 |           66 |xxxxxxxxxxxxx |xxxxxxxxxxxxx |xxxxxxxxxxxxx |           66 |           66 |           66 |           66 |xxxxxxxxxxxxx |xxxxxxxxxxxxx |xxxxxxxxxxxxx |           66 |           66 |           66 |           66 |xxxxxxxxxxxxx |xxxxxxxxxxxxx |xxxxxxxxxxxxx |           66 |           66 |           66 |           66 |xxxxxxxxxxxxx |xxxxxxxxxxxxx |xxxxxxxxxxxxx |           66 |           66 |           66 |           66 |
bpred_2lev.retstack_pops             xxxxxxxxxxxxx |xxxxxxxxxxxxx |xxxxxxxxxxxxx |           64 |           64 |           64 |           64 |xxxxxxxxxxxxx |xxxxxxxxxxxxx |xxxxxxxxxxxxx |           64 |           64 |           64 |           64 |xxxxxxxxxxxxx |xxxxxxxxxxxxx |xxxxxxxxxxxxx |           64 |           64 |           64 |           64 |xxxxxxxxxxxxx |xxxxxxxxxxxxx |xxxxxxxxxxxxx |           64 |           64 |           64 |           64 |xxxxxxxxxxxxx |xxxxxxxxxxxxx |xxxxxxxxxxxxx |           64 |           64 |           64 |           64 |xxxxxxxxxxxxx |xxxxxxxxxxxxx |xxxxxxxxxxxxx |           64 |           64 |           64 |           64 |xxxxxxxxxxxxx |xxxxxxxxxxxxx |xxxxxxxxxxxxx |           64 |           64 |           64 |           64 |xxxxxxxxxxxxx |xxxxxxxxxxxxx |xxxxxxxxxxxxx |           64 |           64 |           64 |           64 |xxxxxxxxxxxxx |xxxxxxxxxxxxx |xxxxxxxxxxxxx |           64 |           64 |           64 |           64 |xxxxxxxxxxxxx |xxxxxxxxxxxxx |xxxxxxxxxxxxx |           64 |           64 |           64 |           64 |xxxxxxxxxxxxx |xxxxxxxxxxxxx |xxxxxxxxxxxxx |           64 |           64 |           64 |           64 |
bpred_2lev.used_ras.PP               xxxxxxxxxxxxx |xxxxxxxxxxxxx |xxxxxxxxxxxxx |           64 |           64 |           64 |           64 |xxxxxxxxxxxxx |xxxxxxxxxxxxx |xxxxxxxxxxxxx |           64 |           64 |           64 |           64 |xxxxxxxxxxxxx |xxxxxxxxxxxxx |xxxxxxxxxxxxx |           64 |           64 |           64 |           64 |xxxxxxxxxxxxx |xxxxxxxxxxxxx |xxxxxxxxxxxxx |           64 |           64 |           64 |           64 |xxxxxxxxxxxxx |xxxxxxxxxxxxx |xxxxxxxxxxxxx |           64 |           64 |           64 |           64 |xxxxxxxxxxxxx |xxxxxxxxxxxxx |xxxxxxxxxxxxx |           64 |           64 |           64 |           64 |xxxxxxxxxxxxx |xxxxxxxxxxxxx |xxxxxxxxxxxxx |           64 |           64 |           64 |           64 |xxxxxxxxxxxxx |xxxxxxxxxxxxx |xxxxxxxxxxxxx |           64 |           64 |           64 |           64 |xxxxxxxxxxxxx |xxxxxxxxxxxxx |xxxxxxxxxxxxx |           64 |           64 |           64 |           64 |xxxxxxxxxxxxx |xxxxxxxxxxxxx |xxxxxxxxxxxxx |           64 |           64 |           64 |           64 |xxxxxxxxxxxxx |xxxxxxxxxxxxx |xxxxxxxxxxxxx |           64 |           64 |           64 |           64 |
bpred_2lev.ras_hits.PP               xxxxxxxxxxxxx |xxxxxxxxxxxxx |xxxxxxxxxxxxx |           64 |           64 |           64 |           64 |xxxxxxxxxxxxx |xxxxxxxxxxxxx |xxxxxxxxxxxxx |           64 |           64 |           64 |           64 |xxxxxxxxxxxxx |xxxxxxxxxxxxx |xxxxxxxxxxxxx |           64 |           64 |           64 |           64 |xxxxxxxxxxxxx |xxxxxxxxxxxxx |xxxxxxxxxxxxx |           64 |           64 |           64 |           64 |xxxxxxxxxxxxx |xxxxxxxxxxxxx |xxxxxxxxxxxxx |           64 |           64 |           64 |           64 |xxxxxxxxxxxxx |xxxxxxxxxxxxx |xxxxxxxxxxxxx |           64 |           64 |           64 |           64 |xxxxxxxxxxxxx |xxxxxxxxxxxxx |xxxxxxxxxxxxx |           64 |           64 |           64 |           64 |xxxxxxxxxxxxx |xxxxxxxxxxxxx |xxxxxxxxxxxxx |           64 |           64 |           64 |           64 |xxxxxxxxxxxxx |xxxxxxxxxxxxx |xxxxxxxxxxxxx |           64 |           64 |           64 |           64 |xxxxxxxxxxxxx |xxxxxxxxxxxxx |xxxxxxxxxxxxx |           64 |           64 |           64 |           64 |xxxxxxxxxxxxx |xxxxxxxxxxxxx |xxxxxxxxxxxxx |           64 |           64 |           64 |           64 |
bpred_2lev.ras_rate.PP               xxxxxxxxxxxxx |xxxxxxxxxxxxx |xxxxxxxxxxxxx |       1.0000 |       1.0000 |       1.0000 |       1.0000 |xxxxxxxxxxxxx |xxxxxxxxxxxxx |xxxxxxxxxxxxx |       1.0000 |       1.0000 |       1.0000 |       1.0000 |xxxxxxxxxxxxx |xxxxxxxxxxxxx |xxxxxxxxxxxxx |       1.0000 |       1.0000 |       1.0000 |       1.0000 |xxxxxxxxxxxxx |xxxxxxxxxxxxx |xxxxxxxxxxxxx |       1.0000 |       1.0000 |       1.0000 |       1.0000 |xxxxxxxxxxxxx |xxxxxxxxxxxxx |xxxxxxxxxxxxx |       1.0000 |       1.0000 |       1.0000 |       1.0000 |xxxxxxxxxxxxx |xxxxxxxxxxxxx |xxxxxxxxxxxxx |       1.0000 |       1.0000 |       1.0000 |       1.0000 |xxxxxxxxxxxxx |xxxxxxxxxxxxx |xxxxxxxxxxxxx |       1.0000 |       1.0000 |       1.0000 |       1.0000 |xxxxxxxxxxxxx |xxxxxxxxxxxxx |xxxxxxxxxxxxx |       1.0000 |       1.0000 |       1.0000 |       1.0000 |xxxxxxxxxxxxx |xxxxxxxxxxxxx |xxxxxxxxxxxxx |       1.0000 |       1.0000 |       1.0000 |       1.0000 |xxxxxxxxxxxxx |xxxxxxxxxxxxx |xxxxxxxxxxxxx |       1.0000 |       1.0000 |       1.0000 |       1.0000 |xxxxxxxxxxxxx |xxxxxxxxxxxxx |xxxxxxxxxxxxx |       1.0000 |       1.0000 |       1.0000 |       1.0000 |

Command list: 
	sslittle-na-sstrix-gcc -Wall -O3 -funroll-loops -finline-functions  -DRANDOM_SIZE=4096 -DOFFSET=2 -DSORT=base_quicksort7 sorts/base_quicksort71742328552.c simpleMain.c -o base_quicksort71717115369
	sim-cache -cache:dl1 dl1:256:32:1:l -cache:dl2 dl2:131072:32:1:l -cache:il1 il1:256:32:1:l -cache:il2 dl2 base_quicksort71717115369
	sim-cache -cache:dl1 dl1:256:32:1:l -cache:dl2 dl2:65536:32:1:l -cache:il1 il1:256:32:1:l -cache:il2 dl2 base_quicksort71717115369
	sim-cache -cache:dl1 dl1:1:32:256:l -cache:dl2 dl2:1:32:131072:l -cache:il1 il1:1:32:256:l -cache:il2 dl2 base_quicksort71717115369
	sim-cache -cache:dl1 dl1:1:32:256:l -cache:dl2 dl2:1:32:65536:l -cache:il1 il1:1:32:256:l -cache:il2 dl2 base_quicksort71717115369
	sim-bpred -bpred bimod -bpred:bimod 512 base_quicksort71717115369
	sim-bpred -bpred bimod -bpred:bimod 1024 base_quicksort71717115369
	sim-bpred -bpred bimod -bpred:bimod 2048 base_quicksort71717115369
	sim-bpred -bpred 2lev -bpred:2lev 1 512 10 1 base_quicksort71717115369
	sim-bpred -bpred 2lev -bpred:2lev 1 1024 10 1 base_quicksort71717115369
	sim-bpred -bpred 2lev -bpred:2lev 1 2048 10 1 base_quicksort71717115369
	sim-bpred -bpred 2lev -bpred:2lev 1 4096 10 1 base_quicksort71717115369
	sslittle-na-sstrix-gcc -Wall -O3 -funroll-loops -finline-functions  -DRANDOM_SIZE=8192 -DOFFSET=2 -DSORT=base_quicksort7 sorts/base_quicksort71742328552.c simpleMain.c -o base_quicksort71717115369
	sim-cache -cache:dl1 dl1:256:32:1:l -cache:dl2 dl2:131072:32:1:l -cache:il1 il1:256:32:1:l -cache:il2 dl2 base_quicksort71717115369
	sim-cache -cache:dl1 dl1:256:32:1:l -cache:dl2 dl2:65536:32:1:l -cache:il1 il1:256:32:1:l -cache:il2 dl2 base_quicksort71717115369
	sim-cache -cache:dl1 dl1:1:32:256:l -cache:dl2 dl2:1:32:131072:l -cache:il1 il1:1:32:256:l -cache:il2 dl2 base_quicksort71717115369
	sim-cache -cache:dl1 dl1:1:32:256:l -cache:dl2 dl2:1:32:65536:l -cache:il1 il1:1:32:256:l -cache:il2 dl2 base_quicksort71717115369
	sim-bpred -bpred bimod -bpred:bimod 512 base_quicksort71717115369
	sim-bpred -bpred bimod -bpred:bimod 1024 base_quicksort71717115369
	sim-bpred -bpred bimod -bpred:bimod 2048 base_quicksort71717115369
	sim-bpred -bpred 2lev -bpred:2lev 1 512 10 1 base_quicksort71717115369
	sim-bpred -bpred 2lev -bpred:2lev 1 1024 10 1 base_quicksort71717115369
	sim-bpred -bpred 2lev -bpred:2lev 1 2048 10 1 base_quicksort71717115369
	sim-bpred -bpred 2lev -bpred:2lev 1 4096 10 1 base_quicksort71717115369
	sslittle-na-sstrix-gcc -Wall -O3 -funroll-loops -finline-functions  -DRANDOM_SIZE=16384 -DOFFSET=2 -DSORT=base_quicksort7 sorts/base_quicksort71742328552.c simpleMain.c -o base_quicksort71717115369
	sim-cache -cache:dl1 dl1:256:32:1:l -cache:dl2 dl2:131072:32:1:l -cache:il1 il1:256:32:1:l -cache:il2 dl2 base_quicksort71717115369
	sim-cache -cache:dl1 dl1:256:32:1:l -cache:dl2 dl2:65536:32:1:l -cache:il1 il1:256:32:1:l -cache:il2 dl2 base_quicksort71717115369
	sim-cache -cache:dl1 dl1:1:32:256:l -cache:dl2 dl2:1:32:131072:l -cache:il1 il1:1:32:256:l -cache:il2 dl2 base_quicksort71717115369
	sim-cache -cache:dl1 dl1:1:32:256:l -cache:dl2 dl2:1:32:65536:l -cache:il1 il1:1:32:256:l -cache:il2 dl2 base_quicksort71717115369
	sim-bpred -bpred bimod -bpred:bimod 512 base_quicksort71717115369
	sim-bpred -bpred bimod -bpred:bimod 1024 base_quicksort71717115369
	sim-bpred -bpred bimod -bpred:bimod 2048 base_quicksort71717115369
	sim-bpred -bpred 2lev -bpred:2lev 1 512 10 1 base_quicksort71717115369
	sim-bpred -bpred 2lev -bpred:2lev 1 1024 10 1 base_quicksort71717115369
	sim-bpred -bpred 2lev -bpred:2lev 1 2048 10 1 base_quicksort71717115369
	sim-bpred -bpred 2lev -bpred:2lev 1 4096 10 1 base_quicksort71717115369
	sslittle-na-sstrix-gcc -Wall -O3 -funroll-loops -finline-functions  -DRANDOM_SIZE=32768 -DOFFSET=2 -DSORT=base_quicksort7 sorts/base_quicksort71742328552.c simpleMain.c -o base_quicksort71717115369
	sim-cache -cache:dl1 dl1:256:32:1:l -cache:dl2 dl2:131072:32:1:l -cache:il1 il1:256:32:1:l -cache:il2 dl2 base_quicksort71717115369
	sim-cache -cache:dl1 dl1:256:32:1:l -cache:dl2 dl2:65536:32:1:l -cache:il1 il1:256:32:1:l -cache:il2 dl2 base_quicksort71717115369
	sim-cache -cache:dl1 dl1:1:32:256:l -cache:dl2 dl2:1:32:131072:l -cache:il1 il1:1:32:256:l -cache:il2 dl2 base_quicksort71717115369
	sim-cache -cache:dl1 dl1:1:32:256:l -cache:dl2 dl2:1:32:65536:l -cache:il1 il1:1:32:256:l -cache:il2 dl2 base_quicksort71717115369
	sim-bpred -bpred bimod -bpred:bimod 512 base_quicksort71717115369
	sim-bpred -bpred bimod -bpred:bimod 1024 base_quicksort71717115369
	sim-bpred -bpred bimod -bpred:bimod 2048 base_quicksort71717115369
	sim-bpred -bpred 2lev -bpred:2lev 1 512 10 1 base_quicksort71717115369
	sim-bpred -bpred 2lev -bpred:2lev 1 1024 10 1 base_quicksort71717115369
	sim-bpred -bpred 2lev -bpred:2lev 1 2048 10 1 base_quicksort71717115369
	sim-bpred -bpred 2lev -bpred:2lev 1 4096 10 1 base_quicksort71717115369
	sslittle-na-sstrix-gcc -Wall -O3 -funroll-loops -finline-functions  -DRANDOM_SIZE=65536 -DOFFSET=2 -DSORT=base_quicksort7 sorts/base_quicksort71742328552.c simpleMain.c -o base_quicksort71717115369
	sim-cache -cache:dl1 dl1:256:32:1:l -cache:dl2 dl2:131072:32:1:l -cache:il1 il1:256:32:1:l -cache:il2 dl2 base_quicksort71717115369
	sim-cache -cache:dl1 dl1:256:32:1:l -cache:dl2 dl2:65536:32:1:l -cache:il1 il1:256:32:1:l -cache:il2 dl2 base_quicksort71717115369
	sim-cache -cache:dl1 dl1:1:32:256:l -cache:dl2 dl2:1:32:131072:l -cache:il1 il1:1:32:256:l -cache:il2 dl2 base_quicksort71717115369
	sim-cache -cache:dl1 dl1:1:32:256:l -cache:dl2 dl2:1:32:65536:l -cache:il1 il1:1:32:256:l -cache:il2 dl2 base_quicksort71717115369
	sim-bpred -bpred bimod -bpred:bimod 512 base_quicksort71717115369
	sim-bpred -bpred bimod -bpred:bimod 1024 base_quicksort71717115369
	sim-bpred -bpred bimod -bpred:bimod 2048 base_quicksort71717115369
	sim-bpred -bpred 2lev -bpred:2lev 1 512 10 1 base_quicksort71717115369
	sim-bpred -bpred 2lev -bpred:2lev 1 1024 10 1 base_quicksort71717115369
	sim-bpred -bpred 2lev -bpred:2lev 1 2048 10 1 base_quicksort71717115369
	sim-bpred -bpred 2lev -bpred:2lev 1 4096 10 1 base_quicksort71717115369
	sslittle-na-sstrix-gcc -Wall -O3 -funroll-loops -finline-functions  -DRANDOM_SIZE=131072 -DOFFSET=2 -DSORT=base_quicksort7 sorts/base_quicksort71742328552.c simpleMain.c -o base_quicksort71717115369
	sim-cache -cache:dl1 dl1:256:32:1:l -cache:dl2 dl2:131072:32:1:l -cache:il1 il1:256:32:1:l -cache:il2 dl2 base_quicksort71717115369
	sim-cache -cache:dl1 dl1:256:32:1:l -cache:dl2 dl2:65536:32:1:l -cache:il1 il1:256:32:1:l -cache:il2 dl2 base_quicksort71717115369
	sim-cache -cache:dl1 dl1:1:32:256:l -cache:dl2 dl2:1:32:131072:l -cache:il1 il1:1:32:256:l -cache:il2 dl2 base_quicksort71717115369
	sim-cache -cache:dl1 dl1:1:32:256:l -cache:dl2 dl2:1:32:65536:l -cache:il1 il1:1:32:256:l -cache:il2 dl2 base_quicksort71717115369
	sim-bpred -bpred bimod -bpred:bimod 512 base_quicksort71717115369
	sim-bpred -bpred bimod -bpred:bimod 1024 base_quicksort71717115369
	sim-bpred -bpred bimod -bpred:bimod 2048 base_quicksort71717115369
	sim-bpred -bpred 2lev -bpred:2lev 1 512 10 1 base_quicksort71717115369
	sim-bpred -bpred 2lev -bpred:2lev 1 1024 10 1 base_quicksort71717115369
	sim-bpred -bpred 2lev -bpred:2lev 1 2048 10 1 base_quicksort71717115369
	sim-bpred -bpred 2lev -bpred:2lev 1 4096 10 1 base_quicksort71717115369
	sslittle-na-sstrix-gcc -Wall -O3 -funroll-loops -finline-functions  -DRANDOM_SIZE=262144 -DOFFSET=2 -DSORT=base_quicksort7 sorts/base_quicksort71742328552.c simpleMain.c -o base_quicksort71717115369
	sim-cache -cache:dl1 dl1:256:32:1:l -cache:dl2 dl2:131072:32:1:l -cache:il1 il1:256:32:1:l -cache:il2 dl2 base_quicksort71717115369
	sim-cache -cache:dl1 dl1:256:32:1:l -cache:dl2 dl2:65536:32:1:l -cache:il1 il1:256:32:1:l -cache:il2 dl2 base_quicksort71717115369
	sim-cache -cache:dl1 dl1:1:32:256:l -cache:dl2 dl2:1:32:131072:l -cache:il1 il1:1:32:256:l -cache:il2 dl2 base_quicksort71717115369
	sim-cache -cache:dl1 dl1:1:32:256:l -cache:dl2 dl2:1:32:65536:l -cache:il1 il1:1:32:256:l -cache:il2 dl2 base_quicksort71717115369
	sim-bpred -bpred bimod -bpred:bimod 512 base_quicksort71717115369
	sim-bpred -bpred bimod -bpred:bimod 1024 base_quicksort71717115369
	sim-bpred -bpred bimod -bpred:bimod 2048 base_quicksort71717115369
	sim-bpred -bpred 2lev -bpred:2lev 1 512 10 1 base_quicksort71717115369
	sim-bpred -bpred 2lev -bpred:2lev 1 1024 10 1 base_quicksort71717115369
	sim-bpred -bpred 2lev -bpred:2lev 1 2048 10 1 base_quicksort71717115369
	sim-bpred -bpred 2lev -bpred:2lev 1 4096 10 1 base_quicksort71717115369
	sslittle-na-sstrix-gcc -Wall -O3 -funroll-loops -finline-functions  -DRANDOM_SIZE=524288 -DOFFSET=2 -DSORT=base_quicksort7 sorts/base_quicksort71742328552.c simpleMain.c -o base_quicksort71717115369
	sim-cache -cache:dl1 dl1:256:32:1:l -cache:dl2 dl2:131072:32:1:l -cache:il1 il1:256:32:1:l -cache:il2 dl2 base_quicksort71717115369
	sim-cache -cache:dl1 dl1:256:32:1:l -cache:dl2 dl2:65536:32:1:l -cache:il1 il1:256:32:1:l -cache:il2 dl2 base_quicksort71717115369
	sim-cache -cache:dl1 dl1:1:32:256:l -cache:dl2 dl2:1:32:131072:l -cache:il1 il1:1:32:256:l -cache:il2 dl2 base_quicksort71717115369
	sim-cache -cache:dl1 dl1:1:32:256:l -cache:dl2 dl2:1:32:65536:l -cache:il1 il1:1:32:256:l -cache:il2 dl2 base_quicksort71717115369
	sim-bpred -bpred bimod -bpred:bimod 512 base_quicksort71717115369
	sim-bpred -bpred bimod -bpred:bimod 1024 base_quicksort71717115369
	sim-bpred -bpred bimod -bpred:bimod 2048 base_quicksort71717115369
	sim-bpred -bpred 2lev -bpred:2lev 1 512 10 1 base_quicksort71717115369
	sim-bpred -bpred 2lev -bpred:2lev 1 1024 10 1 base_quicksort71717115369
	sim-bpred -bpred 2lev -bpred:2lev 1 2048 10 1 base_quicksort71717115369
	sim-bpred -bpred 2lev -bpred:2lev 1 4096 10 1 base_quicksort71717115369
	sslittle-na-sstrix-gcc -Wall -O3 -funroll-loops -finline-functions  -DRANDOM_SIZE=1048576 -DOFFSET=2 -DSORT=base_quicksort7 sorts/base_quicksort71742328552.c simpleMain.c -o base_quicksort71717115369
	sim-cache -cache:dl1 dl1:256:32:1:l -cache:dl2 dl2:131072:32:1:l -cache:il1 il1:256:32:1:l -cache:il2 dl2 base_quicksort71717115369
	sim-cache -cache:dl1 dl1:256:32:1:l -cache:dl2 dl2:65536:32:1:l -cache:il1 il1:256:32:1:l -cache:il2 dl2 base_quicksort71717115369
	sim-cache -cache:dl1 dl1:1:32:256:l -cache:dl2 dl2:1:32:131072:l -cache:il1 il1:1:32:256:l -cache:il2 dl2 base_quicksort71717115369
	sim-cache -cache:dl1 dl1:1:32:256:l -cache:dl2 dl2:1:32:65536:l -cache:il1 il1:1:32:256:l -cache:il2 dl2 base_quicksort71717115369
	sim-bpred -bpred bimod -bpred:bimod 512 base_quicksort71717115369
	sim-bpred -bpred bimod -bpred:bimod 1024 base_quicksort71717115369
	sim-bpred -bpred bimod -bpred:bimod 2048 base_quicksort71717115369
	sim-bpred -bpred 2lev -bpred:2lev 1 512 10 1 base_quicksort71717115369
	sim-bpred -bpred 2lev -bpred:2lev 1 1024 10 1 base_quicksort71717115369
	sim-bpred -bpred 2lev -bpred:2lev 1 2048 10 1 base_quicksort71717115369
	sim-bpred -bpred 2lev -bpred:2lev 1 4096 10 1 base_quicksort71717115369
	sslittle-na-sstrix-gcc -Wall -O3 -funroll-loops -finline-functions  -DRANDOM_SIZE=2097152 -DOFFSET=2 -DSORT=base_quicksort7 sorts/base_quicksort71742328552.c simpleMain.c -o base_quicksort71717115369
	sim-cache -cache:dl1 dl1:256:32:1:l -cache:dl2 dl2:131072:32:1:l -cache:il1 il1:256:32:1:l -cache:il2 dl2 base_quicksort71717115369
	sim-cache -cache:dl1 dl1:256:32:1:l -cache:dl2 dl2:65536:32:1:l -cache:il1 il1:256:32:1:l -cache:il2 dl2 base_quicksort71717115369
	sim-cache -cache:dl1 dl1:1:32:256:l -cache:dl2 dl2:1:32:131072:l -cache:il1 il1:1:32:256:l -cache:il2 dl2 base_quicksort71717115369
	sim-cache -cache:dl1 dl1:1:32:256:l -cache:dl2 dl2:1:32:65536:l -cache:il1 il1:1:32:256:l -cache:il2 dl2 base_quicksort71717115369
	sim-bpred -bpred bimod -bpred:bimod 512 base_quicksort71717115369
	sim-bpred -bpred bimod -bpred:bimod 1024 base_quicksort71717115369
	sim-bpred -bpred bimod -bpred:bimod 2048 base_quicksort71717115369
	sim-bpred -bpred 2lev -bpred:2lev 1 512 10 1 base_quicksort71717115369
	sim-bpred -bpred 2lev -bpred:2lev 1 1024 10 1 base_quicksort71717115369
	sim-bpred -bpred 2lev -bpred:2lev 1 2048 10 1 base_quicksort71717115369
	sim-bpred -bpred 2lev -bpred:2lev 1 4096 10 1 base_quicksort71717115369
	sslittle-na-sstrix-gcc -Wall -O3 -funroll-loops -finline-functions  -DRANDOM_SIZE=4194304 -DOFFSET=2 -DSORT=base_quicksort7 sorts/base_quicksort71742328552.c simpleMain.c -o base_quicksort71717115369
	sim-cache -cache:dl1 dl1:256:32:1:l -cache:dl2 dl2:131072:32:1:l -cache:il1 il1:256:32:1:l -cache:il2 dl2 base_quicksort71717115369
	sim-cache -cache:dl1 dl1:256:32:1:l -cache:dl2 dl2:65536:32:1:l -cache:il1 il1:256:32:1:l -cache:il2 dl2 base_quicksort71717115369
	sim-cache -cache:dl1 dl1:1:32:256:l -cache:dl2 dl2:1:32:131072:l -cache:il1 il1:1:32:256:l -cache:il2 dl2 base_quicksort71717115369
	sim-cache -cache:dl1 dl1:1:32:256:l -cache:dl2 dl2:1:32:65536:l -cache:il1 il1:1:32:256:l -cache:il2 dl2 base_quicksort71717115369
	sim-bpred -bpred bimod -bpred:bimod 512 base_quicksort71717115369
	sim-bpred -bpred bimod -bpred:bimod 1024 base_quicksort71717115369
	sim-bpred -bpred bimod -bpred:bimod 2048 base_quicksort71717115369
	sim-bpred -bpred 2lev -bpred:2lev 1 512 10 1 base_quicksort71717115369
	sim-bpred -bpred 2lev -bpred:2lev 1 1024 10 1 base_quicksort71717115369
	sim-bpred -bpred 2lev -bpred:2lev 1 2048 10 1 base_quicksort71717115369
	sim-bpred -bpred 2lev -bpred:2lev 1 4096 10 1 base_quicksort71717115369
