Thu Jun 16 23:42:55 2005
Run as: "./do_simple -c random.org0 -o 0 base_quicksort7"
-------------------------------------------------------------------------------------------------
sim-cache                                     4096 |         4096 |         4096 |         4096 |         8192 |         8192 |         8192 |         8192 |        16384 |        16384 |        16384 |        16384 |        32768 |        32768 |        32768 |        32768 |        65536 |        65536 |        65536 |        65536 |       131072 |       131072 |       131072 |       131072 |       262144 |       262144 |       262144 |       262144 |       524288 |       524288 |       524288 |       524288 |      1048576 |      1048576 |      1048576 |      1048576 |      2097152 |      2097152 |      2097152 |      2097152 |      4194304 |      4194304 |      4194304 |      4194304 |
-cache:dl1 dl1:256:32:1:l -cache:dl2 dl2:131072:32:1:l -cache:il1 il1:256:32:1:l -cache:il2 dl2
-cache:dl1 dl1:256:32:1:l -cache:dl2 dl2:65536:32:1:l -cache:il1 il1:256:32:1:l -cache:il2 dl2
-cache:dl1 dl1:1:32:256:l -cache:dl2 dl2:1:32:131072:l -cache:il1 il1:1:32:256:l -cache:il2 dl2
-cache:dl1 dl1:1:32:256:l -cache:dl2 dl2:1:32:65536:l -cache:il1 il1:1:32:256:l -cache:il2 dl2
-------------------------------------------------------------------------------------------------
sim_num_insn                                489867 |       489867 |       489867 |       489867 |      1017642 |      1017642 |      1017642 |      1017642 |      2169294 |      2169294 |      2169294 |      2169294 |      4713476 |      4713476 |      4713476 |      4713476 |      9815837 |      9815837 |      9815837 |      9815837 |     20970322 |     20970322 |     20970322 |     20970322 |     44479154 |     44479154 |     44479154 |     44479154 |     93306902 |     93306902 |     93306902 |     93306902 |    196193585 |    196193585 |    196193585 |    196193585 |    413639644 |    413639644 |    413639644 |    413639644 |    857299127 |    857299127 |    857299127 |    857299127 |
sim_num_refs                                128451 |       128451 |       128451 |       128451 |       265446 |       265446 |       265446 |       265446 |       560444 |       560444 |       560444 |       560444 |      1196534 |      1196534 |      1196534 |      1196534 |      2500659 |      2500659 |      2500659 |      2500659 |      5290364 |      5290364 |      5290364 |      5290364 |     11158495 |     11158495 |     11158495 |     11158495 |     23382139 |     23382139 |     23382139 |     23382139 |     48994542 |     48994542 |     48994542 |     48994542 |    102636821 |    102636821 |    102636821 |    102636821 |    212990175 |    212990175 |    212990175 |    212990175 |
sim_elapsed_time                                 1 |            1 |            6 |            4 |            1 |            1 |           10 |            5 |            1 |            1 |           15 |            7 |            2 |            1 |           25 |           13 |            3 |            2 |           45 |           24 |            5 |            6 |           84 |           42 |           11 |           11 |          154 |           73 |           24 |           24 |          266 |          104 |           50 |           50 |          371 |          131 |          105 |          105 |          430 |          190 |          218 |          218 |          548 |          310 |
sim_inst_rate                          489867.0000 |  489867.0000 |   81644.5000 |  122466.7500 | 1017642.0000 | 1017642.0000 |  101764.2000 |  203528.4000 | 2169294.0000 | 2169294.0000 |  144619.6000 |  309899.1429 | 2356738.0000 | 4713476.0000 |  188539.0400 |  362575.0769 | 3271945.6667 | 4907918.5000 |  218129.7111 |  408993.2083 | 4194064.4000 | 3495053.6667 |  249646.6905 |  499293.3810 | 4043559.4545 | 4043559.4545 |  288825.6753 |  609303.4795 | 3887787.5833 | 3887787.5833 |  350777.8271 |  897181.7500 | 3923871.7000 | 3923871.7000 |  528823.6792 | 1497660.9542 | 3939425.1810 | 3939425.1810 |  961952.6605 | 2177050.7579 | 3932564.8028 | 3932564.8028 | 1564414.4653 | 2765481.0548 |
il1.accesses                                489867 |       489867 |       489867 |       489867 |      1017642 |      1017642 |      1017642 |      1017642 |      2169294 |      2169294 |      2169294 |      2169294 |      4713476 |      4713476 |      4713476 |      4713476 |      9815837 |      9815837 |      9815837 |      9815837 |     20970322 |     20970322 |     20970322 |     20970322 |     44479154 |     44479154 |     44479154 |     44479154 |     93306902 |     93306902 |     93306902 |     93306902 |    196193585 |    196193585 |    196193585 |    196193585 |    413639644 |    413639644 |    413639644 |    413639644 |    857299127 |    857299127 |    857299127 |    857299127 |
il1.hits                                    489398 |       489398 |       489427 |       489427 |      1017174 |      1017174 |      1017202 |      1017202 |      2168813 |      2168813 |      2168849 |      2168849 |      4712995 |      4712995 |      4713031 |      4713031 |      9815356 |      9815356 |      9815392 |      9815392 |     20969852 |     20969852 |     20969880 |     20969880 |     44478684 |     44478684 |     44478712 |     44478712 |     93306432 |     93306432 |     93306460 |     93306460 |    196193115 |    196193115 |    196193143 |    196193143 |    413639174 |    413639174 |    413639202 |    413639202 |    857298657 |    857298657 |    857298685 |    857298685 |
il1.misses                                     469 |          469 |          440 |          440 |          468 |          468 |          440 |          440 |          481 |          481 |          445 |          445 |          481 |          481 |          445 |          445 |          481 |          481 |          445 |          445 |          470 |          470 |          442 |          442 |          470 |          470 |          442 |          442 |          470 |          470 |          442 |          442 |          470 |          470 |          442 |          442 |          470 |          470 |          442 |          442 |          470 |          470 |          442 |          442 |
il1.replacements                               227 |          227 |          184 |          184 |          227 |          227 |          184 |          184 |          241 |          241 |          189 |          189 |          241 |          241 |          189 |          189 |          241 |          241 |          189 |          189 |          229 |          229 |          186 |          186 |          229 |          229 |          186 |          186 |          229 |          229 |          186 |          186 |          229 |          229 |          186 |          186 |          229 |          229 |          186 |          186 |          229 |          229 |          186 |          186 |
il1.writebacks                                   0 |            0 |            0 |            0 |            0 |            0 |            0 |            0 |            0 |            0 |            0 |            0 |            0 |            0 |            0 |            0 |            0 |            0 |            0 |            0 |            0 |            0 |            0 |            0 |            0 |            0 |            0 |            0 |            0 |            0 |            0 |            0 |            0 |            0 |            0 |            0 |            0 |            0 |            0 |            0 |            0 |            0 |            0 |            0 |
il1.invalidations                                0 |            0 |            0 |            0 |            0 |            0 |            0 |            0 |            0 |            0 |            0 |            0 |            0 |            0 |            0 |            0 |            0 |            0 |            0 |            0 |            0 |            0 |            0 |            0 |            0 |            0 |            0 |            0 |            0 |            0 |            0 |            0 |            0 |            0 |            0 |            0 |            0 |            0 |            0 |            0 |            0 |            0 |            0 |            0 |
il1.miss_rate                               0.0010 |       0.0010 |       0.0009 |       0.0009 |       0.0005 |       0.0005 |       0.0004 |       0.0004 |       0.0002 |       0.0002 |       0.0002 |       0.0002 |       0.0001 |       0.0001 |       0.0001 |       0.0001 |       0.0000 |       0.0000 |       0.0000 |       0.0000 |       0.0000 |       0.0000 |       0.0000 |       0.0000 |       0.0000 |       0.0000 |       0.0000 |       0.0000 |       0.0000 |       0.0000 |       0.0000 |       0.0000 |       0.0000 |       0.0000 |       0.0000 |       0.0000 |       0.0000 |       0.0000 |       0.0000 |       0.0000 |       0.0000 |       0.0000 |       0.0000 |       0.0000 |
il1.repl_rate                               0.0005 |       0.0005 |       0.0004 |       0.0004 |       0.0002 |       0.0002 |       0.0002 |       0.0002 |       0.0001 |       0.0001 |       0.0001 |       0.0001 |       0.0001 |       0.0001 |       0.0000 |       0.0000 |       0.0000 |       0.0000 |       0.0000 |       0.0000 |       0.0000 |       0.0000 |       0.0000 |       0.0000 |       0.0000 |       0.0000 |       0.0000 |       0.0000 |       0.0000 |       0.0000 |       0.0000 |       0.0000 |       0.0000 |       0.0000 |       0.0000 |       0.0000 |       0.0000 |       0.0000 |       0.0000 |       0.0000 |       0.0000 |       0.0000 |       0.0000 |       0.0000 |
il1.wb_rate                                 0.0000 |       0.0000 |       0.0000 |       0.0000 |       0.0000 |       0.0000 |       0.0000 |       0.0000 |       0.0000 |       0.0000 |       0.0000 |       0.0000 |       0.0000 |       0.0000 |       0.0000 |       0.0000 |       0.0000 |       0.0000 |       0.0000 |       0.0000 |       0.0000 |       0.0000 |       0.0000 |       0.0000 |       0.0000 |       0.0000 |       0.0000 |       0.0000 |       0.0000 |       0.0000 |       0.0000 |       0.0000 |       0.0000 |       0.0000 |       0.0000 |       0.0000 |       0.0000 |       0.0000 |       0.0000 |       0.0000 |       0.0000 |       0.0000 |       0.0000 |       0.0000 |
il1.inv_rate                                0.0000 |       0.0000 |       0.0000 |       0.0000 |       0.0000 |       0.0000 |       0.0000 |       0.0000 |       0.0000 |       0.0000 |       0.0000 |       0.0000 |       0.0000 |       0.0000 |       0.0000 |       0.0000 |       0.0000 |       0.0000 |       0.0000 |       0.0000 |       0.0000 |       0.0000 |       0.0000 |       0.0000 |       0.0000 |       0.0000 |       0.0000 |       0.0000 |       0.0000 |       0.0000 |       0.0000 |       0.0000 |       0.0000 |       0.0000 |       0.0000 |       0.0000 |       0.0000 |       0.0000 |       0.0000 |       0.0000 |       0.0000 |       0.0000 |       0.0000 |       0.0000 |
dl1.accesses                                144917 |       144917 |       144917 |       144917 |       298296 |       298296 |       298296 |       298296 |       626062 |       626062 |       626062 |       626062 |      1327688 |      1327688 |      1327688 |      1327688 |      2762885 |      2762885 |      2762885 |      2762885 |      5814734 |      5814734 |      5814734 |      5814734 |     12207153 |     12207153 |     12207153 |     12207153 |     25479373 |     25479373 |     25479373 |     25479373 |     53188928 |     53188928 |     53188928 |     53188928 |    111025511 |    111025511 |    111025511 |    111025511 |    229767473 |    229767473 |    229767473 |    229767473 |
dl1.hits                                    141903 |       141903 |       141758 |       141758 |       292639 |       292639 |       292523 |       292523 |       612934 |       612934 |       612724 |       612724 |      1295456 |      1295456 |      1295421 |      1295421 |      2692806 |      2692806 |      2693054 |      2693054 |      5652488 |      5652488 |      5653418 |      5653418 |     11842094 |     11842094 |     11844152 |     11844152 |     24675661 |     24675661 |     24681954 |     24681954 |     51429126 |     51429126 |     51446600 |     51446600 |    107144693 |    107144693 |    107184397 |    107184397 |    221573857 |    221573857 |    221675784 |    221675784 |
dl1.misses                                    3014 |         3014 |         3159 |         3159 |         5657 |         5657 |         5773 |         5773 |        13128 |        13128 |        13338 |        13338 |        32232 |        32232 |        32267 |        32267 |        70079 |        70079 |        69831 |        69831 |       162246 |       162246 |       161316 |       161316 |       365059 |       365059 |       363001 |       363001 |       803712 |       803712 |       797419 |       797419 |      1759802 |      1759802 |      1742328 |      1742328 |      3880818 |      3880818 |      3841114 |      3841114 |      8193616 |      8193616 |      8091689 |      8091689 |
dl1.replacements                              2758 |         2758 |         2903 |         2903 |         5401 |         5401 |         5517 |         5517 |        12872 |        12872 |        13082 |        13082 |        31976 |        31976 |        32011 |        32011 |        69823 |        69823 |        69575 |        69575 |       161990 |       161990 |       161060 |       161060 |       364803 |       364803 |       362745 |       362745 |       803456 |       803456 |       797163 |       797163 |      1759546 |      1759546 |      1742072 |      1742072 |      3880562 |      3880562 |      3840858 |      3840858 |      8193360 |      8193360 |      8091433 |      8091433 |
dl1.writebacks                                2539 |         2539 |         2688 |         2688 |         5292 |         5292 |         5391 |         5391 |        12572 |        12572 |        12864 |        12864 |        29980 |        29980 |        30266 |        30266 |        67342 |        67342 |        67714 |        67714 |       153536 |       153536 |       154113 |       154113 |       343940 |       343940 |       345441 |       345441 |       757685 |       757685 |       759652 |       759652 |      1651768 |      1651768 |      1653115 |      1653115 |      3632859 |      3632859 |      3634473 |      3634473 |      7757136 |      7757136 |      7748334 |      7748334 |
dl1.invalidations                                0 |            0 |            0 |            0 |            0 |            0 |            0 |            0 |            0 |            0 |            0 |            0 |            0 |            0 |            0 |            0 |            0 |            0 |            0 |            0 |            0 |            0 |            0 |            0 |            0 |            0 |            0 |            0 |            0 |            0 |            0 |            0 |            0 |            0 |            0 |            0 |            0 |            0 |            0 |            0 |            0 |            0 |            0 |            0 |
dl1.miss_rate                               0.0208 |       0.0208 |       0.0218 |       0.0218 |       0.0190 |       0.0190 |       0.0194 |       0.0194 |       0.0210 |       0.0210 |       0.0213 |       0.0213 |       0.0243 |       0.0243 |       0.0243 |       0.0243 |       0.0254 |       0.0254 |       0.0253 |       0.0253 |       0.0279 |       0.0279 |       0.0277 |       0.0277 |       0.0299 |       0.0299 |       0.0297 |       0.0297 |       0.0315 |       0.0315 |       0.0313 |       0.0313 |       0.0331 |       0.0331 |       0.0328 |       0.0328 |       0.0350 |       0.0350 |       0.0346 |       0.0346 |       0.0357 |       0.0357 |       0.0352 |       0.0352 |
dl1.repl_rate                               0.0190 |       0.0190 |       0.0200 |       0.0200 |       0.0181 |       0.0181 |       0.0185 |       0.0185 |       0.0206 |       0.0206 |       0.0209 |       0.0209 |       0.0241 |       0.0241 |       0.0241 |       0.0241 |       0.0253 |       0.0253 |       0.0252 |       0.0252 |       0.0279 |       0.0279 |       0.0277 |       0.0277 |       0.0299 |       0.0299 |       0.0297 |       0.0297 |       0.0315 |       0.0315 |       0.0313 |       0.0313 |       0.0331 |       0.0331 |       0.0328 |       0.0328 |       0.0350 |       0.0350 |       0.0346 |       0.0346 |       0.0357 |       0.0357 |       0.0352 |       0.0352 |
dl1.wb_rate                                 0.0175 |       0.0175 |       0.0185 |       0.0185 |       0.0177 |       0.0177 |       0.0181 |       0.0181 |       0.0201 |       0.0201 |       0.0205 |       0.0205 |       0.0226 |       0.0226 |       0.0228 |       0.0228 |       0.0244 |       0.0244 |       0.0245 |       0.0245 |       0.0264 |       0.0264 |       0.0265 |       0.0265 |       0.0282 |       0.0282 |       0.0283 |       0.0283 |       0.0297 |       0.0297 |       0.0298 |       0.0298 |       0.0311 |       0.0311 |       0.0311 |       0.0311 |       0.0327 |       0.0327 |       0.0327 |       0.0327 |       0.0338 |       0.0338 |       0.0337 |       0.0337 |
dl1.inv_rate                                0.0000 |       0.0000 |       0.0000 |       0.0000 |       0.0000 |       0.0000 |       0.0000 |       0.0000 |       0.0000 |       0.0000 |       0.0000 |       0.0000 |       0.0000 |       0.0000 |       0.0000 |       0.0000 |       0.0000 |       0.0000 |       0.0000 |       0.0000 |       0.0000 |       0.0000 |       0.0000 |       0.0000 |       0.0000 |       0.0000 |       0.0000 |       0.0000 |       0.0000 |       0.0000 |       0.0000 |       0.0000 |       0.0000 |       0.0000 |       0.0000 |       0.0000 |       0.0000 |       0.0000 |       0.0000 |       0.0000 |       0.0000 |       0.0000 |       0.0000 |       0.0000 |
dl2.accesses                                  6022 |         6022 |         6287 |         6287 |        11417 |        11417 |        11604 |        11604 |        26181 |        26181 |        26647 |        26647 |        62693 |        62693 |        62978 |        62978 |       137902 |       137902 |       137990 |       137990 |       316252 |       316252 |       315871 |       315871 |       709469 |       709469 |       708884 |       708884 |      1561867 |      1561867 |      1557513 |      1557513 |      3412040 |      3412040 |      3395885 |      3395885 |      7514147 |      7514147 |      7476029 |      7476029 |     15951222 |     15951222 |     15840465 |     15840465 |
dl2.hits                                      4635 |         4635 |         4914 |         4914 |         9518 |         9518 |         9719 |         9719 |        23260 |        23260 |        23743 |        23743 |        57723 |        57723 |        58025 |        58025 |       128836 |       128836 |       128941 |       128941 |       298998 |       298998 |       298631 |       298631 |       675831 |       675831 |       675260 |       675260 |      1495461 |      1494702 |      1491121 |      1468167 |      3279323 |      2903340 |      3218234 |      2848915 |      6541185 |      6121389 |      6368929 |      6011671 |     13360107 |     12745552 |     13101915 |     12464633 |
dl2.misses                                    1387 |         1387 |         1373 |         1373 |         1899 |         1899 |         1885 |         1885 |         2921 |         2921 |         2904 |         2904 |         4970 |         4970 |         4953 |         4953 |         9066 |         9066 |         9049 |         9049 |        17254 |        17254 |        17240 |        17240 |        33638 |        33638 |        33624 |        33624 |        66406 |        67165 |        66392 |        89346 |       132717 |       508700 |       177651 |       546970 |       972962 |      1392758 |      1107100 |      1464358 |      2591115 |      3205670 |      2738550 |      3375832 |
dl2.replacements                               171 |          171 |            0 |            0 |          170 |          170 |            0 |            0 |          171 |          171 |            0 |            0 |          171 |          171 |            0 |            0 |          171 |          171 |            0 |            0 |          169 |          169 |            0 |            0 |          169 |          169 |            0 |            0 |          169 |         1629 |            0 |        23810 |         1645 |       443164 |        46579 |       481434 |       841890 |      1327222 |       976028 |      1398822 |      2460043 |      3140134 |      2607478 |      3310296 |
dl2.writebacks                                 104 |          104 |            0 |            0 |          104 |          104 |            0 |            0 |          105 |          105 |            0 |            0 |          105 |          105 |            0 |            0 |          105 |          105 |            0 |            0 |          104 |          104 |            0 |            0 |          104 |          104 |            0 |            0 |          104 |         1306 |            0 |        23500 |         1317 |       433713 |        46269 |       471342 |       823062 |      1261039 |       954225 |      1329805 |      2415696 |      3050353 |      2547497 |      3205427 |
dl2.invalidations                                0 |            0 |            0 |            0 |            0 |            0 |            0 |            0 |            0 |            0 |            0 |            0 |            0 |            0 |            0 |            0 |            0 |            0 |            0 |            0 |            0 |            0 |            0 |            0 |            0 |            0 |            0 |            0 |            0 |            0 |            0 |            0 |            0 |            0 |            0 |            0 |            0 |            0 |            0 |            0 |            0 |            0 |            0 |            0 |
dl2.miss_rate                               0.2303 |       0.2303 |       0.2184 |       0.2184 |       0.1663 |       0.1663 |       0.1624 |       0.1624 |       0.1116 |       0.1116 |       0.1090 |       0.1090 |       0.0793 |       0.0793 |       0.0786 |       0.0786 |       0.0657 |       0.0657 |       0.0656 |       0.0656 |       0.0546 |       0.0546 |       0.0546 |       0.0546 |       0.0474 |       0.0474 |       0.0474 |       0.0474 |       0.0425 |       0.0430 |       0.0426 |       0.0574 |       0.0389 |       0.1491 |       0.0523 |       0.1611 |       0.1295 |       0.1854 |       0.1481 |       0.1959 |       0.1624 |       0.2010 |       0.1729 |       0.2131 |
dl2.repl_rate                               0.0284 |       0.0284 |       0.0000 |       0.0000 |       0.0149 |       0.0149 |       0.0000 |       0.0000 |       0.0065 |       0.0065 |       0.0000 |       0.0000 |       0.0027 |       0.0027 |       0.0000 |       0.0000 |       0.0012 |       0.0012 |       0.0000 |       0.0000 |       0.0005 |       0.0005 |       0.0000 |       0.0000 |       0.0002 |       0.0002 |       0.0000 |       0.0000 |       0.0001 |       0.0010 |       0.0000 |       0.0153 |       0.0005 |       0.1299 |       0.0137 |       0.1418 |       0.1120 |       0.1766 |       0.1306 |       0.1871 |       0.1542 |       0.1969 |       0.1646 |       0.2090 |
dl2.wb_rate                                 0.0173 |       0.0173 |       0.0000 |       0.0000 |       0.0091 |       0.0091 |       0.0000 |       0.0000 |       0.0040 |       0.0040 |       0.0000 |       0.0000 |       0.0017 |       0.0017 |       0.0000 |       0.0000 |       0.0008 |       0.0008 |       0.0000 |       0.0000 |       0.0003 |       0.0003 |       0.0000 |       0.0000 |       0.0001 |       0.0001 |       0.0000 |       0.0000 |       0.0001 |       0.0008 |       0.0000 |       0.0151 |       0.0004 |       0.1271 |       0.0136 |       0.1388 |       0.1095 |       0.1678 |       0.1276 |       0.1779 |       0.1514 |       0.1912 |       0.1608 |       0.2024 |
dl2.inv_rate                                0.0000 |       0.0000 |       0.0000 |       0.0000 |       0.0000 |       0.0000 |       0.0000 |       0.0000 |       0.0000 |       0.0000 |       0.0000 |       0.0000 |       0.0000 |       0.0000 |       0.0000 |       0.0000 |       0.0000 |       0.0000 |       0.0000 |       0.0000 |       0.0000 |       0.0000 |       0.0000 |       0.0000 |       0.0000 |       0.0000 |       0.0000 |       0.0000 |       0.0000 |       0.0000 |       0.0000 |       0.0000 |       0.0000 |       0.0000 |       0.0000 |       0.0000 |       0.0000 |       0.0000 |       0.0000 |       0.0000 |       0.0000 |       0.0000 |       0.0000 |       0.0000 |
itlb.accesses                               489867 |       489867 |       489867 |       489867 |      1017642 |      1017642 |      1017642 |      1017642 |      2169294 |      2169294 |      2169294 |      2169294 |      4713476 |      4713476 |      4713476 |      4713476 |      9815837 |      9815837 |      9815837 |      9815837 |     20970322 |     20970322 |     20970322 |     20970322 |     44479154 |     44479154 |     44479154 |     44479154 |     93306902 |     93306902 |     93306902 |     93306902 |    196193585 |    196193585 |    196193585 |    196193585 |    413639644 |    413639644 |    413639644 |    413639644 |    857299127 |    857299127 |    857299127 |    857299127 |
itlb.hits                                   489857 |       489857 |       489857 |       489857 |      1017632 |      1017632 |      1017632 |      1017632 |      2169284 |      2169284 |      2169284 |      2169284 |      4713466 |      4713466 |      4713466 |      4713466 |      9815827 |      9815827 |      9815827 |      9815827 |     20970312 |     20970312 |     20970312 |     20970312 |     44479144 |     44479144 |     44479144 |     44479144 |     93306892 |     93306892 |     93306892 |     93306892 |    196193575 |    196193575 |    196193575 |    196193575 |    413639634 |    413639634 |    413639634 |    413639634 |    857299117 |    857299117 |    857299117 |    857299117 |
itlb.misses                                     10 |           10 |           10 |           10 |           10 |           10 |           10 |           10 |           10 |           10 |           10 |           10 |           10 |           10 |           10 |           10 |           10 |           10 |           10 |           10 |           10 |           10 |           10 |           10 |           10 |           10 |           10 |           10 |           10 |           10 |           10 |           10 |           10 |           10 |           10 |           10 |           10 |           10 |           10 |           10 |           10 |           10 |           10 |           10 |
itlb.replacements                                0 |            0 |            0 |            0 |            0 |            0 |            0 |            0 |            0 |            0 |            0 |            0 |            0 |            0 |            0 |            0 |            0 |            0 |            0 |            0 |            0 |            0 |            0 |            0 |            0 |            0 |            0 |            0 |            0 |            0 |            0 |            0 |            0 |            0 |            0 |            0 |            0 |            0 |            0 |            0 |            0 |            0 |            0 |            0 |
itlb.writebacks                                  0 |            0 |            0 |            0 |            0 |            0 |            0 |            0 |            0 |            0 |            0 |            0 |            0 |            0 |            0 |            0 |            0 |            0 |            0 |            0 |            0 |            0 |            0 |            0 |            0 |            0 |            0 |            0 |            0 |            0 |            0 |            0 |            0 |            0 |            0 |            0 |            0 |            0 |            0 |            0 |            0 |            0 |            0 |            0 |
itlb.invalidations                               0 |            0 |            0 |            0 |            0 |            0 |            0 |            0 |            0 |            0 |            0 |            0 |            0 |            0 |            0 |            0 |            0 |            0 |            0 |            0 |            0 |            0 |            0 |            0 |            0 |            0 |            0 |            0 |            0 |            0 |            0 |            0 |            0 |            0 |            0 |            0 |            0 |            0 |            0 |            0 |            0 |            0 |            0 |            0 |
itlb.miss_rate                              0.0000 |       0.0000 |       0.0000 |       0.0000 |       0.0000 |       0.0000 |       0.0000 |       0.0000 |       0.0000 |       0.0000 |       0.0000 |       0.0000 |       0.0000 |       0.0000 |       0.0000 |       0.0000 |       0.0000 |       0.0000 |       0.0000 |       0.0000 |       0.0000 |       0.0000 |       0.0000 |       0.0000 |       0.0000 |       0.0000 |       0.0000 |       0.0000 |       0.0000 |       0.0000 |       0.0000 |       0.0000 |       0.0000 |       0.0000 |       0.0000 |       0.0000 |       0.0000 |       0.0000 |       0.0000 |       0.0000 |       0.0000 |       0.0000 |       0.0000 |       0.0000 |
itlb.repl_rate                              0.0000 |       0.0000 |       0.0000 |       0.0000 |       0.0000 |       0.0000 |       0.0000 |       0.0000 |       0.0000 |       0.0000 |       0.0000 |       0.0000 |       0.0000 |       0.0000 |       0.0000 |       0.0000 |       0.0000 |       0.0000 |       0.0000 |       0.0000 |       0.0000 |       0.0000 |       0.0000 |       0.0000 |       0.0000 |       0.0000 |       0.0000 |       0.0000 |       0.0000 |       0.0000 |       0.0000 |       0.0000 |       0.0000 |       0.0000 |       0.0000 |       0.0000 |       0.0000 |       0.0000 |       0.0000 |       0.0000 |       0.0000 |       0.0000 |       0.0000 |       0.0000 |
itlb.wb_rate                                0.0000 |       0.0000 |       0.0000 |       0.0000 |       0.0000 |       0.0000 |       0.0000 |       0.0000 |       0.0000 |       0.0000 |       0.0000 |       0.0000 |       0.0000 |       0.0000 |       0.0000 |       0.0000 |       0.0000 |       0.0000 |       0.0000 |       0.0000 |       0.0000 |       0.0000 |       0.0000 |       0.0000 |       0.0000 |       0.0000 |       0.0000 |       0.0000 |       0.0000 |       0.0000 |       0.0000 |       0.0000 |       0.0000 |       0.0000 |       0.0000 |       0.0000 |       0.0000 |       0.0000 |       0.0000 |       0.0000 |       0.0000 |       0.0000 |       0.0000 |       0.0000 |
itlb.inv_rate                               0.0000 |       0.0000 |       0.0000 |       0.0000 |       0.0000 |       0.0000 |       0.0000 |       0.0000 |       0.0000 |       0.0000 |       0.0000 |       0.0000 |       0.0000 |       0.0000 |       0.0000 |       0.0000 |       0.0000 |       0.0000 |       0.0000 |       0.0000 |       0.0000 |       0.0000 |       0.0000 |       0.0000 |       0.0000 |       0.0000 |       0.0000 |       0.0000 |       0.0000 |       0.0000 |       0.0000 |       0.0000 |       0.0000 |       0.0000 |       0.0000 |       0.0000 |       0.0000 |       0.0000 |       0.0000 |       0.0000 |       0.0000 |       0.0000 |       0.0000 |       0.0000 |
dtlb.accesses                               144917 |       144917 |       144917 |       144917 |       298296 |       298296 |       298296 |       298296 |       626062 |       626062 |       626062 |       626062 |      1327688 |      1327688 |      1327688 |      1327688 |      2762885 |      2762885 |      2762885 |      2762885 |      5814734 |      5814734 |      5814734 |      5814734 |     12207153 |     12207153 |     12207153 |     12207153 |     25479373 |     25479373 |     25479373 |     25479373 |     53188928 |     53188928 |     53188928 |     53188928 |    111025511 |    111025511 |    111025511 |    111025511 |    229767473 |    229767473 |    229767473 |    229767473 |
dtlb.hits                                   144905 |       144905 |       144905 |       144905 |       298280 |       298280 |       298280 |       298280 |       626038 |       626038 |       626038 |       626038 |      1327648 |      1327648 |      1327648 |      1327648 |      2762813 |      2762813 |      2762813 |      2762813 |      5814558 |      5814558 |      5814558 |      5814558 |     12206079 |     12206079 |     12206079 |     12206079 |     25476601 |     25476601 |     25476601 |     25476601 |     53182284 |     53182284 |     53182284 |     53182284 |    111009299 |    111009299 |    111009299 |    111009299 |    229731285 |    229731285 |    229731285 |    229731285 |
dtlb.misses                                     12 |           12 |           12 |           12 |           16 |           16 |           16 |           16 |           24 |           24 |           24 |           24 |           40 |           40 |           40 |           40 |           72 |           72 |           72 |           72 |          176 |          176 |          176 |          176 |         1074 |         1074 |         1074 |         1074 |         2772 |         2772 |         2772 |         2772 |         6644 |         6644 |         6644 |         6644 |        16212 |        16212 |        16212 |        16212 |        36188 |        36188 |        36188 |        36188 |
dtlb.replacements                                0 |            0 |            0 |            0 |            0 |            0 |            0 |            0 |            0 |            0 |            0 |            0 |            0 |            0 |            0 |            0 |            0 |            0 |            0 |            0 |           48 |           48 |           48 |           48 |          946 |          946 |          946 |          946 |         2644 |         2644 |         2644 |         2644 |         6516 |         6516 |         6516 |         6516 |        16084 |        16084 |        16084 |        16084 |        36060 |        36060 |        36060 |        36060 |
dtlb.writebacks                                  0 |            0 |            0 |            0 |            0 |            0 |            0 |            0 |            0 |            0 |            0 |            0 |            0 |            0 |            0 |            0 |            0 |            0 |            0 |            0 |           46 |           46 |           46 |           46 |          940 |          940 |          940 |          940 |         2632 |         2632 |         2632 |         2632 |         6498 |         6498 |         6498 |         6498 |        16046 |        16046 |        16046 |        16046 |        35983 |        35983 |        35983 |        35983 |
dtlb.invalidations                               0 |            0 |            0 |            0 |            0 |            0 |            0 |            0 |            0 |            0 |            0 |            0 |            0 |            0 |            0 |            0 |            0 |            0 |            0 |            0 |            0 |            0 |            0 |            0 |            0 |            0 |            0 |            0 |            0 |            0 |            0 |            0 |            0 |            0 |            0 |            0 |            0 |            0 |            0 |            0 |            0 |            0 |            0 |            0 |
dtlb.miss_rate                              0.0001 |       0.0001 |       0.0001 |       0.0001 |       0.0001 |       0.0001 |       0.0001 |       0.0001 |       0.0000 |       0.0000 |       0.0000 |       0.0000 |       0.0000 |       0.0000 |       0.0000 |       0.0000 |       0.0000 |       0.0000 |       0.0000 |       0.0000 |       0.0000 |       0.0000 |       0.0000 |       0.0000 |       0.0001 |       0.0001 |       0.0001 |       0.0001 |       0.0001 |       0.0001 |       0.0001 |       0.0001 |       0.0001 |       0.0001 |       0.0001 |       0.0001 |       0.0001 |       0.0001 |       0.0001 |       0.0001 |       0.0002 |       0.0002 |       0.0002 |       0.0002 |
dtlb.repl_rate                              0.0000 |       0.0000 |       0.0000 |       0.0000 |       0.0000 |       0.0000 |       0.0000 |       0.0000 |       0.0000 |       0.0000 |       0.0000 |       0.0000 |       0.0000 |       0.0000 |       0.0000 |       0.0000 |       0.0000 |       0.0000 |       0.0000 |       0.0000 |       0.0000 |       0.0000 |       0.0000 |       0.0000 |       0.0001 |       0.0001 |       0.0001 |       0.0001 |       0.0001 |       0.0001 |       0.0001 |       0.0001 |       0.0001 |       0.0001 |       0.0001 |       0.0001 |       0.0001 |       0.0001 |       0.0001 |       0.0001 |       0.0002 |       0.0002 |       0.0002 |       0.0002 |
dtlb.wb_rate                                0.0000 |       0.0000 |       0.0000 |       0.0000 |       0.0000 |       0.0000 |       0.0000 |       0.0000 |       0.0000 |       0.0000 |       0.0000 |       0.0000 |       0.0000 |       0.0000 |       0.0000 |       0.0000 |       0.0000 |       0.0000 |       0.0000 |       0.0000 |       0.0000 |       0.0000 |       0.0000 |       0.0000 |       0.0001 |       0.0001 |       0.0001 |       0.0001 |       0.0001 |       0.0001 |       0.0001 |       0.0001 |       0.0001 |       0.0001 |       0.0001 |       0.0001 |       0.0001 |       0.0001 |       0.0001 |       0.0001 |       0.0002 |       0.0002 |       0.0002 |       0.0002 |
dtlb.inv_rate                               0.0000 |       0.0000 |       0.0000 |       0.0000 |       0.0000 |       0.0000 |       0.0000 |       0.0000 |       0.0000 |       0.0000 |       0.0000 |       0.0000 |       0.0000 |       0.0000 |       0.0000 |       0.0000 |       0.0000 |       0.0000 |       0.0000 |       0.0000 |       0.0000 |       0.0000 |       0.0000 |       0.0000 |       0.0000 |       0.0000 |       0.0000 |       0.0000 |       0.0000 |       0.0000 |       0.0000 |       0.0000 |       0.0000 |       0.0000 |       0.0000 |       0.0000 |       0.0000 |       0.0000 |       0.0000 |       0.0000 |       0.0000 |       0.0000 |       0.0000 |       0.0000 |
ld_text_base                            0x00400000 |   0x00400000 |   0x00400000 |   0x00400000 |   0x00400000 |   0x00400000 |   0x00400000 |   0x00400000 |   0x00400000 |   0x00400000 |   0x00400000 |   0x00400000 |   0x00400000 |   0x00400000 |   0x00400000 |   0x00400000 |   0x00400000 |   0x00400000 |   0x00400000 |   0x00400000 |   0x00400000 |   0x00400000 |   0x00400000 |   0x00400000 |   0x00400000 |   0x00400000 |   0x00400000 |   0x00400000 |   0x00400000 |   0x00400000 |   0x00400000 |   0x00400000 |   0x00400000 |   0x00400000 |   0x00400000 |   0x00400000 |   0x00400000 |   0x00400000 |   0x00400000 |   0x00400000 |   0x00400000 |   0x00400000 |   0x00400000 |   0x00400000 |
ld_text_size                                 74064 |        74064 |        74064 |        74064 |        74096 |        74096 |        74096 |        74096 |        74112 |        74112 |        74112 |        74112 |        74112 |        74112 |        74112 |        74112 |        74112 |        74112 |        74112 |        74112 |        74128 |        74128 |        74128 |        74128 |        74128 |        74128 |        74128 |        74128 |        74128 |        74128 |        74128 |        74128 |        74128 |        74128 |        74128 |        74128 |        74128 |        74128 |        74128 |        74128 |        74128 |        74128 |        74128 |        74128 |
ld_data_base                            0x10000000 |   0x10000000 |   0x10000000 |   0x10000000 |   0x10000000 |   0x10000000 |   0x10000000 |   0x10000000 |   0x10000000 |   0x10000000 |   0x10000000 |   0x10000000 |   0x10000000 |   0x10000000 |   0x10000000 |   0x10000000 |   0x10000000 |   0x10000000 |   0x10000000 |   0x10000000 |   0x10000000 |   0x10000000 |   0x10000000 |   0x10000000 |   0x10000000 |   0x10000000 |   0x10000000 |   0x10000000 |   0x10000000 |   0x10000000 |   0x10000000 |   0x10000000 |   0x10000000 |   0x10000000 |   0x10000000 |   0x10000000 |   0x10000000 |   0x10000000 |   0x10000000 |   0x10000000 |   0x10000000 |   0x10000000 |   0x10000000 |   0x10000000 |
ld_data_size                                  8192 |         8192 |         8192 |         8192 |         8192 |         8192 |         8192 |         8192 |         8192 |         8192 |         8192 |         8192 |         8192 |         8192 |         8192 |         8192 |         8192 |         8192 |         8192 |         8192 |         8192 |         8192 |         8192 |         8192 |         8192 |         8192 |         8192 |         8192 |         8192 |         8192 |         8192 |         8192 |         8192 |         8192 |         8192 |         8192 |         8192 |         8192 |         8192 |         8192 |         8192 |         8192 |         8192 |         8192 |
ld_stack_base                           0x7fffc000 |   0x7fffc000 |   0x7fffc000 |   0x7fffc000 |   0x7fffc000 |   0x7fffc000 |   0x7fffc000 |   0x7fffc000 |   0x7fffc000 |   0x7fffc000 |   0x7fffc000 |   0x7fffc000 |   0x7fffc000 |   0x7fffc000 |   0x7fffc000 |   0x7fffc000 |   0x7fffc000 |   0x7fffc000 |   0x7fffc000 |   0x7fffc000 |   0x7fffc000 |   0x7fffc000 |   0x7fffc000 |   0x7fffc000 |   0x7fffc000 |   0x7fffc000 |   0x7fffc000 |   0x7fffc000 |   0x7fffc000 |   0x7fffc000 |   0x7fffc000 |   0x7fffc000 |   0x7fffc000 |   0x7fffc000 |   0x7fffc000 |   0x7fffc000 |   0x7fffc000 |   0x7fffc000 |   0x7fffc000 |   0x7fffc000 |   0x7fffc000 |   0x7fffc000 |   0x7fffc000 |   0x7fffc000 |
ld_stack_size                                16384 |        16384 |        16384 |        16384 |        16384 |        16384 |        16384 |        16384 |        16384 |        16384 |        16384 |        16384 |        16384 |        16384 |        16384 |        16384 |        16384 |        16384 |        16384 |        16384 |        16384 |        16384 |        16384 |        16384 |        16384 |        16384 |        16384 |        16384 |        16384 |        16384 |        16384 |        16384 |        16384 |        16384 |        16384 |        16384 |        16384 |        16384 |        16384 |        16384 |        16384 |        16384 |        16384 |        16384 |
ld_prog_entry                           0x00400140 |   0x00400140 |   0x00400140 |   0x00400140 |   0x00400140 |   0x00400140 |   0x00400140 |   0x00400140 |   0x00400140 |   0x00400140 |   0x00400140 |   0x00400140 |   0x00400140 |   0x00400140 |   0x00400140 |   0x00400140 |   0x00400140 |   0x00400140 |   0x00400140 |   0x00400140 |   0x00400140 |   0x00400140 |   0x00400140 |   0x00400140 |   0x00400140 |   0x00400140 |   0x00400140 |   0x00400140 |   0x00400140 |   0x00400140 |   0x00400140 |   0x00400140 |   0x00400140 |   0x00400140 |   0x00400140 |   0x00400140 |   0x00400140 |   0x00400140 |   0x00400140 |   0x00400140 |   0x00400140 |   0x00400140 |   0x00400140 |   0x00400140 |
ld_environ_base                         0x7fff8000 |   0x7fff8000 |   0x7fff8000 |   0x7fff8000 |   0x7fff8000 |   0x7fff8000 |   0x7fff8000 |   0x7fff8000 |   0x7fff8000 |   0x7fff8000 |   0x7fff8000 |   0x7fff8000 |   0x7fff8000 |   0x7fff8000 |   0x7fff8000 |   0x7fff8000 |   0x7fff8000 |   0x7fff8000 |   0x7fff8000 |   0x7fff8000 |   0x7fff8000 |   0x7fff8000 |   0x7fff8000 |   0x7fff8000 |   0x7fff8000 |   0x7fff8000 |   0x7fff8000 |   0x7fff8000 |   0x7fff8000 |   0x7fff8000 |   0x7fff8000 |   0x7fff8000 |   0x7fff8000 |   0x7fff8000 |   0x7fff8000 |   0x7fff8000 |   0x7fff8000 |   0x7fff8000 |   0x7fff8000 |   0x7fff8000 |   0x7fff8000 |   0x7fff8000 |   0x7fff8000 |   0x7fff8000 |
ld_target_big_endian                             0 |            0 |            0 |            0 |            0 |            0 |            0 |            0 |            0 |            0 |            0 |            0 |            0 |            0 |            0 |            0 |            0 |            0 |            0 |            0 |            0 |            0 |            0 |            0 |            0 |            0 |            0 |            0 |            0 |            0 |            0 |            0 |            0 |            0 |            0 |            0 |            0 |            0 |            0 |            0 |            0 |            0 |            0 |            0 |
mem.page_count                                  31 |           31 |           31 |           31 |           35 |           35 |           35 |           35 |           43 |           43 |           43 |           43 |           59 |           59 |           59 |           59 |           91 |           91 |           91 |           91 |          155 |          155 |          155 |          155 |          283 |          283 |          283 |          283 |          539 |          539 |          539 |          539 |         1051 |         1051 |         1051 |         1051 |         2075 |         2075 |         2075 |         2075 |         4123 |         4123 |         4123 |         4123 |
mem.page_mem                                  124k |         124k |         124k |         124k |         140k |         140k |         140k |         140k |         172k |         172k |         172k |         172k |         236k |         236k |         236k |         236k |         364k |         364k |         364k |         364k |         620k |         620k |         620k |         620k |        1132k |        1132k |        1132k |        1132k |        2156k |        2156k |        2156k |        2156k |        4204k |        4204k |        4204k |        4204k |        8300k |        8300k |        8300k |        8300k |       16492k |       16492k |       16492k |       16492k |
mem.ptab_misses                                 31 |           31 |           31 |           31 |           35 |           35 |           35 |           35 |           43 |           43 |           43 |           43 |           59 |           59 |           59 |           59 |           91 |           91 |           91 |           91 |          155 |          155 |          155 |          155 |          283 |          283 |          283 |          283 |          539 |          539 |          539 |          539 |         1051 |         1051 |         1051 |         1051 |         2075 |         2075 |         2075 |         2075 |         4123 |         4123 |         4123 |         4123 |
mem.ptab_accesses                          2708308 |      2708308 |      2708308 |      2708308 |      5126358 |      5126358 |      5126358 |      5126358 |     10388594 |     10388594 |     10388594 |     10388594 |     21968574 |     21968574 |     21968574 |     21968574 |     45248412 |     45248412 |     45248412 |     45248412 |     95970146 |     95970146 |     95970146 |     95970146 |    202790312 |    202790312 |    202790312 |    202790312 |    424645744 |    424645744 |    424645744 |    424645744 |    891611586 |    891611586 |    891611586 |    891611586 |   1877068988 |   1877068988 |   1877068988 |   1877068988 |   3889190844 |   3889190844 |   3889190844 |   3889190844 |
mem.ptab_miss_rate                          0.0000 |       0.0000 |       0.0000 |       0.0000 |       0.0000 |       0.0000 |       0.0000 |       0.0000 |       0.0000 |       0.0000 |       0.0000 |       0.0000 |       0.0000 |       0.0000 |       0.0000 |       0.0000 |       0.0000 |       0.0000 |       0.0000 |       0.0000 |       0.0000 |       0.0000 |       0.0000 |       0.0000 |       0.0000 |       0.0000 |       0.0000 |       0.0000 |       0.0000 |       0.0000 |       0.0000 |       0.0000 |       0.0000 |       0.0000 |       0.0000 |       0.0000 |       0.0000 |       0.0000 |       0.0000 |       0.0000 |       0.0000 |       0.0000 |       0.0000 |       0.0000 |
-------------------------------------------------------------------------------------------------
sim-bpred                                     4096 |         4096 |         4096 |         4096 |         4096 |         4096 |         4096 |         8192 |         8192 |         8192 |         8192 |         8192 |         8192 |         8192 |        16384 |        16384 |        16384 |        16384 |        16384 |        16384 |        16384 |        32768 |        32768 |        32768 |        32768 |        32768 |        32768 |        32768 |        65536 |        65536 |        65536 |        65536 |        65536 |        65536 |        65536 |       131072 |       131072 |       131072 |       131072 |       131072 |       131072 |       131072 |       262144 |       262144 |       262144 |       262144 |       262144 |       262144 |       262144 |       524288 |       524288 |       524288 |       524288 |       524288 |       524288 |       524288 |      1048576 |      1048576 |      1048576 |      1048576 |      1048576 |      1048576 |      1048576 |      2097152 |      2097152 |      2097152 |      2097152 |      2097152 |      2097152 |      2097152 |      4194304 |      4194304 |      4194304 |      4194304 |      4194304 |      4194304 |      4194304 |
-bpred bimod -bpred:bimod 512
-bpred bimod -bpred:bimod 1024
-bpred bimod -bpred:bimod 2048
-bpred 2lev -bpred:2lev 1 512 10 1
-bpred 2lev -bpred:2lev 1 1024 10 1
-bpred 2lev -bpred:2lev 1 2048 10 1
-bpred 2lev -bpred:2lev 1 4096 10 1
-------------------------------------------------------------------------------------------------
sim_num_insn                                489867 |       489867 |       489867 |       489867 |       489867 |       489867 |       489867 |      1017642 |      1017642 |      1017642 |      1017642 |      1017642 |      1017642 |      1017642 |      2169294 |      2169294 |      2169294 |      2169294 |      2169294 |      2169294 |      2169294 |      4713476 |      4713476 |      4713476 |      4713476 |      4713476 |      4713476 |      4713476 |      9815837 |      9815837 |      9815837 |      9815837 |      9815837 |      9815837 |      9815837 |     20970322 |     20970322 |     20970322 |     20970322 |     20970322 |     20970322 |     20970322 |     44479154 |     44479154 |     44479154 |     44479154 |     44479154 |     44479154 |     44479154 |     93306902 |     93306902 |     93306902 |     93306902 |     93306902 |     93306902 |     93306902 |    196193585 |    196193585 |    196193585 |    196193585 |    196193585 |    196193585 |    196193585 |    413639644 |    413639644 |    413639644 |    413639644 |    413639644 |    413639644 |    413639644 |    857299127 |    857299127 |    857299127 |    857299127 |    857299127 |    857299127 |    857299127 |
sim_num_refs                                128451 |       128451 |       128451 |       128451 |       128451 |       128451 |       128451 |       265446 |       265446 |       265446 |       265446 |       265446 |       265446 |       265446 |       560444 |       560444 |       560444 |       560444 |       560444 |       560444 |       560444 |      1196534 |      1196534 |      1196534 |      1196534 |      1196534 |      1196534 |      1196534 |      2500659 |      2500659 |      2500659 |      2500659 |      2500659 |      2500659 |      2500659 |      5290364 |      5290364 |      5290364 |      5290364 |      5290364 |      5290364 |      5290364 |     11158495 |     11158495 |     11158495 |     11158495 |     11158495 |     11158495 |     11158495 |     23382139 |     23382139 |     23382139 |     23382139 |     23382139 |     23382139 |     23382139 |     48994542 |     48994542 |     48994542 |     48994542 |     48994542 |     48994542 |     48994542 |    102636821 |    102636821 |    102636821 |    102636821 |    102636821 |    102636821 |    102636821 |    212990175 |    212990175 |    212990175 |    212990175 |    212990175 |    212990175 |    212990175 |
sim_elapsed_time                                 1 |            1 |            1 |            1 |            1 |            1 |            1 |            1 |            1 |            1 |            1 |            1 |            1 |            1 |            1 |            1 |            1 |            1 |            1 |            1 |            1 |            1 |            1 |            1 |            1 |            1 |            1 |            1 |            1 |            1 |            1 |            1 |            1 |            2 |            1 |            3 |            2 |            3 |            2 |            3 |            2 |            3 |            5 |            5 |            6 |            5 |            5 |            6 |            5 |           11 |           11 |           11 |           11 |           11 |           11 |           11 |           23 |           23 |           23 |           23 |           23 |           23 |           24 |           48 |           48 |           48 |           49 |           49 |           48 |           50 |          100 |          100 |           99 |          101 |          101 |          101 |          103 |
sim_inst_rate                          489867.0000 |  489867.0000 |  489867.0000 |  489867.0000 |  489867.0000 |  489867.0000 |  489867.0000 | 1017642.0000 | 1017642.0000 | 1017642.0000 | 1017642.0000 | 1017642.0000 | 1017642.0000 | 1017642.0000 | 2169294.0000 | 2169294.0000 | 2169294.0000 | 2169294.0000 | 2169294.0000 | 2169294.0000 | 2169294.0000 | 4713476.0000 | 4713476.0000 | 4713476.0000 | 4713476.0000 | 4713476.0000 | 4713476.0000 | 4713476.0000 | 9815837.0000 | 9815837.0000 | 9815837.0000 | 9815837.0000 | 9815837.0000 | 4907918.5000 | 9815837.0000 | 6990107.3333 |10485161.0000 | 6990107.3333 |10485161.0000 | 6990107.3333 |10485161.0000 | 6990107.3333 | 8895830.8000 | 8895830.8000 | 7413192.3333 | 8895830.8000 | 8895830.8000 | 7413192.3333 | 8895830.8000 | 8482445.6364 | 8482445.6364 | 8482445.6364 | 8482445.6364 | 8482445.6364 | 8482445.6364 | 8482445.6364 | 8530155.8696 | 8530155.8696 | 8530155.8696 | 8530155.8696 | 8530155.8696 | 8530155.8696 | 8174732.7083 | 8617492.5833 | 8617492.5833 | 8617492.5833 | 8441625.3878 | 8441625.3878 | 8617492.5833 | 8272792.8800 | 8572991.2700 | 8572991.2700 | 8659587.1414 | 8488110.1683 | 8488110.1683 | 8488110.1683 | 8323292.4951 |
sim_num_branches                             77561 |        77561 |        77561 |        77561 |        77561 |        77561 |        77561 |       162740 |       162740 |       162740 |       162740 |       162740 |       162740 |       162740 |       349700 |       349700 |       349700 |       349700 |       349700 |       349700 |       349700 |       765522 |       765522 |       765522 |       765522 |       765522 |       765522 |       765522 |      1605107 |      1605107 |      1605107 |      1605107 |      1605107 |      1605107 |      1605107 |      3446876 |      3446876 |      3446876 |      3446876 |      3446876 |      3446876 |      3446876 |      7345195 |      7345195 |      7345195 |      7345195 |      7345195 |      7345195 |      7345195 |     15500184 |     15500184 |     15500184 |     15500184 |     15500184 |     15500184 |     15500184 |     32721833 |     32721833 |     32721833 |     32721833 |     32721833 |     32721833 |     32721833 |     69202406 |     69202406 |     69202406 |     69202406 |     69202406 |     69202406 |     69202406 |    143904772 |    143904772 |    143904772 |    143904772 |    143904772 |    143904772 |    143904772 |
sim_IPB                                     6.3159 |       6.3159 |       6.3159 |       6.3159 |       6.3159 |       6.3159 |       6.3159 |       6.2532 |       6.2532 |       6.2532 |       6.2532 |       6.2532 |       6.2532 |       6.2532 |       6.2033 |       6.2033 |       6.2033 |       6.2033 |       6.2033 |       6.2033 |       6.2033 |       6.1572 |       6.1572 |       6.1572 |       6.1572 |       6.1572 |       6.1572 |       6.1572 |       6.1154 |       6.1154 |       6.1154 |       6.1154 |       6.1154 |       6.1154 |       6.1154 |       6.0839 |       6.0839 |       6.0839 |       6.0839 |       6.0839 |       6.0839 |       6.0839 |       6.0555 |       6.0555 |       6.0555 |       6.0555 |       6.0555 |       6.0555 |       6.0555 |       6.0197 |       6.0197 |       6.0197 |       6.0197 |       6.0197 |       6.0197 |       6.0197 |       5.9958 |       5.9958 |       5.9958 |       5.9958 |       5.9958 |       5.9958 |       5.9958 |       5.9772 |       5.9772 |       5.9772 |       5.9772 |       5.9772 |       5.9772 |       5.9772 |       5.9574 |       5.9574 |       5.9574 |       5.9574 |       5.9574 |       5.9574 |       5.9574 |
bpred_bimod.lookups                          77561 |        77561 |        77561 |xxxxxxxxxxxxx |xxxxxxxxxxxxx |xxxxxxxxxxxxx |xxxxxxxxxxxxx |       162740 |       162740 |       162740 |xxxxxxxxxxxxx |xxxxxxxxxxxxx |xxxxxxxxxxxxx |xxxxxxxxxxxxx |       349700 |       349700 |       349700 |xxxxxxxxxxxxx |xxxxxxxxxxxxx |xxxxxxxxxxxxx |xxxxxxxxxxxxx |       765522 |       765522 |       765522 |xxxxxxxxxxxxx |xxxxxxxxxxxxx |xxxxxxxxxxxxx |xxxxxxxxxxxxx |      1605107 |      1605107 |      1605107 |xxxxxxxxxxxxx |xxxxxxxxxxxxx |xxxxxxxxxxxxx |xxxxxxxxxxxxx |      3446876 |      3446876 |      3446876 |xxxxxxxxxxxxx |xxxxxxxxxxxxx |xxxxxxxxxxxxx |xxxxxxxxxxxxx |      7345195 |      7345195 |      7345195 |xxxxxxxxxxxxx |xxxxxxxxxxxxx |xxxxxxxxxxxxx |xxxxxxxxxxxxx |     15500184 |     15500184 |     15500184 |xxxxxxxxxxxxx |xxxxxxxxxxxxx |xxxxxxxxxxxxx |xxxxxxxxxxxxx |     32721833 |     32721833 |     32721833 |xxxxxxxxxxxxx |xxxxxxxxxxxxx |xxxxxxxxxxxxx |xxxxxxxxxxxxx |     69202406 |     69202406 |     69202406 |xxxxxxxxxxxxx |xxxxxxxxxxxxx |xxxxxxxxxxxxx |xxxxxxxxxxxxx |    143904772 |    143904772 |    143904772 |
bpred_bimod.updates                          77561 |        77561 |        77561 |xxxxxxxxxxxxx |xxxxxxxxxxxxx |xxxxxxxxxxxxx |xxxxxxxxxxxxx |       162740 |       162740 |       162740 |xxxxxxxxxxxxx |xxxxxxxxxxxxx |xxxxxxxxxxxxx |xxxxxxxxxxxxx |       349700 |       349700 |       349700 |xxxxxxxxxxxxx |xxxxxxxxxxxxx |xxxxxxxxxxxxx |xxxxxxxxxxxxx |       765522 |       765522 |       765522 |xxxxxxxxxxxxx |xxxxxxxxxxxxx |xxxxxxxxxxxxx |xxxxxxxxxxxxx |      1605107 |      1605107 |      1605107 |xxxxxxxxxxxxx |xxxxxxxxxxxxx |xxxxxxxxxxxxx |xxxxxxxxxxxxx |      3446876 |      3446876 |      3446876 |xxxxxxxxxxxxx |xxxxxxxxxxxxx |xxxxxxxxxxxxx |xxxxxxxxxxxxx |      7345195 |      7345195 |      7345195 |xxxxxxxxxxxxx |xxxxxxxxxxxxx |xxxxxxxxxxxxx |xxxxxxxxxxxxx |     15500184 |     15500184 |     15500184 |xxxxxxxxxxxxx |xxxxxxxxxxxxx |xxxxxxxxxxxxx |xxxxxxxxxxxxx |     32721833 |     32721833 |     32721833 |xxxxxxxxxxxxx |xxxxxxxxxxxxx |xxxxxxxxxxxxx |xxxxxxxxxxxxx |     69202406 |     69202406 |     69202406 |xxxxxxxxxxxxx |xxxxxxxxxxxxx |xxxxxxxxxxxxx |xxxxxxxxxxxxx |    143904772 |    143904772 |    143904772 |
bpred_bimod.addr_hits                        55078 |        55079 |        55080 |xxxxxxxxxxxxx |xxxxxxxxxxxxx |xxxxxxxxxxxxx |xxxxxxxxxxxxx |       112510 |       112512 |       112517 |xxxxxxxxxxxxx |xxxxxxxxxxxxx |xxxxxxxxxxxxx |xxxxxxxxxxxxx |       242987 |       242989 |       242991 |xxxxxxxxxxxxx |xxxxxxxxxxxxx |xxxxxxxxxxxxx |xxxxxxxxxxxxx |       541663 |       541666 |       541668 |xxxxxxxxxxxxx |xxxxxxxxxxxxx |xxxxxxxxxxxxx |xxxxxxxxxxxxx |      1117943 |      1117944 |      1117946 |xxxxxxxxxxxxx |xxxxxxxxxxxxx |xxxxxxxxxxxxx |xxxxxxxxxxxxx |      2425220 |      2425221 |      2425221 |xxxxxxxxxxxxx |xxxxxxxxxxxxx |xxxxxxxxxxxxx |xxxxxxxxxxxxx |      5201628 |      5201630 |      5201631 |xxxxxxxxxxxxx |xxxxxxxxxxxxx |xxxxxxxxxxxxx |xxxxxxxxxxxxx |     10972658 |     10972659 |     10972660 |xxxxxxxxxxxxx |xxxxxxxxxxxxx |xxxxxxxxxxxxx |xxxxxxxxxxxxx |     23208680 |     23208682 |     23208682 |xxxxxxxxxxxxx |xxxxxxxxxxxxx |xxxxxxxxxxxxx |xxxxxxxxxxxxx |     49580647 |     49580648 |     49580648 |xxxxxxxxxxxxx |xxxxxxxxxxxxx |xxxxxxxxxxxxx |xxxxxxxxxxxxx |    102312695 |    102312696 |    102312696 |
bpred_bimod.dir_hits                         55194 |        55192 |        55193 |xxxxxxxxxxxxx |xxxxxxxxxxxxx |xxxxxxxxxxxxx |xxxxxxxxxxxxx |       112625 |       112624 |       112628 |xxxxxxxxxxxxx |xxxxxxxxxxxxx |xxxxxxxxxxxxx |xxxxxxxxxxxxx |       243103 |       243101 |       243104 |xxxxxxxxxxxxx |xxxxxxxxxxxxx |xxxxxxxxxxxxx |xxxxxxxxxxxxx |       541781 |       541781 |       541783 |xxxxxxxxxxxxx |xxxxxxxxxxxxx |xxxxxxxxxxxxx |xxxxxxxxxxxxx |      1118060 |      1118057 |      1118059 |xxxxxxxxxxxxx |xxxxxxxxxxxxx |xxxxxxxxxxxxx |xxxxxxxxxxxxx |      2425339 |      2425337 |      2425335 |xxxxxxxxxxxxx |xxxxxxxxxxxxx |xxxxxxxxxxxxx |xxxxxxxxxxxxx |      5201746 |      5201744 |      5201745 |xxxxxxxxxxxxx |xxxxxxxxxxxxx |xxxxxxxxxxxxx |xxxxxxxxxxxxx |     10972775 |     10972773 |     10972774 |xxxxxxxxxxxxx |xxxxxxxxxxxxx |xxxxxxxxxxxxx |xxxxxxxxxxxxx |     23208799 |     23208797 |     23208795 |xxxxxxxxxxxxx |xxxxxxxxxxxxx |xxxxxxxxxxxxx |xxxxxxxxxxxxx |     49580767 |     49580763 |     49580762 |xxxxxxxxxxxxx |xxxxxxxxxxxxx |xxxxxxxxxxxxx |xxxxxxxxxxxxx |    102312814 |    102312810 |    102312809 |
bpred_bimod.misses                           22367 |        22369 |        22368 |xxxxxxxxxxxxx |xxxxxxxxxxxxx |xxxxxxxxxxxxx |xxxxxxxxxxxxx |        50115 |        50116 |        50112 |xxxxxxxxxxxxx |xxxxxxxxxxxxx |xxxxxxxxxxxxx |xxxxxxxxxxxxx |       106597 |       106599 |       106596 |xxxxxxxxxxxxx |xxxxxxxxxxxxx |xxxxxxxxxxxxx |xxxxxxxxxxxxx |       223741 |       223741 |       223739 |xxxxxxxxxxxxx |xxxxxxxxxxxxx |xxxxxxxxxxxxx |xxxxxxxxxxxxx |       487047 |       487050 |       487048 |xxxxxxxxxxxxx |xxxxxxxxxxxxx |xxxxxxxxxxxxx |xxxxxxxxxxxxx |      1021537 |      1021539 |      1021541 |xxxxxxxxxxxxx |xxxxxxxxxxxxx |xxxxxxxxxxxxx |xxxxxxxxxxxxx |      2143449 |      2143451 |      2143450 |xxxxxxxxxxxxx |xxxxxxxxxxxxx |xxxxxxxxxxxxx |xxxxxxxxxxxxx |      4527409 |      4527411 |      4527410 |xxxxxxxxxxxxx |xxxxxxxxxxxxx |xxxxxxxxxxxxx |xxxxxxxxxxxxx |      9513034 |      9513036 |      9513038 |xxxxxxxxxxxxx |xxxxxxxxxxxxx |xxxxxxxxxxxxx |xxxxxxxxxxxxx |     19621639 |     19621643 |     19621644 |xxxxxxxxxxxxx |xxxxxxxxxxxxx |xxxxxxxxxxxxx |xxxxxxxxxxxxx |     41591958 |     41591962 |     41591963 |
bpred_bimod.jr_hits                             64 |           64 |           64 |xxxxxxxxxxxxx |xxxxxxxxxxxxx |xxxxxxxxxxxxx |xxxxxxxxxxxxx |           64 |           64 |           64 |xxxxxxxxxxxxx |xxxxxxxxxxxxx |xxxxxxxxxxxxx |xxxxxxxxxxxxx |           64 |           64 |           64 |xxxxxxxxxxxxx |xxxxxxxxxxxxx |xxxxxxxxxxxxx |xxxxxxxxxxxxx |           64 |           64 |           64 |xxxxxxxxxxxxx |xxxxxxxxxxxxx |xxxxxxxxxxxxx |xxxxxxxxxxxxx |           64 |           64 |           64 |xxxxxxxxxxxxx |xxxxxxxxxxxxx |xxxxxxxxxxxxx |xxxxxxxxxxxxx |           64 |           64 |           64 |xxxxxxxxxxxxx |xxxxxxxxxxxxx |xxxxxxxxxxxxx |xxxxxxxxxxxxx |           64 |           64 |           64 |xxxxxxxxxxxxx |xxxxxxxxxxxxx |xxxxxxxxxxxxx |xxxxxxxxxxxxx |           64 |           64 |           64 |xxxxxxxxxxxxx |xxxxxxxxxxxxx |xxxxxxxxxxxxx |xxxxxxxxxxxxx |           64 |           64 |           64 |xxxxxxxxxxxxx |xxxxxxxxxxxxx |xxxxxxxxxxxxx |xxxxxxxxxxxxx |           64 |           64 |           64 |xxxxxxxxxxxxx |xxxxxxxxxxxxx |xxxxxxxxxxxxx |xxxxxxxxxxxxx |           64 |           64 |           64 |
bpred_bimod.jr_seen                             64 |           64 |           64 |xxxxxxxxxxxxx |xxxxxxxxxxxxx |xxxxxxxxxxxxx |xxxxxxxxxxxxx |           64 |           64 |           64 |xxxxxxxxxxxxx |xxxxxxxxxxxxx |xxxxxxxxxxxxx |xxxxxxxxxxxxx |           64 |           64 |           64 |xxxxxxxxxxxxx |xxxxxxxxxxxxx |xxxxxxxxxxxxx |xxxxxxxxxxxxx |           64 |           64 |           64 |xxxxxxxxxxxxx |xxxxxxxxxxxxx |xxxxxxxxxxxxx |xxxxxxxxxxxxx |           64 |           64 |           64 |xxxxxxxxxxxxx |xxxxxxxxxxxxx |xxxxxxxxxxxxx |xxxxxxxxxxxxx |           64 |           64 |           64 |xxxxxxxxxxxxx |xxxxxxxxxxxxx |xxxxxxxxxxxxx |xxxxxxxxxxxxx |           64 |           64 |           64 |xxxxxxxxxxxxx |xxxxxxxxxxxxx |xxxxxxxxxxxxx |xxxxxxxxxxxxx |           64 |           64 |           64 |xxxxxxxxxxxxx |xxxxxxxxxxxxx |xxxxxxxxxxxxx |xxxxxxxxxxxxx |           64 |           64 |           64 |xxxxxxxxxxxxx |xxxxxxxxxxxxx |xxxxxxxxxxxxx |xxxxxxxxxxxxx |           64 |           64 |           64 |xxxxxxxxxxxxx |xxxxxxxxxxxxx |xxxxxxxxxxxxx |xxxxxxxxxxxxx |           64 |           64 |           64 |
bpred_bimod.jr_non_ras_hits.PP                   0 |            0 |            0 |xxxxxxxxxxxxx |xxxxxxxxxxxxx |xxxxxxxxxxxxx |xxxxxxxxxxxxx |            0 |            0 |            0 |xxxxxxxxxxxxx |xxxxxxxxxxxxx |xxxxxxxxxxxxx |xxxxxxxxxxxxx |            0 |            0 |            0 |xxxxxxxxxxxxx |xxxxxxxxxxxxx |xxxxxxxxxxxxx |xxxxxxxxxxxxx |            0 |            0 |            0 |xxxxxxxxxxxxx |xxxxxxxxxxxxx |xxxxxxxxxxxxx |xxxxxxxxxxxxx |            0 |            0 |            0 |xxxxxxxxxxxxx |xxxxxxxxxxxxx |xxxxxxxxxxxxx |xxxxxxxxxxxxx |            0 |            0 |            0 |xxxxxxxxxxxxx |xxxxxxxxxxxxx |xxxxxxxxxxxxx |xxxxxxxxxxxxx |            0 |            0 |            0 |xxxxxxxxxxxxx |xxxxxxxxxxxxx |xxxxxxxxxxxxx |xxxxxxxxxxxxx |            0 |            0 |            0 |xxxxxxxxxxxxx |xxxxxxxxxxxxx |xxxxxxxxxxxxx |xxxxxxxxxxxxx |            0 |            0 |            0 |xxxxxxxxxxxxx |xxxxxxxxxxxxx |xxxxxxxxxxxxx |xxxxxxxxxxxxx |            0 |            0 |            0 |xxxxxxxxxxxxx |xxxxxxxxxxxxx |xxxxxxxxxxxxx |xxxxxxxxxxxxx |            0 |            0 |            0 |
bpred_bimod.jr_non_ras_seen.PP                   0 |            0 |            0 |xxxxxxxxxxxxx |xxxxxxxxxxxxx |xxxxxxxxxxxxx |xxxxxxxxxxxxx |            0 |            0 |            0 |xxxxxxxxxxxxx |xxxxxxxxxxxxx |xxxxxxxxxxxxx |xxxxxxxxxxxxx |            0 |            0 |            0 |xxxxxxxxxxxxx |xxxxxxxxxxxxx |xxxxxxxxxxxxx |xxxxxxxxxxxxx |            0 |            0 |            0 |xxxxxxxxxxxxx |xxxxxxxxxxxxx |xxxxxxxxxxxxx |xxxxxxxxxxxxx |            0 |            0 |            0 |xxxxxxxxxxxxx |xxxxxxxxxxxxx |xxxxxxxxxxxxx |xxxxxxxxxxxxx |            0 |            0 |            0 |xxxxxxxxxxxxx |xxxxxxxxxxxxx |xxxxxxxxxxxxx |xxxxxxxxxxxxx |            0 |            0 |            0 |xxxxxxxxxxxxx |xxxxxxxxxxxxx |xxxxxxxxxxxxx |xxxxxxxxxxxxx |            0 |            0 |            0 |xxxxxxxxxxxxx |xxxxxxxxxxxxx |xxxxxxxxxxxxx |xxxxxxxxxxxxx |            0 |            0 |            0 |xxxxxxxxxxxxx |xxxxxxxxxxxxx |xxxxxxxxxxxxx |xxxxxxxxxxxxx |            0 |            0 |            0 |xxxxxxxxxxxxx |xxxxxxxxxxxxx |xxxxxxxxxxxxx |xxxxxxxxxxxxx |            0 |            0 |            0 |
bpred_bimod.bpred_addr_rate                 0.7101 |       0.7101 |       0.7102 |xxxxxxxxxxxxx |xxxxxxxxxxxxx |xxxxxxxxxxxxx |xxxxxxxxxxxxx |       0.6913 |       0.6914 |       0.6914 |xxxxxxxxxxxxx |xxxxxxxxxxxxx |xxxxxxxxxxxxx |xxxxxxxxxxxxx |       0.6948 |       0.6948 |       0.6949 |xxxxxxxxxxxxx |xxxxxxxxxxxxx |xxxxxxxxxxxxx |xxxxxxxxxxxxx |       0.7076 |       0.7076 |       0.7076 |xxxxxxxxxxxxx |xxxxxxxxxxxxx |xxxxxxxxxxxxx |xxxxxxxxxxxxx |       0.6965 |       0.6965 |       0.6965 |xxxxxxxxxxxxx |xxxxxxxxxxxxx |xxxxxxxxxxxxx |xxxxxxxxxxxxx |       0.7036 |       0.7036 |       0.7036 |xxxxxxxxxxxxx |xxxxxxxxxxxxx |xxxxxxxxxxxxx |xxxxxxxxxxxxx |       0.7082 |       0.7082 |       0.7082 |xxxxxxxxxxxxx |xxxxxxxxxxxxx |xxxxxxxxxxxxx |xxxxxxxxxxxxx |       0.7079 |       0.7079 |       0.7079 |xxxxxxxxxxxxx |xxxxxxxxxxxxx |xxxxxxxxxxxxx |xxxxxxxxxxxxx |       0.7093 |       0.7093 |       0.7093 |xxxxxxxxxxxxx |xxxxxxxxxxxxx |xxxxxxxxxxxxx |xxxxxxxxxxxxx |       0.7165 |       0.7165 |       0.7165 |xxxxxxxxxxxxx |xxxxxxxxxxxxx |xxxxxxxxxxxxx |xxxxxxxxxxxxx |       0.7110 |       0.7110 |       0.7110 |
bpred_bimod.bpred_dir_rate                  0.7116 |       0.7116 |       0.7116 |xxxxxxxxxxxxx |xxxxxxxxxxxxx |xxxxxxxxxxxxx |xxxxxxxxxxxxx |       0.6921 |       0.6920 |       0.6921 |xxxxxxxxxxxxx |xxxxxxxxxxxxx |xxxxxxxxxxxxx |xxxxxxxxxxxxx |       0.6952 |       0.6952 |       0.6952 |xxxxxxxxxxxxx |xxxxxxxxxxxxx |xxxxxxxxxxxxx |xxxxxxxxxxxxx |       0.7077 |       0.7077 |       0.7077 |xxxxxxxxxxxxx |xxxxxxxxxxxxx |xxxxxxxxxxxxx |xxxxxxxxxxxxx |       0.6966 |       0.6966 |       0.6966 |xxxxxxxxxxxxx |xxxxxxxxxxxxx |xxxxxxxxxxxxx |xxxxxxxxxxxxx |       0.7036 |       0.7036 |       0.7036 |xxxxxxxxxxxxx |xxxxxxxxxxxxx |xxxxxxxxxxxxx |xxxxxxxxxxxxx |       0.7082 |       0.7082 |       0.7082 |xxxxxxxxxxxxx |xxxxxxxxxxxxx |xxxxxxxxxxxxx |xxxxxxxxxxxxx |       0.7079 |       0.7079 |       0.7079 |xxxxxxxxxxxxx |xxxxxxxxxxxxx |xxxxxxxxxxxxx |xxxxxxxxxxxxx |       0.7093 |       0.7093 |       0.7093 |xxxxxxxxxxxxx |xxxxxxxxxxxxx |xxxxxxxxxxxxx |xxxxxxxxxxxxx |       0.7165 |       0.7165 |       0.7165 |xxxxxxxxxxxxx |xxxxxxxxxxxxx |xxxxxxxxxxxxx |xxxxxxxxxxxxx |       0.7110 |       0.7110 |       0.7110 |
bpred_bimod.bpred_jr_rate                   1.0000 |       1.0000 |       1.0000 |xxxxxxxxxxxxx |xxxxxxxxxxxxx |xxxxxxxxxxxxx |xxxxxxxxxxxxx |       1.0000 |       1.0000 |       1.0000 |xxxxxxxxxxxxx |xxxxxxxxxxxxx |xxxxxxxxxxxxx |xxxxxxxxxxxxx |       1.0000 |       1.0000 |       1.0000 |xxxxxxxxxxxxx |xxxxxxxxxxxxx |xxxxxxxxxxxxx |xxxxxxxxxxxxx |       1.0000 |       1.0000 |       1.0000 |xxxxxxxxxxxxx |xxxxxxxxxxxxx |xxxxxxxxxxxxx |xxxxxxxxxxxxx |       1.0000 |       1.0000 |       1.0000 |xxxxxxxxxxxxx |xxxxxxxxxxxxx |xxxxxxxxxxxxx |xxxxxxxxxxxxx |       1.0000 |       1.0000 |       1.0000 |xxxxxxxxxxxxx |xxxxxxxxxxxxx |xxxxxxxxxxxxx |xxxxxxxxxxxxx |       1.0000 |       1.0000 |       1.0000 |xxxxxxxxxxxxx |xxxxxxxxxxxxx |xxxxxxxxxxxxx |xxxxxxxxxxxxx |       1.0000 |       1.0000 |       1.0000 |xxxxxxxxxxxxx |xxxxxxxxxxxxx |xxxxxxxxxxxxx |xxxxxxxxxxxxx |       1.0000 |       1.0000 |       1.0000 |xxxxxxxxxxxxx |xxxxxxxxxxxxx |xxxxxxxxxxxxx |xxxxxxxxxxxxx |       1.0000 |       1.0000 |       1.0000 |xxxxxxxxxxxxx |xxxxxxxxxxxxx |xxxxxxxxxxxxx |xxxxxxxxxxxxx |       1.0000 |       1.0000 |       1.0000 |
bpred_bimod.bpred_jr_non_ras_rate.PP       <error: |      <error: |      <error: |xxxxxxxxxxxxx |xxxxxxxxxxxxx |xxxxxxxxxxxxx |xxxxxxxxxxxxx |      <error: |      <error: |      <error: |xxxxxxxxxxxxx |xxxxxxxxxxxxx |xxxxxxxxxxxxx |xxxxxxxxxxxxx |      <error: |      <error: |      <error: |xxxxxxxxxxxxx |xxxxxxxxxxxxx |xxxxxxxxxxxxx |xxxxxxxxxxxxx |      <error: |      <error: |      <error: |xxxxxxxxxxxxx |xxxxxxxxxxxxx |xxxxxxxxxxxxx |xxxxxxxxxxxxx |      <error: |      <error: |      <error: |xxxxxxxxxxxxx |xxxxxxxxxxxxx |xxxxxxxxxxxxx |xxxxxxxxxxxxx |      <error: |      <error: |      <error: |xxxxxxxxxxxxx |xxxxxxxxxxxxx |xxxxxxxxxxxxx |xxxxxxxxxxxxx |      <error: |      <error: |      <error: |xxxxxxxxxxxxx |xxxxxxxxxxxxx |xxxxxxxxxxxxx |xxxxxxxxxxxxx |      <error: |      <error: |      <error: |xxxxxxxxxxxxx |xxxxxxxxxxxxx |xxxxxxxxxxxxx |xxxxxxxxxxxxx |      <error: |      <error: |      <error: |xxxxxxxxxxxxx |xxxxxxxxxxxxx |xxxxxxxxxxxxx |xxxxxxxxxxxxx |      <error: |      <error: |      <error: |xxxxxxxxxxxxx |xxxxxxxxxxxxx |xxxxxxxxxxxxx |xxxxxxxxxxxxx |      <error: |      <error: |      <error: |
bpred_bimod.retstack_pushes                     66 |           66 |           66 |xxxxxxxxxxxxx |xxxxxxxxxxxxx |xxxxxxxxxxxxx |xxxxxxxxxxxxx |           66 |           66 |           66 |xxxxxxxxxxxxx |xxxxxxxxxxxxx |xxxxxxxxxxxxx |xxxxxxxxxxxxx |           66 |           66 |           66 |xxxxxxxxxxxxx |xxxxxxxxxxxxx |xxxxxxxxxxxxx |xxxxxxxxxxxxx |           66 |           66 |           66 |xxxxxxxxxxxxx |xxxxxxxxxxxxx |xxxxxxxxxxxxx |xxxxxxxxxxxxx |           66 |           66 |           66 |xxxxxxxxxxxxx |xxxxxxxxxxxxx |xxxxxxxxxxxxx |xxxxxxxxxxxxx |           66 |           66 |           66 |xxxxxxxxxxxxx |xxxxxxxxxxxxx |xxxxxxxxxxxxx |xxxxxxxxxxxxx |           66 |           66 |           66 |xxxxxxxxxxxxx |xxxxxxxxxxxxx |xxxxxxxxxxxxx |xxxxxxxxxxxxx |           66 |           66 |           66 |xxxxxxxxxxxxx |xxxxxxxxxxxxx |xxxxxxxxxxxxx |xxxxxxxxxxxxx |           66 |           66 |           66 |xxxxxxxxxxxxx |xxxxxxxxxxxxx |xxxxxxxxxxxxx |xxxxxxxxxxxxx |           66 |           66 |           66 |xxxxxxxxxxxxx |xxxxxxxxxxxxx |xxxxxxxxxxxxx |xxxxxxxxxxxxx |           66 |           66 |           66 |
bpred_bimod.retstack_pops                       64 |           64 |           64 |xxxxxxxxxxxxx |xxxxxxxxxxxxx |xxxxxxxxxxxxx |xxxxxxxxxxxxx |           64 |           64 |           64 |xxxxxxxxxxxxx |xxxxxxxxxxxxx |xxxxxxxxxxxxx |xxxxxxxxxxxxx |           64 |           64 |           64 |xxxxxxxxxxxxx |xxxxxxxxxxxxx |xxxxxxxxxxxxx |xxxxxxxxxxxxx |           64 |           64 |           64 |xxxxxxxxxxxxx |xxxxxxxxxxxxx |xxxxxxxxxxxxx |xxxxxxxxxxxxx |           64 |           64 |           64 |xxxxxxxxxxxxx |xxxxxxxxxxxxx |xxxxxxxxxxxxx |xxxxxxxxxxxxx |           64 |           64 |           64 |xxxxxxxxxxxxx |xxxxxxxxxxxxx |xxxxxxxxxxxxx |xxxxxxxxxxxxx |           64 |           64 |           64 |xxxxxxxxxxxxx |xxxxxxxxxxxxx |xxxxxxxxxxxxx |xxxxxxxxxxxxx |           64 |           64 |           64 |xxxxxxxxxxxxx |xxxxxxxxxxxxx |xxxxxxxxxxxxx |xxxxxxxxxxxxx |           64 |           64 |           64 |xxxxxxxxxxxxx |xxxxxxxxxxxxx |xxxxxxxxxxxxx |xxxxxxxxxxxxx |           64 |           64 |           64 |xxxxxxxxxxxxx |xxxxxxxxxxxxx |xxxxxxxxxxxxx |xxxxxxxxxxxxx |           64 |           64 |           64 |
bpred_bimod.used_ras.PP                         64 |           64 |           64 |xxxxxxxxxxxxx |xxxxxxxxxxxxx |xxxxxxxxxxxxx |xxxxxxxxxxxxx |           64 |           64 |           64 |xxxxxxxxxxxxx |xxxxxxxxxxxxx |xxxxxxxxxxxxx |xxxxxxxxxxxxx |           64 |           64 |           64 |xxxxxxxxxxxxx |xxxxxxxxxxxxx |xxxxxxxxxxxxx |xxxxxxxxxxxxx |           64 |           64 |           64 |xxxxxxxxxxxxx |xxxxxxxxxxxxx |xxxxxxxxxxxxx |xxxxxxxxxxxxx |           64 |           64 |           64 |xxxxxxxxxxxxx |xxxxxxxxxxxxx |xxxxxxxxxxxxx |xxxxxxxxxxxxx |           64 |           64 |           64 |xxxxxxxxxxxxx |xxxxxxxxxxxxx |xxxxxxxxxxxxx |xxxxxxxxxxxxx |           64 |           64 |           64 |xxxxxxxxxxxxx |xxxxxxxxxxxxx |xxxxxxxxxxxxx |xxxxxxxxxxxxx |           64 |           64 |           64 |xxxxxxxxxxxxx |xxxxxxxxxxxxx |xxxxxxxxxxxxx |xxxxxxxxxxxxx |           64 |           64 |           64 |xxxxxxxxxxxxx |xxxxxxxxxxxxx |xxxxxxxxxxxxx |xxxxxxxxxxxxx |           64 |           64 |           64 |xxxxxxxxxxxxx |xxxxxxxxxxxxx |xxxxxxxxxxxxx |xxxxxxxxxxxxx |           64 |           64 |           64 |
bpred_bimod.ras_hits.PP                         64 |           64 |           64 |xxxxxxxxxxxxx |xxxxxxxxxxxxx |xxxxxxxxxxxxx |xxxxxxxxxxxxx |           64 |           64 |           64 |xxxxxxxxxxxxx |xxxxxxxxxxxxx |xxxxxxxxxxxxx |xxxxxxxxxxxxx |           64 |           64 |           64 |xxxxxxxxxxxxx |xxxxxxxxxxxxx |xxxxxxxxxxxxx |xxxxxxxxxxxxx |           64 |           64 |           64 |xxxxxxxxxxxxx |xxxxxxxxxxxxx |xxxxxxxxxxxxx |xxxxxxxxxxxxx |           64 |           64 |           64 |xxxxxxxxxxxxx |xxxxxxxxxxxxx |xxxxxxxxxxxxx |xxxxxxxxxxxxx |           64 |           64 |           64 |xxxxxxxxxxxxx |xxxxxxxxxxxxx |xxxxxxxxxxxxx |xxxxxxxxxxxxx |           64 |           64 |           64 |xxxxxxxxxxxxx |xxxxxxxxxxxxx |xxxxxxxxxxxxx |xxxxxxxxxxxxx |           64 |           64 |           64 |xxxxxxxxxxxxx |xxxxxxxxxxxxx |xxxxxxxxxxxxx |xxxxxxxxxxxxx |           64 |           64 |           64 |xxxxxxxxxxxxx |xxxxxxxxxxxxx |xxxxxxxxxxxxx |xxxxxxxxxxxxx |           64 |           64 |           64 |xxxxxxxxxxxxx |xxxxxxxxxxxxx |xxxxxxxxxxxxx |xxxxxxxxxxxxx |           64 |           64 |           64 |
bpred_bimod.ras_rate.PP                     1.0000 |       1.0000 |       1.0000 |xxxxxxxxxxxxx |xxxxxxxxxxxxx |xxxxxxxxxxxxx |xxxxxxxxxxxxx |       1.0000 |       1.0000 |       1.0000 |xxxxxxxxxxxxx |xxxxxxxxxxxxx |xxxxxxxxxxxxx |xxxxxxxxxxxxx |       1.0000 |       1.0000 |       1.0000 |xxxxxxxxxxxxx |xxxxxxxxxxxxx |xxxxxxxxxxxxx |xxxxxxxxxxxxx |       1.0000 |       1.0000 |       1.0000 |xxxxxxxxxxxxx |xxxxxxxxxxxxx |xxxxxxxxxxxxx |xxxxxxxxxxxxx |       1.0000 |       1.0000 |       1.0000 |xxxxxxxxxxxxx |xxxxxxxxxxxxx |xxxxxxxxxxxxx |xxxxxxxxxxxxx |       1.0000 |       1.0000 |       1.0000 |xxxxxxxxxxxxx |xxxxxxxxxxxxx |xxxxxxxxxxxxx |xxxxxxxxxxxxx |       1.0000 |       1.0000 |       1.0000 |xxxxxxxxxxxxx |xxxxxxxxxxxxx |xxxxxxxxxxxxx |xxxxxxxxxxxxx |       1.0000 |       1.0000 |       1.0000 |xxxxxxxxxxxxx |xxxxxxxxxxxxx |xxxxxxxxxxxxx |xxxxxxxxxxxxx |       1.0000 |       1.0000 |       1.0000 |xxxxxxxxxxxxx |xxxxxxxxxxxxx |xxxxxxxxxxxxx |xxxxxxxxxxxxx |       1.0000 |       1.0000 |       1.0000 |xxxxxxxxxxxxx |xxxxxxxxxxxxx |xxxxxxxxxxxxx |xxxxxxxxxxxxx |       1.0000 |       1.0000 |       1.0000 |
bpred_2lev.lookups                   xxxxxxxxxxxxx |xxxxxxxxxxxxx |xxxxxxxxxxxxx |        77561 |        77561 |        77561 |        77561 |xxxxxxxxxxxxx |xxxxxxxxxxxxx |xxxxxxxxxxxxx |       162740 |       162740 |       162740 |       162740 |xxxxxxxxxxxxx |xxxxxxxxxxxxx |xxxxxxxxxxxxx |       349700 |       349700 |       349700 |       349700 |xxxxxxxxxxxxx |xxxxxxxxxxxxx |xxxxxxxxxxxxx |       765522 |       765522 |       765522 |       765522 |xxxxxxxxxxxxx |xxxxxxxxxxxxx |xxxxxxxxxxxxx |      1605107 |      1605107 |      1605107 |      1605107 |xxxxxxxxxxxxx |xxxxxxxxxxxxx |xxxxxxxxxxxxx |      3446876 |      3446876 |      3446876 |      3446876 |xxxxxxxxxxxxx |xxxxxxxxxxxxx |xxxxxxxxxxxxx |      7345195 |      7345195 |      7345195 |      7345195 |xxxxxxxxxxxxx |xxxxxxxxxxxxx |xxxxxxxxxxxxx |     15500184 |     15500184 |     15500184 |     15500184 |xxxxxxxxxxxxx |xxxxxxxxxxxxx |xxxxxxxxxxxxx |     32721833 |     32721833 |     32721833 |     32721833 |xxxxxxxxxxxxx |xxxxxxxxxxxxx |xxxxxxxxxxxxx |     69202406 |     69202406 |     69202406 |     69202406 |xxxxxxxxxxxxx |xxxxxxxxxxxxx |xxxxxxxxxxxxx |    143904772 |    143904772 |    143904772 |    143904772 |
[...]
bpred_2lev.retstack_pushes           xxxxxxxxxxxxx |xxxxxxxxxxxxx |xxxxxxxxxxxxx |           66 |           66 |           66 |           66 |xxxxxxxxxxxxx |xxxxxxxxxxxxx |xxxxxxxxxxxxx |           66 |           66 |           66 |           66 |xxxxxxxxxxxxx |xxxxxxxxxxxxx |xxxxxxxxxxxxx |           66 |           66 |           66 |           66 |xxxxxxxxxxxxx |xxxxxxxxxxxxx |xxxxxxxxxxxxx |           66 |           66 |           66 |           66 |xxxxxxxxxxxxx |xxxxxxxxxxxxx |xxxxxxxxxxxxx |           66 |           66 |           66 |           66 |xxxxxxxxxxxxx |xxxxxxxxxxxxx |xxxxxxxxxxxxx |           66 |           66 |           66 |           66 |xxxxxxxxxxxxx |xxxxxxxxxxxxx |xxxxxxxxxxxxx |           66 |           66 |           66 |           66 |xxxxxxxxxxxxx |xxxxxxxxxxxxx |xxxxxxxxxxxxx |           66 |           66 |           66 |           66 |xxxxxxxxxxxxx |xxxxxxxxxxxxx |xxxxxxxxxxxxx |           66 |           66 |           66 |           66 |xxxxxxxxxxxxx |xxxxxxxxxxxxx |xxxxxxxxxxxxx |           66 |           66 |           66 |           66 |xxxxxxxxxxxxx |xxxxxxxxxxxxx |xxxxxxxxxxxxx |           66 |           66 |           66 |           66 |
bpred_2lev.retstack_pops             xxxxxxxxxxxxx |xxxxxxxxxxxxx |xxxxxxxxxxxxx |           64 |           64 |           64 |           64 |xxxxxxxxxxxxx |xxxxxxxxxxxxx |xxxxxxxxxxxxx |           64 |           64 |           64 |           64 |xxxxxxxxxxxxx |xxxxxxxxxxxxx |xxxxxxxxxxxxx |           64 |           64 |           64 |           64 |xxxxxxxxxxxxx |xxxxxxxxxxxxx |xxxxxxxxxxxxx |           64 |           64 |           64 |           64 |xxxxxxxxxxxxx |xxxxxxxxxxxxx |xxxxxxxxxxxxx |           64 |           64 |           64 |           64 |xxxxxxxxxxxxx |xxxxxxxxxxxxx |xxxxxxxxxxxxx |           64 |           64 |           64 |           64 |xxxxxxxxxxxxx |xxxxxxxxxxxxx |xxxxxxxxxxxxx |           64 |           64 |           64 |           64 |xxxxxxxxxxxxx |xxxxxxxxxxxxx |xxxxxxxxxxxxx |           64 |           64 |           64 |           64 |xxxxxxxxxxxxx |xxxxxxxxxxxxx |xxxxxxxxxxxxx |           64 |           64 |           64 |           64 |xxxxxxxxxxxxx |xxxxxxxxxxxxx |xxxxxxxxxxxxx |           64 |           64 |           64 |           64 |xxxxxxxxxxxxx |xxxxxxxxxxxxx |xxxxxxxxxxxxx |           64 |           64 |           64 |           64 |
bpred_2lev.used_ras.PP               xxxxxxxxxxxxx |xxxxxxxxxxxxx |xxxxxxxxxxxxx |           64 |           64 |           64 |           64 |xxxxxxxxxxxxx |xxxxxxxxxxxxx |xxxxxxxxxxxxx |           64 |           64 |           64 |           64 |xxxxxxxxxxxxx |xxxxxxxxxxxxx |xxxxxxxxxxxxx |           64 |           64 |           64 |           64 |xxxxxxxxxxxxx |xxxxxxxxxxxxx |xxxxxxxxxxxxx |           64 |           64 |           64 |           64 |xxxxxxxxxxxxx |xxxxxxxxxxxxx |xxxxxxxxxxxxx |           64 |           64 |           64 |           64 |xxxxxxxxxxxxx |xxxxxxxxxxxxx |xxxxxxxxxxxxx |           64 |           64 |           64 |           64 |xxxxxxxxxxxxx |xxxxxxxxxxxxx |xxxxxxxxxxxxx |           64 |           64 |           64 |           64 |xxxxxxxxxxxxx |xxxxxxxxxxxxx |xxxxxxxxxxxxx |           64 |           64 |           64 |           64 |xxxxxxxxxxxxx |xxxxxxxxxxxxx |xxxxxxxxxxxxx |           64 |           64 |           64 |           64 |xxxxxxxxxxxxx |xxxxxxxxxxxxx |xxxxxxxxxxxxx |           64 |           64 |           64 |           64 |xxxxxxxxxxxxx |xxxxxxxxxxxxx |xxxxxxxxxxxxx |           64 |           64 |           64 |           64 |
bpred_2lev.ras_hits.PP               xxxxxxxxxxxxx |xxxxxxxxxxxxx |xxxxxxxxxxxxx |           64 |           64 |           64 |           64 |xxxxxxxxxxxxx |xxxxxxxxxxxxx |xxxxxxxxxxxxx |           64 |           64 |           64 |           64 |xxxxxxxxxxxxx |xxxxxxxxxxxxx |xxxxxxxxxxxxx |           64 |           64 |           64 |           64 |xxxxxxxxxxxxx |xxxxxxxxxxxxx |xxxxxxxxxxxxx |           64 |           64 |           64 |           64 |xxxxxxxxxxxxx |xxxxxxxxxxxxx |xxxxxxxxxxxxx |           64 |           64 |           64 |           64 |xxxxxxxxxxxxx |xxxxxxxxxxxxx |xxxxxxxxxxxxx |           64 |           64 |           64 |           64 |xxxxxxxxxxxxx |xxxxxxxxxxxxx |xxxxxxxxxxxxx |           64 |           64 |           64 |           64 |xxxxxxxxxxxxx |xxxxxxxxxxxxx |xxxxxxxxxxxxx |           64 |           64 |           64 |           64 |xxxxxxxxxxxxx |xxxxxxxxxxxxx |xxxxxxxxxxxxx |           64 |           64 |           64 |           64 |xxxxxxxxxxxxx |xxxxxxxxxxxxx |xxxxxxxxxxxxx |           64 |           64 |           64 |           64 |xxxxxxxxxxxxx |xxxxxxxxxxxxx |xxxxxxxxxxxxx |           64 |           64 |           64 |           64 |
bpred_2lev.ras_rate.PP               xxxxxxxxxxxxx |xxxxxxxxxxxxx |xxxxxxxxxxxxx |       1.0000 |       1.0000 |       1.0000 |       1.0000 |xxxxxxxxxxxxx |xxxxxxxxxxxxx |xxxxxxxxxxxxx |       1.0000 |       1.0000 |       1.0000 |       1.0000 |xxxxxxxxxxxxx |xxxxxxxxxxxxx |xxxxxxxxxxxxx |       1.0000 |       1.0000 |       1.0000 |       1.0000 |xxxxxxxxxxxxx |xxxxxxxxxxxxx |xxxxxxxxxxxxx |       1.0000 |       1.0000 |       1.0000 |       1.0000 |xxxxxxxxxxxxx |xxxxxxxxxxxxx |xxxxxxxxxxxxx |       1.0000 |       1.0000 |       1.0000 |       1.0000 |xxxxxxxxxxxxx |xxxxxxxxxxxxx |xxxxxxxxxxxxx |       1.0000 |       1.0000 |       1.0000 |       1.0000 |xxxxxxxxxxxxx |xxxxxxxxxxxxx |xxxxxxxxxxxxx |       1.0000 |       1.0000 |       1.0000 |       1.0000 |xxxxxxxxxxxxx |xxxxxxxxxxxxx |xxxxxxxxxxxxx |       1.0000 |       1.0000 |       1.0000 |       1.0000 |xxxxxxxxxxxxx |xxxxxxxxxxxxx |xxxxxxxxxxxxx |       1.0000 |       1.0000 |       1.0000 |       1.0000 |xxxxxxxxxxxxx |xxxxxxxxxxxxx |xxxxxxxxxxxxx |       1.0000 |       1.0000 |       1.0000 |       1.0000 |xxxxxxxxxxxxx |xxxxxxxxxxxxx |xxxxxxxxxxxxx |       1.0000 |       1.0000 |       1.0000 |       1.0000 |

Command list: 
	sslittle-na-sstrix-gcc -Wall -O3 -funroll-loops -finline-functions  -DRANDOM_SIZE=4096 -DOFFSET=0 -DSORT=base_quicksort7 sorts/base_quicksort7112716336.c simpleMain.c -o base_quicksort72050208657
	sim-cache -cache:dl1 dl1:256:32:1:l -cache:dl2 dl2:131072:32:1:l -cache:il1 il1:256:32:1:l -cache:il2 dl2 base_quicksort72050208657
	sim-cache -cache:dl1 dl1:256:32:1:l -cache:dl2 dl2:65536:32:1:l -cache:il1 il1:256:32:1:l -cache:il2 dl2 base_quicksort72050208657
	sim-cache -cache:dl1 dl1:1:32:256:l -cache:dl2 dl2:1:32:131072:l -cache:il1 il1:1:32:256:l -cache:il2 dl2 base_quicksort72050208657
	sim-cache -cache:dl1 dl1:1:32:256:l -cache:dl2 dl2:1:32:65536:l -cache:il1 il1:1:32:256:l -cache:il2 dl2 base_quicksort72050208657
	sim-bpred -bpred bimod -bpred:bimod 512 base_quicksort72050208657
	sim-bpred -bpred bimod -bpred:bimod 1024 base_quicksort72050208657
	sim-bpred -bpred bimod -bpred:bimod 2048 base_quicksort72050208657
	sim-bpred -bpred 2lev -bpred:2lev 1 512 10 1 base_quicksort72050208657
	sim-bpred -bpred 2lev -bpred:2lev 1 1024 10 1 base_quicksort72050208657
	sim-bpred -bpred 2lev -bpred:2lev 1 2048 10 1 base_quicksort72050208657
	sim-bpred -bpred 2lev -bpred:2lev 1 4096 10 1 base_quicksort72050208657
	sslittle-na-sstrix-gcc -Wall -O3 -funroll-loops -finline-functions  -DRANDOM_SIZE=8192 -DOFFSET=0 -DSORT=base_quicksort7 sorts/base_quicksort7112716336.c simpleMain.c -o base_quicksort72050208657
	sim-cache -cache:dl1 dl1:256:32:1:l -cache:dl2 dl2:131072:32:1:l -cache:il1 il1:256:32:1:l -cache:il2 dl2 base_quicksort72050208657
	sim-cache -cache:dl1 dl1:256:32:1:l -cache:dl2 dl2:65536:32:1:l -cache:il1 il1:256:32:1:l -cache:il2 dl2 base_quicksort72050208657
	sim-cache -cache:dl1 dl1:1:32:256:l -cache:dl2 dl2:1:32:131072:l -cache:il1 il1:1:32:256:l -cache:il2 dl2 base_quicksort72050208657
	sim-cache -cache:dl1 dl1:1:32:256:l -cache:dl2 dl2:1:32:65536:l -cache:il1 il1:1:32:256:l -cache:il2 dl2 base_quicksort72050208657
	sim-bpred -bpred bimod -bpred:bimod 512 base_quicksort72050208657
	sim-bpred -bpred bimod -bpred:bimod 1024 base_quicksort72050208657
	sim-bpred -bpred bimod -bpred:bimod 2048 base_quicksort72050208657
	sim-bpred -bpred 2lev -bpred:2lev 1 512 10 1 base_quicksort72050208657
	sim-bpred -bpred 2lev -bpred:2lev 1 1024 10 1 base_quicksort72050208657
	sim-bpred -bpred 2lev -bpred:2lev 1 2048 10 1 base_quicksort72050208657
	sim-bpred -bpred 2lev -bpred:2lev 1 4096 10 1 base_quicksort72050208657
	sslittle-na-sstrix-gcc -Wall -O3 -funroll-loops -finline-functions  -DRANDOM_SIZE=16384 -DOFFSET=0 -DSORT=base_quicksort7 sorts/base_quicksort7112716336.c simpleMain.c -o base_quicksort72050208657
	sim-cache -cache:dl1 dl1:256:32:1:l -cache:dl2 dl2:131072:32:1:l -cache:il1 il1:256:32:1:l -cache:il2 dl2 base_quicksort72050208657
	sim-cache -cache:dl1 dl1:256:32:1:l -cache:dl2 dl2:65536:32:1:l -cache:il1 il1:256:32:1:l -cache:il2 dl2 base_quicksort72050208657
	sim-cache -cache:dl1 dl1:1:32:256:l -cache:dl2 dl2:1:32:131072:l -cache:il1 il1:1:32:256:l -cache:il2 dl2 base_quicksort72050208657
	sim-cache -cache:dl1 dl1:1:32:256:l -cache:dl2 dl2:1:32:65536:l -cache:il1 il1:1:32:256:l -cache:il2 dl2 base_quicksort72050208657
	sim-bpred -bpred bimod -bpred:bimod 512 base_quicksort72050208657
	sim-bpred -bpred bimod -bpred:bimod 1024 base_quicksort72050208657
	sim-bpred -bpred bimod -bpred:bimod 2048 base_quicksort72050208657
	sim-bpred -bpred 2lev -bpred:2lev 1 512 10 1 base_quicksort72050208657
	sim-bpred -bpred 2lev -bpred:2lev 1 1024 10 1 base_quicksort72050208657
	sim-bpred -bpred 2lev -bpred:2lev 1 2048 10 1 base_quicksort72050208657
	sim-bpred -bpred 2lev -bpred:2lev 1 4096 10 1 base_quicksort72050208657
	sslittle-na-sstrix-gcc -Wall -O3 -funroll-loops -finline-functions  -DRANDOM_SIZE=32768 -DOFFSET=0 -DSORT=base_quicksort7 sorts/base_quicksort7112716336.c simpleMain.c -o base_quicksort72050208657
	sim-cache -cache:dl1 dl1:256:32:1:l -cache:dl2 dl2:131072:32:1:l -cache:il1 il1:256:32:1:l -cache:il2 dl2 base_quicksort72050208657
	sim-cache -cache:dl1 dl1:256:32:1:l -cache:dl2 dl2:65536:32:1:l -cache:il1 il1:256:32:1:l -cache:il2 dl2 base_quicksort72050208657
	sim-cache -cache:dl1 dl1:1:32:256:l -cache:dl2 dl2:1:32:131072:l -cache:il1 il1:1:32:256:l -cache:il2 dl2 base_quicksort72050208657
	sim-cache -cache:dl1 dl1:1:32:256:l -cache:dl2 dl2:1:32:65536:l -cache:il1 il1:1:32:256:l -cache:il2 dl2 base_quicksort72050208657
	sim-bpred -bpred bimod -bpred:bimod 512 base_quicksort72050208657
	sim-bpred -bpred bimod -bpred:bimod 1024 base_quicksort72050208657
	sim-bpred -bpred bimod -bpred:bimod 2048 base_quicksort72050208657
	sim-bpred -bpred 2lev -bpred:2lev 1 512 10 1 base_quicksort72050208657
	sim-bpred -bpred 2lev -bpred:2lev 1 1024 10 1 base_quicksort72050208657
	sim-bpred -bpred 2lev -bpred:2lev 1 2048 10 1 base_quicksort72050208657
	sim-bpred -bpred 2lev -bpred:2lev 1 4096 10 1 base_quicksort72050208657
	sslittle-na-sstrix-gcc -Wall -O3 -funroll-loops -finline-functions  -DRANDOM_SIZE=65536 -DOFFSET=0 -DSORT=base_quicksort7 sorts/base_quicksort7112716336.c simpleMain.c -o base_quicksort72050208657
	sim-cache -cache:dl1 dl1:256:32:1:l -cache:dl2 dl2:131072:32:1:l -cache:il1 il1:256:32:1:l -cache:il2 dl2 base_quicksort72050208657
	sim-cache -cache:dl1 dl1:256:32:1:l -cache:dl2 dl2:65536:32:1:l -cache:il1 il1:256:32:1:l -cache:il2 dl2 base_quicksort72050208657
	sim-cache -cache:dl1 dl1:1:32:256:l -cache:dl2 dl2:1:32:131072:l -cache:il1 il1:1:32:256:l -cache:il2 dl2 base_quicksort72050208657
	sim-cache -cache:dl1 dl1:1:32:256:l -cache:dl2 dl2:1:32:65536:l -cache:il1 il1:1:32:256:l -cache:il2 dl2 base_quicksort72050208657
	sim-bpred -bpred bimod -bpred:bimod 512 base_quicksort72050208657
	sim-bpred -bpred bimod -bpred:bimod 1024 base_quicksort72050208657
	sim-bpred -bpred bimod -bpred:bimod 2048 base_quicksort72050208657
	sim-bpred -bpred 2lev -bpred:2lev 1 512 10 1 base_quicksort72050208657
	sim-bpred -bpred 2lev -bpred:2lev 1 1024 10 1 base_quicksort72050208657
	sim-bpred -bpred 2lev -bpred:2lev 1 2048 10 1 base_quicksort72050208657
	sim-bpred -bpred 2lev -bpred:2lev 1 4096 10 1 base_quicksort72050208657
	sslittle-na-sstrix-gcc -Wall -O3 -funroll-loops -finline-functions  -DRANDOM_SIZE=131072 -DOFFSET=0 -DSORT=base_quicksort7 sorts/base_quicksort7112716336.c simpleMain.c -o base_quicksort72050208657
	sim-cache -cache:dl1 dl1:256:32:1:l -cache:dl2 dl2:131072:32:1:l -cache:il1 il1:256:32:1:l -cache:il2 dl2 base_quicksort72050208657
	sim-cache -cache:dl1 dl1:256:32:1:l -cache:dl2 dl2:65536:32:1:l -cache:il1 il1:256:32:1:l -cache:il2 dl2 base_quicksort72050208657
	sim-cache -cache:dl1 dl1:1:32:256:l -cache:dl2 dl2:1:32:131072:l -cache:il1 il1:1:32:256:l -cache:il2 dl2 base_quicksort72050208657
	sim-cache -cache:dl1 dl1:1:32:256:l -cache:dl2 dl2:1:32:65536:l -cache:il1 il1:1:32:256:l -cache:il2 dl2 base_quicksort72050208657
	sim-bpred -bpred bimod -bpred:bimod 512 base_quicksort72050208657
	sim-bpred -bpred bimod -bpred:bimod 1024 base_quicksort72050208657
	sim-bpred -bpred bimod -bpred:bimod 2048 base_quicksort72050208657
	sim-bpred -bpred 2lev -bpred:2lev 1 512 10 1 base_quicksort72050208657
	sim-bpred -bpred 2lev -bpred:2lev 1 1024 10 1 base_quicksort72050208657
	sim-bpred -bpred 2lev -bpred:2lev 1 2048 10 1 base_quicksort72050208657
	sim-bpred -bpred 2lev -bpred:2lev 1 4096 10 1 base_quicksort72050208657
	sslittle-na-sstrix-gcc -Wall -O3 -funroll-loops -finline-functions  -DRANDOM_SIZE=262144 -DOFFSET=0 -DSORT=base_quicksort7 sorts/base_quicksort7112716336.c simpleMain.c -o base_quicksort72050208657
	sim-cache -cache:dl1 dl1:256:32:1:l -cache:dl2 dl2:131072:32:1:l -cache:il1 il1:256:32:1:l -cache:il2 dl2 base_quicksort72050208657
	sim-cache -cache:dl1 dl1:256:32:1:l -cache:dl2 dl2:65536:32:1:l -cache:il1 il1:256:32:1:l -cache:il2 dl2 base_quicksort72050208657
	sim-cache -cache:dl1 dl1:1:32:256:l -cache:dl2 dl2:1:32:131072:l -cache:il1 il1:1:32:256:l -cache:il2 dl2 base_quicksort72050208657
	sim-cache -cache:dl1 dl1:1:32:256:l -cache:dl2 dl2:1:32:65536:l -cache:il1 il1:1:32:256:l -cache:il2 dl2 base_quicksort72050208657
	sim-bpred -bpred bimod -bpred:bimod 512 base_quicksort72050208657
	sim-bpred -bpred bimod -bpred:bimod 1024 base_quicksort72050208657
	sim-bpred -bpred bimod -bpred:bimod 2048 base_quicksort72050208657
	sim-bpred -bpred 2lev -bpred:2lev 1 512 10 1 base_quicksort72050208657
	sim-bpred -bpred 2lev -bpred:2lev 1 1024 10 1 base_quicksort72050208657
	sim-bpred -bpred 2lev -bpred:2lev 1 2048 10 1 base_quicksort72050208657
	sim-bpred -bpred 2lev -bpred:2lev 1 4096 10 1 base_quicksort72050208657
	sslittle-na-sstrix-gcc -Wall -O3 -funroll-loops -finline-functions  -DRANDOM_SIZE=524288 -DOFFSET=0 -DSORT=base_quicksort7 sorts/base_quicksort7112716336.c simpleMain.c -o base_quicksort72050208657
	sim-cache -cache:dl1 dl1:256:32:1:l -cache:dl2 dl2:131072:32:1:l -cache:il1 il1:256:32:1:l -cache:il2 dl2 base_quicksort72050208657
	sim-cache -cache:dl1 dl1:256:32:1:l -cache:dl2 dl2:65536:32:1:l -cache:il1 il1:256:32:1:l -cache:il2 dl2 base_quicksort72050208657
	sim-cache -cache:dl1 dl1:1:32:256:l -cache:dl2 dl2:1:32:131072:l -cache:il1 il1:1:32:256:l -cache:il2 dl2 base_quicksort72050208657
	sim-cache -cache:dl1 dl1:1:32:256:l -cache:dl2 dl2:1:32:65536:l -cache:il1 il1:1:32:256:l -cache:il2 dl2 base_quicksort72050208657
	sim-bpred -bpred bimod -bpred:bimod 512 base_quicksort72050208657
	sim-bpred -bpred bimod -bpred:bimod 1024 base_quicksort72050208657
	sim-bpred -bpred bimod -bpred:bimod 2048 base_quicksort72050208657
	sim-bpred -bpred 2lev -bpred:2lev 1 512 10 1 base_quicksort72050208657
	sim-bpred -bpred 2lev -bpred:2lev 1 1024 10 1 base_quicksort72050208657
	sim-bpred -bpred 2lev -bpred:2lev 1 2048 10 1 base_quicksort72050208657
	sim-bpred -bpred 2lev -bpred:2lev 1 4096 10 1 base_quicksort72050208657
	sslittle-na-sstrix-gcc -Wall -O3 -funroll-loops -finline-functions  -DRANDOM_SIZE=1048576 -DOFFSET=0 -DSORT=base_quicksort7 sorts/base_quicksort7112716336.c simpleMain.c -o base_quicksort72050208657
	sim-cache -cache:dl1 dl1:256:32:1:l -cache:dl2 dl2:131072:32:1:l -cache:il1 il1:256:32:1:l -cache:il2 dl2 base_quicksort72050208657
	sim-cache -cache:dl1 dl1:256:32:1:l -cache:dl2 dl2:65536:32:1:l -cache:il1 il1:256:32:1:l -cache:il2 dl2 base_quicksort72050208657
	sim-cache -cache:dl1 dl1:1:32:256:l -cache:dl2 dl2:1:32:131072:l -cache:il1 il1:1:32:256:l -cache:il2 dl2 base_quicksort72050208657
	sim-cache -cache:dl1 dl1:1:32:256:l -cache:dl2 dl2:1:32:65536:l -cache:il1 il1:1:32:256:l -cache:il2 dl2 base_quicksort72050208657
	sim-bpred -bpred bimod -bpred:bimod 512 base_quicksort72050208657
	sim-bpred -bpred bimod -bpred:bimod 1024 base_quicksort72050208657
	sim-bpred -bpred bimod -bpred:bimod 2048 base_quicksort72050208657
	sim-bpred -bpred 2lev -bpred:2lev 1 512 10 1 base_quicksort72050208657
	sim-bpred -bpred 2lev -bpred:2lev 1 1024 10 1 base_quicksort72050208657
	sim-bpred -bpred 2lev -bpred:2lev 1 2048 10 1 base_quicksort72050208657
	sim-bpred -bpred 2lev -bpred:2lev 1 4096 10 1 base_quicksort72050208657
	sslittle-na-sstrix-gcc -Wall -O3 -funroll-loops -finline-functions  -DRANDOM_SIZE=2097152 -DOFFSET=0 -DSORT=base_quicksort7 sorts/base_quicksort7112716336.c simpleMain.c -o base_quicksort72050208657
	sim-cache -cache:dl1 dl1:256:32:1:l -cache:dl2 dl2:131072:32:1:l -cache:il1 il1:256:32:1:l -cache:il2 dl2 base_quicksort72050208657
	sim-cache -cache:dl1 dl1:256:32:1:l -cache:dl2 dl2:65536:32:1:l -cache:il1 il1:256:32:1:l -cache:il2 dl2 base_quicksort72050208657
	sim-cache -cache:dl1 dl1:1:32:256:l -cache:dl2 dl2:1:32:131072:l -cache:il1 il1:1:32:256:l -cache:il2 dl2 base_quicksort72050208657
	sim-cache -cache:dl1 dl1:1:32:256:l -cache:dl2 dl2:1:32:65536:l -cache:il1 il1:1:32:256:l -cache:il2 dl2 base_quicksort72050208657
	sim-bpred -bpred bimod -bpred:bimod 512 base_quicksort72050208657
	sim-bpred -bpred bimod -bpred:bimod 1024 base_quicksort72050208657
	sim-bpred -bpred bimod -bpred:bimod 2048 base_quicksort72050208657
	sim-bpred -bpred 2lev -bpred:2lev 1 512 10 1 base_quicksort72050208657
	sim-bpred -bpred 2lev -bpred:2lev 1 1024 10 1 base_quicksort72050208657
	sim-bpred -bpred 2lev -bpred:2lev 1 2048 10 1 base_quicksort72050208657
	sim-bpred -bpred 2lev -bpred:2lev 1 4096 10 1 base_quicksort72050208657
	sslittle-na-sstrix-gcc -Wall -O3 -funroll-loops -finline-functions  -DRANDOM_SIZE=4194304 -DOFFSET=0 -DSORT=base_quicksort7 sorts/base_quicksort7112716336.c simpleMain.c -o base_quicksort72050208657
	sim-cache -cache:dl1 dl1:256:32:1:l -cache:dl2 dl2:131072:32:1:l -cache:il1 il1:256:32:1:l -cache:il2 dl2 base_quicksort72050208657
	sim-cache -cache:dl1 dl1:256:32:1:l -cache:dl2 dl2:65536:32:1:l -cache:il1 il1:256:32:1:l -cache:il2 dl2 base_quicksort72050208657
	sim-cache -cache:dl1 dl1:1:32:256:l -cache:dl2 dl2:1:32:131072:l -cache:il1 il1:1:32:256:l -cache:il2 dl2 base_quicksort72050208657
	sim-cache -cache:dl1 dl1:1:32:256:l -cache:dl2 dl2:1:32:65536:l -cache:il1 il1:1:32:256:l -cache:il2 dl2 base_quicksort72050208657
	sim-bpred -bpred bimod -bpred:bimod 512 base_quicksort72050208657
	sim-bpred -bpred bimod -bpred:bimod 1024 base_quicksort72050208657
	sim-bpred -bpred bimod -bpred:bimod 2048 base_quicksort72050208657
	sim-bpred -bpred 2lev -bpred:2lev 1 512 10 1 base_quicksort72050208657
	sim-bpred -bpred 2lev -bpred:2lev 1 1024 10 1 base_quicksort72050208657
	sim-bpred -bpred 2lev -bpred:2lev 1 2048 10 1 base_quicksort72050208657
	sim-bpred -bpred 2lev -bpred:2lev 1 4096 10 1 base_quicksort72050208657
