Mon Jul 11 21:28:24 2005
Run as: "./do_simple -c random.org5 -o 5 base_mergesort"
-------------------------------------------------------------------------------------------------
sim-cache                                     4096 |         4096 |         4096 |         4096 |         8192 |         8192 |         8192 |         8192 |        16384 |        16384 |        16384 |        16384 |        32768 |        32768 |        32768 |        32768 |        65536 |        65536 |        65536 |        65536 |       131072 |       131072 |       131072 |       131072 |       262144 |       262144 |       262144 |       262144 |       524288 |       524288 |       524288 |       524288 |      1048576 |      1048576 |      1048576 |      1048576 |      2097152 |      2097152 |      2097152 |      2097152 |      4194304 |      4194304 |      4194304 |      4194304 |
-cache:dl1 dl1:256:32:1:l -cache:dl2 dl2:131072:32:1:l -cache:il1 il1:256:32:1:l -cache:il2 dl2
-cache:dl1 dl1:256:32:1:l -cache:dl2 dl2:65536:32:1:l -cache:il1 il1:256:32:1:l -cache:il2 dl2
-cache:dl1 dl1:1:32:256:l -cache:dl2 dl2:1:32:131072:l -cache:il1 il1:1:32:256:l -cache:il2 dl2
-cache:dl1 dl1:1:32:256:l -cache:dl2 dl2:1:32:65536:l -cache:il1 il1:1:32:256:l -cache:il2 dl2
-------------------------------------------------------------------------------------------------
sim_num_insn                                749231 |       749231 |       749231 |       749231 |      1647644 |      1647644 |      1647644 |      1647644 |      3525402 |      3525402 |      3525402 |      3525402 |      7673849 |      7673849 |      7673849 |      7673849 |     16260157 |     16260157 |     16260157 |     16260157 |     34997120 |     34997120 |     34997120 |     34997120 |     73655136 |     73655136 |     73655136 |     73655136 |    157268369 |    157268369 |    157268369 |    157268369 |    329211183 |    329211183 |    329211183 |    329211183 |    698293162 |    698293162 |    698293162 |    698293162 |   1455365017 |   1455365017 |   1455365017 |   1455365017 |
sim_num_refs                                205226 |       205226 |       205226 |       205226 |       459867 |       459867 |       459867 |       459867 |       958350 |       958350 |       958350 |       958350 |      2127495 |      2127495 |      2127495 |      2127495 |      4415206 |      4415206 |      4415206 |      4415206 |      9677031 |      9677031 |      9677031 |      9677031 |     20005308 |     20005308 |     20005308 |     20005308 |     43414813 |     43414813 |     43414813 |     43414813 |     89452956 |     89452956 |     89452956 |     89452956 |    192533595 |    192533595 |    192533595 |    192533595 |    395553012 |    395553012 |    395553012 |    395553012 |
sim_elapsed_time                                 1 |            1 |           10 |            5 |            1 |            1 |           16 |            8 |            1 |            1 |           26 |           14 |            2 |            2 |           48 |           24 |            5 |            4 |           90 |           44 |           10 |            9 |          166 |           76 |           20 |           20 |          285 |          108 |           44 |           43 |          395 |          136 |           90 |           90 |          448 |          191 |          192 |          191 |          585 |          311 |          401 |          397 |          816 |          551 |
sim_inst_rate                          749231.0000 |  749231.0000 |   74923.1000 |  149846.2000 | 1647644.0000 | 1647644.0000 |  102977.7500 |  205955.5000 | 3525402.0000 | 3525402.0000 |  135592.3846 |  251814.4286 | 3836924.5000 | 3836924.5000 |  159871.8542 |  319743.7083 | 3252031.4000 | 4065039.2500 |  180668.4111 |  369549.0227 | 3499712.0000 | 3888568.8889 |  210826.0241 |  460488.4211 | 3682756.8000 | 3682756.8000 |  258439.0737 |  681992.0000 | 3574281.1136 | 3657403.9302 |  398147.7696 | 1156385.0662 | 3657902.0333 | 3657902.0333 |  734846.3906 | 1723618.7592 | 3636943.5521 | 3655985.1414 | 1193663.5248 | 2245315.6334 | 3629339.1945 | 3665906.8438 | 1783535.5600 | 2641315.8203 |
il1.accesses                                749231 |       749231 |       749231 |       749231 |      1647644 |      1647644 |      1647644 |      1647644 |      3525402 |      3525402 |      3525402 |      3525402 |      7673849 |      7673849 |      7673849 |      7673849 |     16260157 |     16260157 |     16260157 |     16260157 |     34997120 |     34997120 |     34997120 |     34997120 |     73655136 |     73655136 |     73655136 |     73655136 |    157268369 |    157268369 |    157268369 |    157268369 |    329211183 |    329211183 |    329211183 |    329211183 |    698293162 |    698293162 |    698293162 |    698293162 |   1455365017 |   1455365017 |   1455365017 |   1455365017 |
il1.hits                                    748757 |       748757 |       748810 |       748810 |      1647119 |      1647119 |      1647182 |      1647182 |      3524888 |      3524888 |      3524968 |      3524968 |      7673324 |      7673324 |      7673386 |      7673386 |     16259650 |     16259650 |     16259715 |     16259715 |     34996594 |     34996594 |     34996657 |     34996657 |     73654630 |     73654630 |     73654696 |     73654696 |    157267843 |    157267843 |    157267906 |    157267906 |    329210642 |    329210642 |    329210710 |    329210710 |    698292611 |    698292611 |    698292687 |    698292687 |   1455364476 |   1455364476 |   1455364544 |   1455364544 |
il1.misses                                     474 |          474 |          421 |          421 |          525 |          525 |          462 |          462 |          514 |          514 |          434 |          434 |          525 |          525 |          463 |          463 |          507 |          507 |          442 |          442 |          526 |          526 |          463 |          463 |          506 |          506 |          440 |          440 |          526 |          526 |          463 |          463 |          541 |          541 |          473 |          473 |          551 |          551 |          475 |          475 |          541 |          541 |          473 |          473 |
il1.replacements                               270 |          270 |          165 |          165 |          308 |          308 |          206 |          206 |          314 |          314 |          178 |          178 |          309 |          309 |          207 |          207 |          305 |          305 |          186 |          186 |          310 |          310 |          207 |          207 |          304 |          304 |          184 |          184 |          310 |          310 |          207 |          207 |          312 |          312 |          217 |          217 |          322 |          322 |          219 |          219 |          312 |          312 |          217 |          217 |
il1.writebacks                                   0 |            0 |            0 |            0 |            0 |            0 |            0 |            0 |            0 |            0 |            0 |            0 |            0 |            0 |            0 |            0 |            0 |            0 |            0 |            0 |            0 |            0 |            0 |            0 |            0 |            0 |            0 |            0 |            0 |            0 |            0 |            0 |            0 |            0 |            0 |            0 |            0 |            0 |            0 |            0 |            0 |            0 |            0 |            0 |
il1.invalidations                                0 |            0 |            0 |            0 |            0 |            0 |            0 |            0 |            0 |            0 |            0 |            0 |            0 |            0 |            0 |            0 |            0 |            0 |            0 |            0 |            0 |            0 |            0 |            0 |            0 |            0 |            0 |            0 |            0 |            0 |            0 |            0 |            0 |            0 |            0 |            0 |            0 |            0 |            0 |            0 |            0 |            0 |            0 |            0 |
il1.miss_rate                               0.0006 |       0.0006 |       0.0006 |       0.0006 |       0.0003 |       0.0003 |       0.0003 |       0.0003 |       0.0001 |       0.0001 |       0.0001 |       0.0001 |       0.0001 |       0.0001 |       0.0001 |       0.0001 |       0.0000 |       0.0000 |       0.0000 |       0.0000 |       0.0000 |       0.0000 |       0.0000 |       0.0000 |       0.0000 |       0.0000 |       0.0000 |       0.0000 |       0.0000 |       0.0000 |       0.0000 |       0.0000 |       0.0000 |       0.0000 |       0.0000 |       0.0000 |       0.0000 |       0.0000 |       0.0000 |       0.0000 |       0.0000 |       0.0000 |       0.0000 |       0.0000 |
il1.repl_rate                               0.0004 |       0.0004 |       0.0002 |       0.0002 |       0.0002 |       0.0002 |       0.0001 |       0.0001 |       0.0001 |       0.0001 |       0.0001 |       0.0001 |       0.0000 |       0.0000 |       0.0000 |       0.0000 |       0.0000 |       0.0000 |       0.0000 |       0.0000 |       0.0000 |       0.0000 |       0.0000 |       0.0000 |       0.0000 |       0.0000 |       0.0000 |       0.0000 |       0.0000 |       0.0000 |       0.0000 |       0.0000 |       0.0000 |       0.0000 |       0.0000 |       0.0000 |       0.0000 |       0.0000 |       0.0000 |       0.0000 |       0.0000 |       0.0000 |       0.0000 |       0.0000 |
il1.wb_rate                                 0.0000 |       0.0000 |       0.0000 |       0.0000 |       0.0000 |       0.0000 |       0.0000 |       0.0000 |       0.0000 |       0.0000 |       0.0000 |       0.0000 |       0.0000 |       0.0000 |       0.0000 |       0.0000 |       0.0000 |       0.0000 |       0.0000 |       0.0000 |       0.0000 |       0.0000 |       0.0000 |       0.0000 |       0.0000 |       0.0000 |       0.0000 |       0.0000 |       0.0000 |       0.0000 |       0.0000 |       0.0000 |       0.0000 |       0.0000 |       0.0000 |       0.0000 |       0.0000 |       0.0000 |       0.0000 |       0.0000 |       0.0000 |       0.0000 |       0.0000 |       0.0000 |
il1.inv_rate                                0.0000 |       0.0000 |       0.0000 |       0.0000 |       0.0000 |       0.0000 |       0.0000 |       0.0000 |       0.0000 |       0.0000 |       0.0000 |       0.0000 |       0.0000 |       0.0000 |       0.0000 |       0.0000 |       0.0000 |       0.0000 |       0.0000 |       0.0000 |       0.0000 |       0.0000 |       0.0000 |       0.0000 |       0.0000 |       0.0000 |       0.0000 |       0.0000 |       0.0000 |       0.0000 |       0.0000 |       0.0000 |       0.0000 |       0.0000 |       0.0000 |       0.0000 |       0.0000 |       0.0000 |       0.0000 |       0.0000 |       0.0000 |       0.0000 |       0.0000 |       0.0000 |
dl1.accesses                                221692 |       221692 |       221692 |       221692 |       492717 |       492717 |       492717 |       492717 |      1023968 |      1023968 |      1023968 |      1023968 |      2258649 |      2258649 |      2258649 |      2258649 |      4677432 |      4677432 |      4677432 |      4677432 |     10201401 |     10201401 |     10201401 |     10201401 |     21053966 |     21053966 |     21053966 |     21053966 |     45512047 |     45512047 |     45512047 |     45512047 |     93647342 |     93647342 |     93647342 |     93647342 |    200922285 |    200922285 |    200922285 |    200922285 |    412330310 |    412330310 |    412330310 |    412330310 |
dl1.hits                                    209815 |       209815 |       209966 |       209966 |       465094 |       465094 |       465617 |       465617 |       968643 |       968643 |       970232 |       970232 |      2131342 |      2131342 |      2135245 |      2135245 |      4421072 |      4421072 |      4431088 |      4431088 |      9620342 |      9620342 |      9643629 |      9643629 |     19886036 |     19886036 |     19938886 |     19938886 |     42899528 |     42899528 |     43020195 |     43020195 |     88393621 |     88393621 |     88662943 |     88662943 |    189312223 |    189312223 |    189905754 |    189905754 |    388994785 |    388994785 |    390298103 |    390298103 |
dl1.misses                                   11877 |        11877 |        11726 |        11726 |        27623 |        27623 |        27100 |        27100 |        55325 |        55325 |        53736 |        53736 |       127307 |       127307 |       123404 |       123404 |       256360 |       256360 |       246344 |       246344 |       581059 |       581059 |       557772 |       557772 |      1167930 |      1167930 |      1115080 |      1115080 |      2612519 |      2612519 |      2491852 |      2491852 |      5253721 |      5253721 |      4984399 |      4984399 |     11610062 |     11610062 |     11016531 |     11016531 |     23335525 |     23335525 |     22032207 |     22032207 |
dl1.replacements                             11621 |        11621 |        11470 |        11470 |        27367 |        27367 |        26844 |        26844 |        55069 |        55069 |        53480 |        53480 |       127051 |       127051 |       123148 |       123148 |       256104 |       256104 |       246088 |       246088 |       580803 |       580803 |       557516 |       557516 |      1167674 |      1167674 |      1114824 |      1114824 |      2612263 |      2612263 |      2491596 |      2491596 |      5253465 |      5253465 |      4984143 |      4984143 |     11609806 |     11609806 |     11016275 |     11016275 |     23335269 |     23335269 |     22031951 |     22031951 |
dl1.writebacks                                6546 |         6546 |         6449 |         6449 |        14820 |        14820 |        14650 |        14650 |        29476 |        29476 |        28994 |        28994 |        67031 |        67031 |        65881 |        65881 |       134273 |       134273 |       131456 |       131456 |       301829 |       301829 |       295382 |       295382 |       605116 |       605116 |       590453 |       590453 |      1344700 |      1344700 |      1311684 |      1311684 |      2696649 |      2696649 |      2623840 |      2623840 |      5931255 |      5931255 |      5771658 |      5771658 |     11891455 |     11891455 |     11543012 |     11543012 |
dl1.invalidations                                0 |            0 |            0 |            0 |            0 |            0 |            0 |            0 |            0 |            0 |            0 |            0 |            0 |            0 |            0 |            0 |            0 |            0 |            0 |            0 |            0 |            0 |            0 |            0 |            0 |            0 |            0 |            0 |            0 |            0 |            0 |            0 |            0 |            0 |            0 |            0 |            0 |            0 |            0 |            0 |            0 |            0 |            0 |            0 |
dl1.miss_rate                               0.0536 |       0.0536 |       0.0529 |       0.0529 |       0.0561 |       0.0561 |       0.0550 |       0.0550 |       0.0540 |       0.0540 |       0.0525 |       0.0525 |       0.0564 |       0.0564 |       0.0546 |       0.0546 |       0.0548 |       0.0548 |       0.0527 |       0.0527 |       0.0570 |       0.0570 |       0.0547 |       0.0547 |       0.0555 |       0.0555 |       0.0530 |       0.0530 |       0.0574 |       0.0574 |       0.0548 |       0.0548 |       0.0561 |       0.0561 |       0.0532 |       0.0532 |       0.0578 |       0.0578 |       0.0548 |       0.0548 |       0.0566 |       0.0566 |       0.0534 |       0.0534 |
dl1.repl_rate                               0.0524 |       0.0524 |       0.0517 |       0.0517 |       0.0555 |       0.0555 |       0.0545 |       0.0545 |       0.0538 |       0.0538 |       0.0522 |       0.0522 |       0.0563 |       0.0563 |       0.0545 |       0.0545 |       0.0548 |       0.0548 |       0.0526 |       0.0526 |       0.0569 |       0.0569 |       0.0547 |       0.0547 |       0.0555 |       0.0555 |       0.0530 |       0.0530 |       0.0574 |       0.0574 |       0.0547 |       0.0547 |       0.0561 |       0.0561 |       0.0532 |       0.0532 |       0.0578 |       0.0578 |       0.0548 |       0.0548 |       0.0566 |       0.0566 |       0.0534 |       0.0534 |
dl1.wb_rate                                 0.0295 |       0.0295 |       0.0291 |       0.0291 |       0.0301 |       0.0301 |       0.0297 |       0.0297 |       0.0288 |       0.0288 |       0.0283 |       0.0283 |       0.0297 |       0.0297 |       0.0292 |       0.0292 |       0.0287 |       0.0287 |       0.0281 |       0.0281 |       0.0296 |       0.0296 |       0.0290 |       0.0290 |       0.0287 |       0.0287 |       0.0280 |       0.0280 |       0.0295 |       0.0295 |       0.0288 |       0.0288 |       0.0288 |       0.0288 |       0.0280 |       0.0280 |       0.0295 |       0.0295 |       0.0287 |       0.0287 |       0.0288 |       0.0288 |       0.0280 |       0.0280 |
dl1.inv_rate                                0.0000 |       0.0000 |       0.0000 |       0.0000 |       0.0000 |       0.0000 |       0.0000 |       0.0000 |       0.0000 |       0.0000 |       0.0000 |       0.0000 |       0.0000 |       0.0000 |       0.0000 |       0.0000 |       0.0000 |       0.0000 |       0.0000 |       0.0000 |       0.0000 |       0.0000 |       0.0000 |       0.0000 |       0.0000 |       0.0000 |       0.0000 |       0.0000 |       0.0000 |       0.0000 |       0.0000 |       0.0000 |       0.0000 |       0.0000 |       0.0000 |       0.0000 |       0.0000 |       0.0000 |       0.0000 |       0.0000 |       0.0000 |       0.0000 |       0.0000 |       0.0000 |
dl2.accesses                                 18897 |        18897 |        18596 |        18596 |        42968 |        42968 |        42212 |        42212 |        85315 |        85315 |        83164 |        83164 |       194863 |       194863 |       189748 |       189748 |       391140 |       391140 |       378242 |       378242 |       883414 |       883414 |       853617 |       853617 |      1773552 |      1773552 |      1705973 |      1705973 |      3957745 |      3957745 |      3803999 |      3803999 |      7950911 |      7950911 |      7608712 |      7608712 |     17541868 |     17541868 |     16788664 |     16788664 |     35227521 |     35227521 |     33575692 |     33575692 |
dl2.hits                                     17023 |        17023 |        16748 |        16748 |        40054 |        40054 |        39328 |        39328 |        80376 |        80376 |        78258 |        78258 |       185802 |       185802 |       180719 |       180719 |       373906 |       373906 |       361041 |       361041 |       849777 |       849777 |       820012 |       820012 |      1707167 |      1657722 |      1639621 |      1542998 |      3769150 |      1662144 |      3440448 |      1312769 |      3361756 |      2968145 |      2626341 |      2626278 |      6525474 |      6525260 |      5776140 |      5776140 |     13195692 |     13194969 |     11551582 |     11551582 |
dl2.misses                                    1874 |         1874 |         1848 |         1848 |         2914 |         2914 |         2884 |         2884 |         4939 |         4939 |         4906 |         4906 |         9061 |         9061 |         9029 |         9029 |        17234 |        17234 |        17201 |        17201 |        33637 |        33637 |        33605 |        33605 |        66385 |       115830 |        66352 |       162975 |       188595 |      2295601 |       363551 |      2491230 |      4589155 |      4982766 |      4982371 |      4982434 |     11016394 |     11016608 |     11012524 |     11012524 |     22031829 |     22032552 |     22024110 |     22024110 |
dl2.replacements                               254 |          254 |            0 |            0 |          284 |          284 |            0 |            0 |          283 |          283 |            0 |            0 |          307 |          307 |            0 |            0 |          289 |          289 |            0 |            0 |          308 |          308 |            0 |            0 |          289 |        51405 |            0 |        97439 |        58633 |      2230065 |       232479 |      2425694 |      4458083 |      4917230 |      4851299 |      4916898 |     10885322 |     10951072 |     10881452 |     10946988 |     21900757 |     21967016 |     21893038 |     21958574 |
dl2.writebacks                                 175 |          175 |            0 |            0 |          186 |          186 |            0 |            0 |          183 |          183 |            0 |            0 |          208 |          208 |            0 |            0 |          188 |          188 |            0 |            0 |          208 |          208 |            0 |            0 |          188 |        27974 |            0 |        97199 |        31873 |      1182739 |       232223 |      1278402 |      2449063 |      2580905 |      2557081 |      2589849 |      5641567 |      5707157 |      5703536 |      5736304 |     11455005 |     11498895 |     11472161 |     11504929 |
dl2.invalidations                                0 |            0 |            0 |            0 |            0 |            0 |            0 |            0 |            0 |            0 |            0 |            0 |            0 |            0 |            0 |            0 |            0 |            0 |            0 |            0 |            0 |            0 |            0 |            0 |            0 |            0 |            0 |            0 |            0 |            0 |            0 |            0 |            0 |            0 |            0 |            0 |            0 |            0 |            0 |            0 |            0 |            0 |            0 |            0 |
dl2.miss_rate                               0.0992 |       0.0992 |       0.0994 |       0.0994 |       0.0678 |       0.0678 |       0.0683 |       0.0683 |       0.0579 |       0.0579 |       0.0590 |       0.0590 |       0.0465 |       0.0465 |       0.0476 |       0.0476 |       0.0441 |       0.0441 |       0.0455 |       0.0455 |       0.0381 |       0.0381 |       0.0394 |       0.0394 |       0.0374 |       0.0653 |       0.0389 |       0.0955 |       0.0477 |       0.5800 |       0.0956 |       0.6549 |       0.5772 |       0.6267 |       0.6548 |       0.6548 |       0.6280 |       0.6280 |       0.6559 |       0.6559 |       0.6254 |       0.6254 |       0.6560 |       0.6560 |
dl2.repl_rate                               0.0134 |       0.0134 |       0.0000 |       0.0000 |       0.0066 |       0.0066 |       0.0000 |       0.0000 |       0.0033 |       0.0033 |       0.0000 |       0.0000 |       0.0016 |       0.0016 |       0.0000 |       0.0000 |       0.0007 |       0.0007 |       0.0000 |       0.0000 |       0.0003 |       0.0003 |       0.0000 |       0.0000 |       0.0002 |       0.0290 |       0.0000 |       0.0571 |       0.0148 |       0.5635 |       0.0611 |       0.6377 |       0.5607 |       0.6184 |       0.6376 |       0.6462 |       0.6205 |       0.6243 |       0.6481 |       0.6520 |       0.6217 |       0.6236 |       0.6521 |       0.6540 |
dl2.wb_rate                                 0.0093 |       0.0093 |       0.0000 |       0.0000 |       0.0043 |       0.0043 |       0.0000 |       0.0000 |       0.0021 |       0.0021 |       0.0000 |       0.0000 |       0.0011 |       0.0011 |       0.0000 |       0.0000 |       0.0005 |       0.0005 |       0.0000 |       0.0000 |       0.0002 |       0.0002 |       0.0000 |       0.0000 |       0.0001 |       0.0158 |       0.0000 |       0.0570 |       0.0081 |       0.2988 |       0.0610 |       0.3361 |       0.3080 |       0.3246 |       0.3361 |       0.3404 |       0.3216 |       0.3253 |       0.3397 |       0.3417 |       0.3252 |       0.3264 |       0.3417 |       0.3427 |
dl2.inv_rate                                0.0000 |       0.0000 |       0.0000 |       0.0000 |       0.0000 |       0.0000 |       0.0000 |       0.0000 |       0.0000 |       0.0000 |       0.0000 |       0.0000 |       0.0000 |       0.0000 |       0.0000 |       0.0000 |       0.0000 |       0.0000 |       0.0000 |       0.0000 |       0.0000 |       0.0000 |       0.0000 |       0.0000 |       0.0000 |       0.0000 |       0.0000 |       0.0000 |       0.0000 |       0.0000 |       0.0000 |       0.0000 |       0.0000 |       0.0000 |       0.0000 |       0.0000 |       0.0000 |       0.0000 |       0.0000 |       0.0000 |       0.0000 |       0.0000 |       0.0000 |       0.0000 |
itlb.accesses                               749231 |       749231 |       749231 |       749231 |      1647644 |      1647644 |      1647644 |      1647644 |      3525402 |      3525402 |      3525402 |      3525402 |      7673849 |      7673849 |      7673849 |      7673849 |     16260157 |     16260157 |     16260157 |     16260157 |     34997120 |     34997120 |     34997120 |     34997120 |     73655136 |     73655136 |     73655136 |     73655136 |    157268369 |    157268369 |    157268369 |    157268369 |    329211183 |    329211183 |    329211183 |    329211183 |    698293162 |    698293162 |    698293162 |    698293162 |   1455365017 |   1455365017 |   1455365017 |   1455365017 |
itlb.hits                                   749220 |       749220 |       749220 |       749220 |      1647633 |      1647633 |      1647633 |      1647633 |      3525392 |      3525392 |      3525392 |      3525392 |      7673839 |      7673839 |      7673839 |      7673839 |     16260147 |     16260147 |     16260147 |     16260147 |     34997110 |     34997110 |     34997110 |     34997110 |     73655126 |     73655126 |     73655126 |     73655126 |    157268359 |    157268359 |    157268359 |    157268359 |    329211173 |    329211173 |    329211173 |    329211173 |    698293152 |    698293152 |    698293152 |    698293152 |   1455365007 |   1455365007 |   1455365007 |   1455365007 |
itlb.misses                                     11 |           11 |           11 |           11 |           11 |           11 |           11 |           11 |           10 |           10 |           10 |           10 |           10 |           10 |           10 |           10 |           10 |           10 |           10 |           10 |           10 |           10 |           10 |           10 |           10 |           10 |           10 |           10 |           10 |           10 |           10 |           10 |           10 |           10 |           10 |           10 |           10 |           10 |           10 |           10 |           10 |           10 |           10 |           10 |
itlb.replacements                                0 |            0 |            0 |            0 |            0 |            0 |            0 |            0 |            0 |            0 |            0 |            0 |            0 |            0 |            0 |            0 |            0 |            0 |            0 |            0 |            0 |            0 |            0 |            0 |            0 |            0 |            0 |            0 |            0 |            0 |            0 |            0 |            0 |            0 |            0 |            0 |            0 |            0 |            0 |            0 |            0 |            0 |            0 |            0 |
itlb.writebacks                                  0 |            0 |            0 |            0 |            0 |            0 |            0 |            0 |            0 |            0 |            0 |            0 |            0 |            0 |            0 |            0 |            0 |            0 |            0 |            0 |            0 |            0 |            0 |            0 |            0 |            0 |            0 |            0 |            0 |            0 |            0 |            0 |            0 |            0 |            0 |            0 |            0 |            0 |            0 |            0 |            0 |            0 |            0 |            0 |
itlb.invalidations                               0 |            0 |            0 |            0 |            0 |            0 |            0 |            0 |            0 |            0 |            0 |            0 |            0 |            0 |            0 |            0 |            0 |            0 |            0 |            0 |            0 |            0 |            0 |            0 |            0 |            0 |            0 |            0 |            0 |            0 |            0 |            0 |            0 |            0 |            0 |            0 |            0 |            0 |            0 |            0 |            0 |            0 |            0 |            0 |
itlb.miss_rate                              0.0000 |       0.0000 |       0.0000 |       0.0000 |       0.0000 |       0.0000 |       0.0000 |       0.0000 |       0.0000 |       0.0000 |       0.0000 |       0.0000 |       0.0000 |       0.0000 |       0.0000 |       0.0000 |       0.0000 |       0.0000 |       0.0000 |       0.0000 |       0.0000 |       0.0000 |       0.0000 |       0.0000 |       0.0000 |       0.0000 |       0.0000 |       0.0000 |       0.0000 |       0.0000 |       0.0000 |       0.0000 |       0.0000 |       0.0000 |       0.0000 |       0.0000 |       0.0000 |       0.0000 |       0.0000 |       0.0000 |       0.0000 |       0.0000 |       0.0000 |       0.0000 |
itlb.repl_rate                              0.0000 |       0.0000 |       0.0000 |       0.0000 |       0.0000 |       0.0000 |       0.0000 |       0.0000 |       0.0000 |       0.0000 |       0.0000 |       0.0000 |       0.0000 |       0.0000 |       0.0000 |       0.0000 |       0.0000 |       0.0000 |       0.0000 |       0.0000 |       0.0000 |       0.0000 |       0.0000 |       0.0000 |       0.0000 |       0.0000 |       0.0000 |       0.0000 |       0.0000 |       0.0000 |       0.0000 |       0.0000 |       0.0000 |       0.0000 |       0.0000 |       0.0000 |       0.0000 |       0.0000 |       0.0000 |       0.0000 |       0.0000 |       0.0000 |       0.0000 |       0.0000 |
itlb.wb_rate                                0.0000 |       0.0000 |       0.0000 |       0.0000 |       0.0000 |       0.0000 |       0.0000 |       0.0000 |       0.0000 |       0.0000 |       0.0000 |       0.0000 |       0.0000 |       0.0000 |       0.0000 |       0.0000 |       0.0000 |       0.0000 |       0.0000 |       0.0000 |       0.0000 |       0.0000 |       0.0000 |       0.0000 |       0.0000 |       0.0000 |       0.0000 |       0.0000 |       0.0000 |       0.0000 |       0.0000 |       0.0000 |       0.0000 |       0.0000 |       0.0000 |       0.0000 |       0.0000 |       0.0000 |       0.0000 |       0.0000 |       0.0000 |       0.0000 |       0.0000 |       0.0000 |
itlb.inv_rate                               0.0000 |       0.0000 |       0.0000 |       0.0000 |       0.0000 |       0.0000 |       0.0000 |       0.0000 |       0.0000 |       0.0000 |       0.0000 |       0.0000 |       0.0000 |       0.0000 |       0.0000 |       0.0000 |       0.0000 |       0.0000 |       0.0000 |       0.0000 |       0.0000 |       0.0000 |       0.0000 |       0.0000 |       0.0000 |       0.0000 |       0.0000 |       0.0000 |       0.0000 |       0.0000 |       0.0000 |       0.0000 |       0.0000 |       0.0000 |       0.0000 |       0.0000 |       0.0000 |       0.0000 |       0.0000 |       0.0000 |       0.0000 |       0.0000 |       0.0000 |       0.0000 |
dtlb.accesses                               221692 |       221692 |       221692 |       221692 |       492717 |       492717 |       492717 |       492717 |      1023968 |      1023968 |      1023968 |      1023968 |      2258649 |      2258649 |      2258649 |      2258649 |      4677432 |      4677432 |      4677432 |      4677432 |     10201401 |     10201401 |     10201401 |     10201401 |     21053966 |     21053966 |     21053966 |     21053966 |     45512047 |     45512047 |     45512047 |     45512047 |     93647342 |     93647342 |     93647342 |     93647342 |    200922285 |    200922285 |    200922285 |    200922285 |    412330310 |    412330310 |    412330310 |    412330310 |
dtlb.hits                                   221677 |       221677 |       221677 |       221677 |       492694 |       492694 |       492694 |       492694 |      1023929 |      1023929 |      1023929 |      1023929 |      2258578 |      2258578 |      2258578 |      2258578 |      4677232 |      4677232 |      4677232 |      4677232 |     10197159 |     10197159 |     10197159 |     10197159 |     21045228 |     21045228 |     21045228 |     21045228 |     45492546 |     45492546 |     45492546 |     45492546 |     93608365 |     93608365 |     93608365 |     93608365 |    200836164 |    200836164 |    200836164 |    200836164 |    412158099 |    412158099 |    412158099 |    412158099 |
dtlb.misses                                     15 |           15 |           15 |           15 |           23 |           23 |           23 |           23 |           39 |           39 |           39 |           39 |           71 |           71 |           71 |           71 |          200 |          200 |          200 |          200 |         4242 |         4242 |         4242 |         4242 |         8738 |         8738 |         8738 |         8738 |        19501 |        19501 |        19501 |        19501 |        38977 |        38977 |        38977 |        38977 |        86121 |        86121 |        86121 |        86121 |       172211 |       172211 |       172211 |       172211 |
dtlb.replacements                                0 |            0 |            0 |            0 |            0 |            0 |            0 |            0 |            0 |            0 |            0 |            0 |            0 |            0 |            0 |            0 |           72 |           72 |           72 |           72 |         4114 |         4114 |         4114 |         4114 |         8610 |         8610 |         8610 |         8610 |        19373 |        19373 |        19373 |        19373 |        38849 |        38849 |        38849 |        38849 |        85993 |        85993 |        85993 |        85993 |       172083 |       172083 |       172083 |       172083 |
dtlb.writebacks                                  0 |            0 |            0 |            0 |            0 |            0 |            0 |            0 |            0 |            0 |            0 |            0 |            0 |            0 |            0 |            0 |           42 |           42 |           42 |           42 |         2152 |         2152 |         2152 |         2152 |         4564 |         4564 |         4564 |         4564 |        10205 |        10205 |        10205 |        10205 |        20458 |        20458 |        20458 |        20458 |        45063 |        45063 |        45063 |        45063 |        90172 |        90172 |        90172 |        90172 |
dtlb.invalidations                               0 |            0 |            0 |            0 |            0 |            0 |            0 |            0 |            0 |            0 |            0 |            0 |            0 |            0 |            0 |            0 |            0 |            0 |            0 |            0 |            0 |            0 |            0 |            0 |            0 |            0 |            0 |            0 |            0 |            0 |            0 |            0 |            0 |            0 |            0 |            0 |            0 |            0 |            0 |            0 |            0 |            0 |            0 |            0 |
dtlb.miss_rate                              0.0001 |       0.0001 |       0.0001 |       0.0001 |       0.0000 |       0.0000 |       0.0000 |       0.0000 |       0.0000 |       0.0000 |       0.0000 |       0.0000 |       0.0000 |       0.0000 |       0.0000 |       0.0000 |       0.0000 |       0.0000 |       0.0000 |       0.0000 |       0.0004 |       0.0004 |       0.0004 |       0.0004 |       0.0004 |       0.0004 |       0.0004 |       0.0004 |       0.0004 |       0.0004 |       0.0004 |       0.0004 |       0.0004 |       0.0004 |       0.0004 |       0.0004 |       0.0004 |       0.0004 |       0.0004 |       0.0004 |       0.0004 |       0.0004 |       0.0004 |       0.0004 |
dtlb.repl_rate                              0.0000 |       0.0000 |       0.0000 |       0.0000 |       0.0000 |       0.0000 |       0.0000 |       0.0000 |       0.0000 |       0.0000 |       0.0000 |       0.0000 |       0.0000 |       0.0000 |       0.0000 |       0.0000 |       0.0000 |       0.0000 |       0.0000 |       0.0000 |       0.0004 |       0.0004 |       0.0004 |       0.0004 |       0.0004 |       0.0004 |       0.0004 |       0.0004 |       0.0004 |       0.0004 |       0.0004 |       0.0004 |       0.0004 |       0.0004 |       0.0004 |       0.0004 |       0.0004 |       0.0004 |       0.0004 |       0.0004 |       0.0004 |       0.0004 |       0.0004 |       0.0004 |
dtlb.wb_rate                                0.0000 |       0.0000 |       0.0000 |       0.0000 |       0.0000 |       0.0000 |       0.0000 |       0.0000 |       0.0000 |       0.0000 |       0.0000 |       0.0000 |       0.0000 |       0.0000 |       0.0000 |       0.0000 |       0.0000 |       0.0000 |       0.0000 |       0.0000 |       0.0002 |       0.0002 |       0.0002 |       0.0002 |       0.0002 |       0.0002 |       0.0002 |       0.0002 |       0.0002 |       0.0002 |       0.0002 |       0.0002 |       0.0002 |       0.0002 |       0.0002 |       0.0002 |       0.0002 |       0.0002 |       0.0002 |       0.0002 |       0.0002 |       0.0002 |       0.0002 |       0.0002 |
dtlb.inv_rate                               0.0000 |       0.0000 |       0.0000 |       0.0000 |       0.0000 |       0.0000 |       0.0000 |       0.0000 |       0.0000 |       0.0000 |       0.0000 |       0.0000 |       0.0000 |       0.0000 |       0.0000 |       0.0000 |       0.0000 |       0.0000 |       0.0000 |       0.0000 |       0.0000 |       0.0000 |       0.0000 |       0.0000 |       0.0000 |       0.0000 |       0.0000 |       0.0000 |       0.0000 |       0.0000 |       0.0000 |       0.0000 |       0.0000 |       0.0000 |       0.0000 |       0.0000 |       0.0000 |       0.0000 |       0.0000 |       0.0000 |       0.0000 |       0.0000 |       0.0000 |       0.0000 |
ld_text_base                            0x00400000 |   0x00400000 |   0x00400000 |   0x00400000 |   0x00400000 |   0x00400000 |   0x00400000 |   0x00400000 |   0x00400000 |   0x00400000 |   0x00400000 |   0x00400000 |   0x00400000 |   0x00400000 |   0x00400000 |   0x00400000 |   0x00400000 |   0x00400000 |   0x00400000 |   0x00400000 |   0x00400000 |   0x00400000 |   0x00400000 |   0x00400000 |   0x00400000 |   0x00400000 |   0x00400000 |   0x00400000 |   0x00400000 |   0x00400000 |   0x00400000 |   0x00400000 |   0x00400000 |   0x00400000 |   0x00400000 |   0x00400000 |   0x00400000 |   0x00400000 |   0x00400000 |   0x00400000 |   0x00400000 |   0x00400000 |   0x00400000 |   0x00400000 |
ld_text_size                                 74928 |        74928 |        74928 |        74928 |        74960 |        74960 |        74960 |        74960 |        74976 |        74976 |        74976 |        74976 |        74992 |        74992 |        74992 |        74992 |        74992 |        74992 |        74992 |        74992 |        74992 |        74992 |        74992 |        74992 |        74992 |        74992 |        74992 |        74992 |        74992 |        74992 |        74992 |        74992 |        74992 |        74992 |        74992 |        74992 |        74992 |        74992 |        74992 |        74992 |        74992 |        74992 |        74992 |        74992 |
ld_data_base                            0x10000000 |   0x10000000 |   0x10000000 |   0x10000000 |   0x10000000 |   0x10000000 |   0x10000000 |   0x10000000 |   0x10000000 |   0x10000000 |   0x10000000 |   0x10000000 |   0x10000000 |   0x10000000 |   0x10000000 |   0x10000000 |   0x10000000 |   0x10000000 |   0x10000000 |   0x10000000 |   0x10000000 |   0x10000000 |   0x10000000 |   0x10000000 |   0x10000000 |   0x10000000 |   0x10000000 |   0x10000000 |   0x10000000 |   0x10000000 |   0x10000000 |   0x10000000 |   0x10000000 |   0x10000000 |   0x10000000 |   0x10000000 |   0x10000000 |   0x10000000 |   0x10000000 |   0x10000000 |   0x10000000 |   0x10000000 |   0x10000000 |   0x10000000 |
ld_data_size                                  8192 |         8192 |         8192 |         8192 |         8192 |         8192 |         8192 |         8192 |         8192 |         8192 |         8192 |         8192 |         8192 |         8192 |         8192 |         8192 |         8192 |         8192 |         8192 |         8192 |         8192 |         8192 |         8192 |         8192 |         8192 |         8192 |         8192 |         8192 |         8192 |         8192 |         8192 |         8192 |         8192 |         8192 |         8192 |         8192 |         8192 |         8192 |         8192 |         8192 |         8192 |         8192 |         8192 |         8192 |
ld_stack_base                           0x7fffc000 |   0x7fffc000 |   0x7fffc000 |   0x7fffc000 |   0x7fffc000 |   0x7fffc000 |   0x7fffc000 |   0x7fffc000 |   0x7fffc000 |   0x7fffc000 |   0x7fffc000 |   0x7fffc000 |   0x7fffc000 |   0x7fffc000 |   0x7fffc000 |   0x7fffc000 |   0x7fffc000 |   0x7fffc000 |   0x7fffc000 |   0x7fffc000 |   0x7fffc000 |   0x7fffc000 |   0x7fffc000 |   0x7fffc000 |   0x7fffc000 |   0x7fffc000 |   0x7fffc000 |   0x7fffc000 |   0x7fffc000 |   0x7fffc000 |   0x7fffc000 |   0x7fffc000 |   0x7fffc000 |   0x7fffc000 |   0x7fffc000 |   0x7fffc000 |   0x7fffc000 |   0x7fffc000 |   0x7fffc000 |   0x7fffc000 |   0x7fffc000 |   0x7fffc000 |   0x7fffc000 |   0x7fffc000 |
ld_stack_size                                16384 |        16384 |        16384 |        16384 |        16384 |        16384 |        16384 |        16384 |        16384 |        16384 |        16384 |        16384 |        16384 |        16384 |        16384 |        16384 |        16384 |        16384 |        16384 |        16384 |        16384 |        16384 |        16384 |        16384 |        16384 |        16384 |        16384 |        16384 |        16384 |        16384 |        16384 |        16384 |        16384 |        16384 |        16384 |        16384 |        16384 |        16384 |        16384 |        16384 |        16384 |        16384 |        16384 |        16384 |
ld_prog_entry                           0x00400140 |   0x00400140 |   0x00400140 |   0x00400140 |   0x00400140 |   0x00400140 |   0x00400140 |   0x00400140 |   0x00400140 |   0x00400140 |   0x00400140 |   0x00400140 |   0x00400140 |   0x00400140 |   0x00400140 |   0x00400140 |   0x00400140 |   0x00400140 |   0x00400140 |   0x00400140 |   0x00400140 |   0x00400140 |   0x00400140 |   0x00400140 |   0x00400140 |   0x00400140 |   0x00400140 |   0x00400140 |   0x00400140 |   0x00400140 |   0x00400140 |   0x00400140 |   0x00400140 |   0x00400140 |   0x00400140 |   0x00400140 |   0x00400140 |   0x00400140 |   0x00400140 |   0x00400140 |   0x00400140 |   0x00400140 |   0x00400140 |   0x00400140 |
ld_environ_base                         0x7fff8000 |   0x7fff8000 |   0x7fff8000 |   0x7fff8000 |   0x7fff8000 |   0x7fff8000 |   0x7fff8000 |   0x7fff8000 |   0x7fff8000 |   0x7fff8000 |   0x7fff8000 |   0x7fff8000 |   0x7fff8000 |   0x7fff8000 |   0x7fff8000 |   0x7fff8000 |   0x7fff8000 |   0x7fff8000 |   0x7fff8000 |   0x7fff8000 |   0x7fff8000 |   0x7fff8000 |   0x7fff8000 |   0x7fff8000 |   0x7fff8000 |   0x7fff8000 |   0x7fff8000 |   0x7fff8000 |   0x7fff8000 |   0x7fff8000 |   0x7fff8000 |   0x7fff8000 |   0x7fff8000 |   0x7fff8000 |   0x7fff8000 |   0x7fff8000 |   0x7fff8000 |   0x7fff8000 |   0x7fff8000 |   0x7fff8000 |   0x7fff8000 |   0x7fff8000 |   0x7fff8000 |   0x7fff8000 |
ld_target_big_endian                             0 |            0 |            0 |            0 |            0 |            0 |            0 |            0 |            0 |            0 |            0 |            0 |            0 |            0 |            0 |            0 |            0 |            0 |            0 |            0 |            0 |            0 |            0 |            0 |            0 |            0 |            0 |            0 |            0 |            0 |            0 |            0 |            0 |            0 |            0 |            0 |            0 |            0 |            0 |            0 |            0 |            0 |            0 |            0 |
mem.page_count                                  34 |           34 |           34 |           34 |           42 |           42 |           42 |           42 |           58 |           58 |           58 |           58 |           90 |           90 |           90 |           90 |          154 |          154 |          154 |          154 |          282 |          282 |          282 |          282 |          538 |          538 |          538 |          538 |         1050 |         1050 |         1050 |         1050 |         2080 |         2080 |         2080 |         2080 |         4134 |         4134 |         4134 |         4134 |         8242 |         8242 |         8242 |         8242 |
mem.page_mem                                  136k |         136k |         136k |         136k |         168k |         168k |         168k |         168k |         232k |         232k |         232k |         232k |         360k |         360k |         360k |         360k |         616k |         616k |         616k |         616k |        1128k |        1128k |        1128k |        1128k |        2152k |        2152k |        2152k |        2152k |        4200k |        4200k |        4200k |        4200k |        8320k |        8320k |        8320k |        8320k |       16536k |       16536k |       16536k |       16536k |       32968k |       32968k |       32968k |       32968k |
mem.ptab_misses                                 34 |           34 |           34 |           34 |           42 |           42 |           42 |           42 |           58 |           58 |           58 |           58 |           90 |           90 |           90 |           90 |          154 |          154 |          154 |          154 |          282 |          282 |          282 |          282 |          538 |          538 |          538 |          538 |         1050 |         1050 |         1050 |         1050 |       105123 |       105123 |       105123 |       105123 |       111827 |       111827 |       111827 |       111827 |       123247 |       123247 |       123247 |       123247 |
mem.ptab_accesses                          3904464 |      3904464 |      3904464 |      3904464 |      8040358 |      8040358 |      8040358 |      8040358 |     16613988 |     16613988 |     16613988 |     16613988 |     35677234 |     35677234 |     35677234 |     35677234 |     74860032 |     74860032 |     74860032 |     74860032 |    160855822 |    160855822 |    160855822 |    160855822 |    337193016 |    337193016 |    337193016 |    337193016 |    720562110 |    720562110 |    720562110 |    720562110 |   1504603956 |   1504603956 |   1504603956 |   1504603956 |   3195481758 |   3195481758 |   3195481758 |   3195481758 |   6646585228 |   6646585228 |   6646585228 |   6646585228 |
mem.ptab_miss_rate                          0.0000 |       0.0000 |       0.0000 |       0.0000 |       0.0000 |       0.0000 |       0.0000 |       0.0000 |       0.0000 |       0.0000 |       0.0000 |       0.0000 |       0.0000 |       0.0000 |       0.0000 |       0.0000 |       0.0000 |       0.0000 |       0.0000 |       0.0000 |       0.0000 |       0.0000 |       0.0000 |       0.0000 |       0.0000 |       0.0000 |       0.0000 |       0.0000 |       0.0000 |       0.0000 |       0.0000 |       0.0000 |       0.0001 |       0.0001 |       0.0001 |       0.0001 |       0.0000 |       0.0000 |       0.0000 |       0.0000 |       0.0000 |       0.0000 |       0.0000 |       0.0000 |
-------------------------------------------------------------------------------------------------
sim-bpred                                     4096 |         4096 |         4096 |         4096 |         4096 |         4096 |         4096 |         8192 |         8192 |         8192 |         8192 |         8192 |         8192 |         8192 |        16384 |        16384 |        16384 |        16384 |        16384 |        16384 |        16384 |        32768 |        32768 |        32768 |        32768 |        32768 |        32768 |        32768 |        65536 |        65536 |        65536 |        65536 |        65536 |        65536 |        65536 |       131072 |       131072 |       131072 |       131072 |       131072 |       131072 |       131072 |       262144 |       262144 |       262144 |       262144 |       262144 |       262144 |       262144 |       524288 |       524288 |       524288 |       524288 |       524288 |       524288 |       524288 |      1048576 |      1048576 |      1048576 |      1048576 |      1048576 |      1048576 |      1048576 |      2097152 |      2097152 |      2097152 |      2097152 |      2097152 |      2097152 |      2097152 |      4194304 |      4194304 |      4194304 |      4194304 |      4194304 |      4194304 |      4194304 |
-bpred bimod -bpred:bimod 512
-bpred bimod -bpred:bimod 1024
-bpred bimod -bpred:bimod 2048
-bpred 2lev -bpred:2lev 1 512 10 1
-bpred 2lev -bpred:2lev 1 1024 10 1
-bpred 2lev -bpred:2lev 1 2048 10 1
-bpred 2lev -bpred:2lev 1 4096 10 1
-------------------------------------------------------------------------------------------------
sim_num_insn                                749231 |       749231 |       749231 |       749231 |       749231 |       749231 |       749231 |      1647644 |      1647644 |      1647644 |      1647644 |      1647644 |      1647644 |      1647644 |      3525402 |      3525402 |      3525402 |      3525402 |      3525402 |      3525402 |      3525402 |      7673849 |      7673849 |      7673849 |      7673849 |      7673849 |      7673849 |      7673849 |     16260157 |     16260157 |     16260157 |     16260157 |     16260157 |     16260157 |     16260157 |     34997120 |     34997120 |     34997120 |     34997120 |     34997120 |     34997120 |     34997120 |     73655136 |     73655136 |     73655136 |     73655136 |     73655136 |     73655136 |     73655136 |    157268369 |    157268369 |    157268369 |    157268369 |    157268369 |    157268369 |    157268369 |    329211183 |    329211183 |    329211183 |    329211183 |    329211183 |    329211183 |    329211183 |    698293162 |    698293162 |    698293162 |    698293162 |    698293162 |    698293162 |    698293162 |   1455365017 |   1455365017 |   1455365017 |   1455365017 |   1455365017 |   1455365017 |   1455365017 |
sim_num_refs                                205226 |       205226 |       205226 |       205226 |       205226 |       205226 |       205226 |       459867 |       459867 |       459867 |       459867 |       459867 |       459867 |       459867 |       958350 |       958350 |       958350 |       958350 |       958350 |       958350 |       958350 |      2127495 |      2127495 |      2127495 |      2127495 |      2127495 |      2127495 |      2127495 |      4415206 |      4415206 |      4415206 |      4415206 |      4415206 |      4415206 |      4415206 |      9677031 |      9677031 |      9677031 |      9677031 |      9677031 |      9677031 |      9677031 |     20005308 |     20005308 |     20005308 |     20005308 |     20005308 |     20005308 |     20005308 |     43414813 |     43414813 |     43414813 |     43414813 |     43414813 |     43414813 |     43414813 |     89452956 |     89452956 |     89452956 |     89452956 |     89452956 |     89452956 |     89452956 |    192533595 |    192533595 |    192533595 |    192533595 |    192533595 |    192533595 |    192533595 |    395553012 |    395553012 |    395553012 |    395553012 |    395553012 |    395553012 |    395553012 |
sim_elapsed_time                                 1 |            1 |            1 |            1 |            1 |            1 |            1 |            1 |            1 |            1 |            1 |            1 |            1 |            1 |            1 |            1 |            1 |            1 |            1 |            1 |            1 |            1 |            1 |            1 |            1 |            1 |            1 |            1 |            2 |            3 |            1 |            2 |            3 |            2 |            2 |            4 |            5 |            4 |            4 |            6 |            4 |            4 |            8 |           10 |            9 |            8 |           12 |            9 |            8 |           19 |           21 |           19 |           18 |           26 |           18 |           18 |           38 |           45 |           38 |           38 |           54 |           39 |           38 |           94 |           95 |           81 |           82 |          116 |           82 |           80 |          166 |          197 |          168 |          169 |          238 |          172 |          168 |
sim_inst_rate                          749231.0000 |  749231.0000 |  749231.0000 |  749231.0000 |  749231.0000 |  749231.0000 |  749231.0000 | 1647644.0000 | 1647644.0000 | 1647644.0000 | 1647644.0000 | 1647644.0000 | 1647644.0000 | 1647644.0000 | 3525402.0000 | 3525402.0000 | 3525402.0000 | 3525402.0000 | 3525402.0000 | 3525402.0000 | 3525402.0000 | 7673849.0000 | 7673849.0000 | 7673849.0000 | 7673849.0000 | 7673849.0000 | 7673849.0000 | 7673849.0000 | 8130078.5000 | 5420052.3333 |16260157.0000 | 8130078.5000 | 5420052.3333 | 8130078.5000 | 8130078.5000 | 8749280.0000 | 6999424.0000 | 8749280.0000 | 8749280.0000 | 5832853.3333 | 8749280.0000 | 8749280.0000 | 9206892.0000 | 7365513.6000 | 8183904.0000 | 9206892.0000 | 6137928.0000 | 8183904.0000 | 9206892.0000 | 8277282.5789 | 7488969.9524 | 8277282.5789 | 8737131.6111 | 6048783.4231 | 8737131.6111 | 8737131.6111 | 8663452.1842 | 7315804.0667 | 8663452.1842 | 8663452.1842 | 6096503.3889 | 8441312.3846 | 8663452.1842 | 7428650.6596 | 7350454.3368 | 8620903.2346 | 8515770.2683 | 6019768.6379 | 8515770.2683 | 8728664.5250 | 8767259.1386 | 7387639.6802 | 8662887.0060 | 8611627.3195 | 6114979.0630 | 8461424.5174 | 8662887.0060 |
sim_num_branches                             94171 |        94171 |        94171 |        94171 |        94171 |        94171 |        94171 |       205056 |       205056 |       205056 |       205056 |       205056 |       205056 |       205056 |       441025 |       441025 |       441025 |       441025 |       441025 |       441025 |       441025 |       951837 |       951837 |       951837 |       951837 |       951837 |       951837 |       951837 |      2026185 |      2026185 |      2026185 |      2026185 |      2026185 |      2026185 |      2026185 |      4329512 |      4329512 |      4329512 |      4329512 |      4329512 |      4329512 |      4329512 |      9150096 |      9150096 |      9150096 |      9150096 |      9150096 |      9150096 |      9150096 |     19415573 |     19415573 |     19415573 |     19415573 |     19415573 |     19415573 |     19415573 |     40799013 |     40799013 |     40799013 |     40799013 |     40799013 |     40799013 |     40799013 |     86065447 |     86065447 |     86065447 |     86065447 |     86065447 |     86065447 |     86065447 |    180017052 |    180017052 |    180017052 |    180017052 |    180017052 |    180017052 |    180017052 |
sim_IPB                                     7.9561 |       7.9561 |       7.9561 |       7.9561 |       7.9561 |       7.9561 |       7.9561 |       8.0351 |       8.0351 |       8.0351 |       8.0351 |       8.0351 |       8.0351 |       8.0351 |       7.9937 |       7.9937 |       7.9937 |       7.9937 |       7.9937 |       7.9937 |       7.9937 |       8.0621 |       8.0621 |       8.0621 |       8.0621 |       8.0621 |       8.0621 |       8.0621 |       8.0250 |       8.0250 |       8.0250 |       8.0250 |       8.0250 |       8.0250 |       8.0250 |       8.0834 |       8.0834 |       8.0834 |       8.0834 |       8.0834 |       8.0834 |       8.0834 |       8.0497 |       8.0497 |       8.0497 |       8.0497 |       8.0497 |       8.0497 |       8.0497 |       8.1001 |       8.1001 |       8.1001 |       8.1001 |       8.1001 |       8.1001 |       8.1001 |       8.0691 |       8.0691 |       8.0691 |       8.0691 |       8.0691 |       8.0691 |       8.0691 |       8.1135 |       8.1135 |       8.1135 |       8.1135 |       8.1135 |       8.1135 |       8.1135 |       8.0846 |       8.0846 |       8.0846 |       8.0846 |       8.0846 |       8.0846 |       8.0846 |
bpred_bimod.lookups                          94171 |        94171 |        94171 |xxxxxxxxxxxxx |xxxxxxxxxxxxx |xxxxxxxxxxxxx |xxxxxxxxxxxxx |       205056 |       205056 |       205056 |xxxxxxxxxxxxx |xxxxxxxxxxxxx |xxxxxxxxxxxxx |xxxxxxxxxxxxx |       441025 |       441025 |       441025 |xxxxxxxxxxxxx |xxxxxxxxxxxxx |xxxxxxxxxxxxx |xxxxxxxxxxxxx |       951837 |       951837 |       951837 |xxxxxxxxxxxxx |xxxxxxxxxxxxx |xxxxxxxxxxxxx |xxxxxxxxxxxxx |      2026185 |      2026185 |      2026185 |xxxxxxxxxxxxx |xxxxxxxxxxxxx |xxxxxxxxxxxxx |xxxxxxxxxxxxx |      4329512 |      4329512 |      4329512 |xxxxxxxxxxxxx |xxxxxxxxxxxxx |xxxxxxxxxxxxx |xxxxxxxxxxxxx |      9150096 |      9150096 |      9150096 |xxxxxxxxxxxxx |xxxxxxxxxxxxx |xxxxxxxxxxxxx |xxxxxxxxxxxxx |     19415573 |     19415573 |     19415573 |xxxxxxxxxxxxx |xxxxxxxxxxxxx |xxxxxxxxxxxxx |xxxxxxxxxxxxx |     40799013 |     40799013 |     40799013 |xxxxxxxxxxxxx |xxxxxxxxxxxxx |xxxxxxxxxxxxx |xxxxxxxxxxxxx |     86065447 |     86065447 |     86065447 |xxxxxxxxxxxxx |xxxxxxxxxxxxx |xxxxxxxxxxxxx |xxxxxxxxxxxxx |    180017052 |    180017052 |    180017052 |
bpred_bimod.updates                          94171 |        94171 |        94171 |xxxxxxxxxxxxx |xxxxxxxxxxxxx |xxxxxxxxxxxxx |xxxxxxxxxxxxx |       205056 |       205056 |       205056 |xxxxxxxxxxxxx |xxxxxxxxxxxxx |xxxxxxxxxxxxx |xxxxxxxxxxxxx |       441025 |       441025 |       441025 |xxxxxxxxxxxxx |xxxxxxxxxxxxx |xxxxxxxxxxxxx |xxxxxxxxxxxxx |       951837 |       951837 |       951837 |xxxxxxxxxxxxx |xxxxxxxxxxxxx |xxxxxxxxxxxxx |xxxxxxxxxxxxx |      2026185 |      2026185 |      2026185 |xxxxxxxxxxxxx |xxxxxxxxxxxxx |xxxxxxxxxxxxx |xxxxxxxxxxxxx |      4329512 |      4329512 |      4329512 |xxxxxxxxxxxxx |xxxxxxxxxxxxx |xxxxxxxxxxxxx |xxxxxxxxxxxxx |      9150096 |      9150096 |      9150096 |xxxxxxxxxxxxx |xxxxxxxxxxxxx |xxxxxxxxxxxxx |xxxxxxxxxxxxx |     19415573 |     19415573 |     19415573 |xxxxxxxxxxxxx |xxxxxxxxxxxxx |xxxxxxxxxxxxx |xxxxxxxxxxxxx |     40799013 |     40799013 |     40799013 |xxxxxxxxxxxxx |xxxxxxxxxxxxx |xxxxxxxxxxxxx |xxxxxxxxxxxxx |     86065447 |     86065447 |     86065447 |xxxxxxxxxxxxx |xxxxxxxxxxxxx |xxxxxxxxxxxxx |xxxxxxxxxxxxx |    180017052 |    180017052 |    180017052 |
bpred_bimod.addr_hits                        68884 |        68887 |        68891 |xxxxxxxxxxxxx |xxxxxxxxxxxxx |xxxxxxxxxxxxx |xxxxxxxxxxxxx |       150360 |       150364 |       150370 |xxxxxxxxxxxxx |xxxxxxxxxxxxx |xxxxxxxxxxxxx |xxxxxxxxxxxxx |       323872 |       323876 |       323880 |xxxxxxxxxxxxx |xxxxxxxxxxxxx |xxxxxxxxxxxxx |xxxxxxxxxxxxx |       701871 |       701874 |       701879 |xxxxxxxxxxxxx |xxxxxxxxxxxxx |xxxxxxxxxxxxx |xxxxxxxxxxxxx |      1493612 |      1493614 |      1493619 |xxxxxxxxxxxxx |xxxxxxxxxxxxx |xxxxxxxxxxxxx |xxxxxxxxxxxxx |      3199394 |      3199397 |      3199401 |xxxxxxxxxxxxx |xxxxxxxxxxxxx |xxxxxxxxxxxxx |xxxxxxxxxxxxx |      6759758 |      6759760 |      6759765 |xxxxxxxxxxxxx |xxxxxxxxxxxxx |xxxxxxxxxxxxx |xxxxxxxxxxxxx |     14373461 |     14373464 |     14373468 |xxxxxxxxxxxxx |xxxxxxxxxxxxx |xxxxxxxxxxxxx |xxxxxxxxxxxxx |     30187518 |     30187521 |     30187525 |xxxxxxxxxxxxx |xxxxxxxxxxxxx |xxxxxxxxxxxxx |xxxxxxxxxxxxx |     63787511 |     63787514 |     63787517 |xxxxxxxxxxxxx |xxxxxxxxxxxxx |xxxxxxxxxxxxx |xxxxxxxxxxxxx |    133359555 |    133359558 |    133359562 |
bpred_bimod.dir_hits                         68998 |        69001 |        69004 |xxxxxxxxxxxxx |xxxxxxxxxxxxx |xxxxxxxxxxxxx |xxxxxxxxxxxxx |       150483 |       150486 |       150493 |xxxxxxxxxxxxx |xxxxxxxxxxxxx |xxxxxxxxxxxxx |xxxxxxxxxxxxx |       323992 |       323993 |       323996 |xxxxxxxxxxxxx |xxxxxxxxxxxxx |xxxxxxxxxxxxx |xxxxxxxxxxxxx |       701996 |       701997 |       702001 |xxxxxxxxxxxxx |xxxxxxxxxxxxx |xxxxxxxxxxxxx |xxxxxxxxxxxxx |      1493732 |      1493732 |      1493736 |xxxxxxxxxxxxx |xxxxxxxxxxxxx |xxxxxxxxxxxxx |xxxxxxxxxxxxx |      3199521 |      3199522 |      3199525 |xxxxxxxxxxxxx |xxxxxxxxxxxxx |xxxxxxxxxxxxx |xxxxxxxxxxxxx |      6759879 |      6759879 |      6759883 |xxxxxxxxxxxxx |xxxxxxxxxxxxx |xxxxxxxxxxxxx |xxxxxxxxxxxxx |     14373588 |     14373589 |     14373592 |xxxxxxxxxxxxx |xxxxxxxxxxxxx |xxxxxxxxxxxxx |xxxxxxxxxxxxx |     30187650 |     30187651 |     30187654 |xxxxxxxxxxxxx |xxxxxxxxxxxxx |xxxxxxxxxxxxx |xxxxxxxxxxxxx |     63787644 |     63787645 |     63787647 |xxxxxxxxxxxxx |xxxxxxxxxxxxx |xxxxxxxxxxxxx |xxxxxxxxxxxxx |    133359687 |    133359688 |    133359691 |
bpred_bimod.misses                           25173 |        25170 |        25167 |xxxxxxxxxxxxx |xxxxxxxxxxxxx |xxxxxxxxxxxxx |xxxxxxxxxxxxx |        54573 |        54570 |        54563 |xxxxxxxxxxxxx |xxxxxxxxxxxxx |xxxxxxxxxxxxx |xxxxxxxxxxxxx |       117033 |       117032 |       117029 |xxxxxxxxxxxxx |xxxxxxxxxxxxx |xxxxxxxxxxxxx |xxxxxxxxxxxxx |       249841 |       249840 |       249836 |xxxxxxxxxxxxx |xxxxxxxxxxxxx |xxxxxxxxxxxxx |xxxxxxxxxxxxx |       532453 |       532453 |       532449 |xxxxxxxxxxxxx |xxxxxxxxxxxxx |xxxxxxxxxxxxx |xxxxxxxxxxxxx |      1129991 |      1129990 |      1129987 |xxxxxxxxxxxxx |xxxxxxxxxxxxx |xxxxxxxxxxxxx |xxxxxxxxxxxxx |      2390217 |      2390217 |      2390213 |xxxxxxxxxxxxx |xxxxxxxxxxxxx |xxxxxxxxxxxxx |xxxxxxxxxxxxx |      5041985 |      5041984 |      5041981 |xxxxxxxxxxxxx |xxxxxxxxxxxxx |xxxxxxxxxxxxx |xxxxxxxxxxxxx |     10611363 |     10611362 |     10611359 |xxxxxxxxxxxxx |xxxxxxxxxxxxx |xxxxxxxxxxxxx |xxxxxxxxxxxxx |     22277803 |     22277802 |     22277800 |xxxxxxxxxxxxx |xxxxxxxxxxxxx |xxxxxxxxxxxxx |xxxxxxxxxxxxx |     46657365 |     46657364 |     46657361 |
bpred_bimod.jr_hits                             61 |           61 |           61 |xxxxxxxxxxxxx |xxxxxxxxxxxxx |xxxxxxxxxxxxx |xxxxxxxxxxxxx |           71 |           71 |           71 |xxxxxxxxxxxxx |xxxxxxxxxxxxx |xxxxxxxxxxxxx |xxxxxxxxxxxxx |           69 |           69 |           69 |xxxxxxxxxxxxx |xxxxxxxxxxxxx |xxxxxxxxxxxxx |xxxxxxxxxxxxx |           71 |           71 |           71 |xxxxxxxxxxxxx |xxxxxxxxxxxxx |xxxxxxxxxxxxx |xxxxxxxxxxxxx |           69 |           69 |           69 |xxxxxxxxxxxxx |xxxxxxxxxxxxx |xxxxxxxxxxxxx |xxxxxxxxxxxxx |           71 |           71 |           71 |xxxxxxxxxxxxx |xxxxxxxxxxxxx |xxxxxxxxxxxxx |xxxxxxxxxxxxx |           69 |           69 |           69 |xxxxxxxxxxxxx |xxxxxxxxxxxxx |xxxxxxxxxxxxx |xxxxxxxxxxxxx |           71 |           71 |           71 |xxxxxxxxxxxxx |xxxxxxxxxxxxx |xxxxxxxxxxxxx |xxxxxxxxxxxxx |           72 |           72 |           72 |xxxxxxxxxxxxx |xxxxxxxxxxxxx |xxxxxxxxxxxxx |xxxxxxxxxxxxx |           75 |           75 |           75 |xxxxxxxxxxxxx |xxxxxxxxxxxxx |xxxxxxxxxxxxx |xxxxxxxxxxxxx |           72 |           72 |           72 |
bpred_bimod.jr_seen                             61 |           61 |           61 |xxxxxxxxxxxxx |xxxxxxxxxxxxx |xxxxxxxxxxxxx |xxxxxxxxxxxxx |           73 |           73 |           73 |xxxxxxxxxxxxx |xxxxxxxxxxxxx |xxxxxxxxxxxxx |xxxxxxxxxxxxx |           70 |           70 |           70 |xxxxxxxxxxxxx |xxxxxxxxxxxxx |xxxxxxxxxxxxx |xxxxxxxxxxxxx |           73 |           73 |           73 |xxxxxxxxxxxxx |xxxxxxxxxxxxx |xxxxxxxxxxxxx |xxxxxxxxxxxxx |           70 |           70 |           70 |xxxxxxxxxxxxx |xxxxxxxxxxxxx |xxxxxxxxxxxxx |xxxxxxxxxxxxx |           73 |           73 |           73 |xxxxxxxxxxxxx |xxxxxxxxxxxxx |xxxxxxxxxxxxx |xxxxxxxxxxxxx |           70 |           70 |           70 |xxxxxxxxxxxxx |xxxxxxxxxxxxx |xxxxxxxxxxxxx |xxxxxxxxxxxxx |           73 |           73 |           73 |xxxxxxxxxxxxx |xxxxxxxxxxxxx |xxxxxxxxxxxxx |xxxxxxxxxxxxx |           73 |           73 |           73 |xxxxxxxxxxxxx |xxxxxxxxxxxxx |xxxxxxxxxxxxx |xxxxxxxxxxxxx |           76 |           76 |           76 |xxxxxxxxxxxxx |xxxxxxxxxxxxx |xxxxxxxxxxxxx |xxxxxxxxxxxxx |           73 |           73 |           73 |
bpred_bimod.jr_non_ras_hits.PP                   0 |            0 |            0 |xxxxxxxxxxxxx |xxxxxxxxxxxxx |xxxxxxxxxxxxx |xxxxxxxxxxxxx |            0 |            0 |            0 |xxxxxxxxxxxxx |xxxxxxxxxxxxx |xxxxxxxxxxxxx |xxxxxxxxxxxxx |            0 |            0 |            0 |xxxxxxxxxxxxx |xxxxxxxxxxxxx |xxxxxxxxxxxxx |xxxxxxxxxxxxx |            0 |            0 |            0 |xxxxxxxxxxxxx |xxxxxxxxxxxxx |xxxxxxxxxxxxx |xxxxxxxxxxxxx |            0 |            0 |            0 |xxxxxxxxxxxxx |xxxxxxxxxxxxx |xxxxxxxxxxxxx |xxxxxxxxxxxxx |            0 |            0 |            0 |xxxxxxxxxxxxx |xxxxxxxxxxxxx |xxxxxxxxxxxxx |xxxxxxxxxxxxx |            0 |            0 |            0 |xxxxxxxxxxxxx |xxxxxxxxxxxxx |xxxxxxxxxxxxx |xxxxxxxxxxxxx |            0 |            0 |            0 |xxxxxxxxxxxxx |xxxxxxxxxxxxx |xxxxxxxxxxxxx |xxxxxxxxxxxxx |            0 |            0 |            0 |xxxxxxxxxxxxx |xxxxxxxxxxxxx |xxxxxxxxxxxxx |xxxxxxxxxxxxx |            1 |            1 |            1 |xxxxxxxxxxxxx |xxxxxxxxxxxxx |xxxxxxxxxxxxx |xxxxxxxxxxxxx |            0 |            0 |            0 |
bpred_bimod.jr_non_ras_seen.PP                   0 |            0 |            0 |xxxxxxxxxxxxx |xxxxxxxxxxxxx |xxxxxxxxxxxxx |xxxxxxxxxxxxx |            1 |            1 |            1 |xxxxxxxxxxxxx |xxxxxxxxxxxxx |xxxxxxxxxxxxx |xxxxxxxxxxxxx |            0 |            0 |            0 |xxxxxxxxxxxxx |xxxxxxxxxxxxx |xxxxxxxxxxxxx |xxxxxxxxxxxxx |            1 |            1 |            1 |xxxxxxxxxxxxx |xxxxxxxxxxxxx |xxxxxxxxxxxxx |xxxxxxxxxxxxx |            0 |            0 |            0 |xxxxxxxxxxxxx |xxxxxxxxxxxxx |xxxxxxxxxxxxx |xxxxxxxxxxxxx |            1 |            1 |            1 |xxxxxxxxxxxxx |xxxxxxxxxxxxx |xxxxxxxxxxxxx |xxxxxxxxxxxxx |            0 |            0 |            0 |xxxxxxxxxxxxx |xxxxxxxxxxxxx |xxxxxxxxxxxxx |xxxxxxxxxxxxx |            1 |            1 |            1 |xxxxxxxxxxxxx |xxxxxxxxxxxxx |xxxxxxxxxxxxx |xxxxxxxxxxxxx |            1 |            1 |            1 |xxxxxxxxxxxxx |xxxxxxxxxxxxx |xxxxxxxxxxxxx |xxxxxxxxxxxxx |            2 |            2 |            2 |xxxxxxxxxxxxx |xxxxxxxxxxxxx |xxxxxxxxxxxxx |xxxxxxxxxxxxx |            1 |            1 |            1 |
bpred_bimod.bpred_addr_rate                 0.7315 |       0.7315 |       0.7316 |xxxxxxxxxxxxx |xxxxxxxxxxxxx |xxxxxxxxxxxxx |xxxxxxxxxxxxx |       0.7333 |       0.7333 |       0.7333 |xxxxxxxxxxxxx |xxxxxxxxxxxxx |xxxxxxxxxxxxx |xxxxxxxxxxxxx |       0.7344 |       0.7344 |       0.7344 |xxxxxxxxxxxxx |xxxxxxxxxxxxx |xxxxxxxxxxxxx |xxxxxxxxxxxxx |       0.7374 |       0.7374 |       0.7374 |xxxxxxxxxxxxx |xxxxxxxxxxxxx |xxxxxxxxxxxxx |xxxxxxxxxxxxx |       0.7372 |       0.7372 |       0.7372 |xxxxxxxxxxxxx |xxxxxxxxxxxxx |xxxxxxxxxxxxx |xxxxxxxxxxxxx |       0.7390 |       0.7390 |       0.7390 |xxxxxxxxxxxxx |xxxxxxxxxxxxx |xxxxxxxxxxxxx |xxxxxxxxxxxxx |       0.7388 |       0.7388 |       0.7388 |xxxxxxxxxxxxx |xxxxxxxxxxxxx |xxxxxxxxxxxxx |xxxxxxxxxxxxx |       0.7403 |       0.7403 |       0.7403 |xxxxxxxxxxxxx |xxxxxxxxxxxxx |xxxxxxxxxxxxx |xxxxxxxxxxxxx |       0.7399 |       0.7399 |       0.7399 |xxxxxxxxxxxxx |xxxxxxxxxxxxx |xxxxxxxxxxxxx |xxxxxxxxxxxxx |       0.7412 |       0.7412 |       0.7412 |xxxxxxxxxxxxx |xxxxxxxxxxxxx |xxxxxxxxxxxxx |xxxxxxxxxxxxx |       0.7408 |       0.7408 |       0.7408 |
bpred_bimod.bpred_dir_rate                  0.7327 |       0.7327 |       0.7328 |xxxxxxxxxxxxx |xxxxxxxxxxxxx |xxxxxxxxxxxxx |xxxxxxxxxxxxx |       0.7339 |       0.7339 |       0.7339 |xxxxxxxxxxxxx |xxxxxxxxxxxxx |xxxxxxxxxxxxx |xxxxxxxxxxxxx |       0.7346 |       0.7346 |       0.7346 |xxxxxxxxxxxxx |xxxxxxxxxxxxx |xxxxxxxxxxxxx |xxxxxxxxxxxxx |       0.7375 |       0.7375 |       0.7375 |xxxxxxxxxxxxx |xxxxxxxxxxxxx |xxxxxxxxxxxxx |xxxxxxxxxxxxx |       0.7372 |       0.7372 |       0.7372 |xxxxxxxxxxxxx |xxxxxxxxxxxxx |xxxxxxxxxxxxx |xxxxxxxxxxxxx |       0.7390 |       0.7390 |       0.7390 |xxxxxxxxxxxxx |xxxxxxxxxxxxx |xxxxxxxxxxxxx |xxxxxxxxxxxxx |       0.7388 |       0.7388 |       0.7388 |xxxxxxxxxxxxx |xxxxxxxxxxxxx |xxxxxxxxxxxxx |xxxxxxxxxxxxx |       0.7403 |       0.7403 |       0.7403 |xxxxxxxxxxxxx |xxxxxxxxxxxxx |xxxxxxxxxxxxx |xxxxxxxxxxxxx |       0.7399 |       0.7399 |       0.7399 |xxxxxxxxxxxxx |xxxxxxxxxxxxx |xxxxxxxxxxxxx |xxxxxxxxxxxxx |       0.7412 |       0.7412 |       0.7412 |xxxxxxxxxxxxx |xxxxxxxxxxxxx |xxxxxxxxxxxxx |xxxxxxxxxxxxx |       0.7408 |       0.7408 |       0.7408 |
bpred_bimod.bpred_jr_rate                   1.0000 |       1.0000 |       1.0000 |xxxxxxxxxxxxx |xxxxxxxxxxxxx |xxxxxxxxxxxxx |xxxxxxxxxxxxx |       0.9726 |       0.9726 |       0.9726 |xxxxxxxxxxxxx |xxxxxxxxxxxxx |xxxxxxxxxxxxx |xxxxxxxxxxxxx |       0.9857 |       0.9857 |       0.9857 |xxxxxxxxxxxxx |xxxxxxxxxxxxx |xxxxxxxxxxxxx |xxxxxxxxxxxxx |       0.9726 |       0.9726 |       0.9726 |xxxxxxxxxxxxx |xxxxxxxxxxxxx |xxxxxxxxxxxxx |xxxxxxxxxxxxx |       0.9857 |       0.9857 |       0.9857 |xxxxxxxxxxxxx |xxxxxxxxxxxxx |xxxxxxxxxxxxx |xxxxxxxxxxxxx |       0.9726 |       0.9726 |       0.9726 |xxxxxxxxxxxxx |xxxxxxxxxxxxx |xxxxxxxxxxxxx |xxxxxxxxxxxxx |       0.9857 |       0.9857 |       0.9857 |xxxxxxxxxxxxx |xxxxxxxxxxxxx |xxxxxxxxxxxxx |xxxxxxxxxxxxx |       0.9726 |       0.9726 |       0.9726 |xxxxxxxxxxxxx |xxxxxxxxxxxxx |xxxxxxxxxxxxx |xxxxxxxxxxxxx |       0.9863 |       0.9863 |       0.9863 |xxxxxxxxxxxxx |xxxxxxxxxxxxx |xxxxxxxxxxxxx |xxxxxxxxxxxxx |       0.9868 |       0.9868 |       0.9868 |xxxxxxxxxxxxx |xxxxxxxxxxxxx |xxxxxxxxxxxxx |xxxxxxxxxxxxx |       0.9863 |       0.9863 |       0.9863 |
bpred_bimod.bpred_jr_non_ras_rate.PP       <error: |      <error: |      <error: |xxxxxxxxxxxxx |xxxxxxxxxxxxx |xxxxxxxxxxxxx |xxxxxxxxxxxxx |       0.0000 |       0.0000 |       0.0000 |xxxxxxxxxxxxx |xxxxxxxxxxxxx |xxxxxxxxxxxxx |xxxxxxxxxxxxx |      <error: |      <error: |      <error: |xxxxxxxxxxxxx |xxxxxxxxxxxxx |xxxxxxxxxxxxx |xxxxxxxxxxxxx |       0.0000 |       0.0000 |       0.0000 |xxxxxxxxxxxxx |xxxxxxxxxxxxx |xxxxxxxxxxxxx |xxxxxxxxxxxxx |      <error: |      <error: |      <error: |xxxxxxxxxxxxx |xxxxxxxxxxxxx |xxxxxxxxxxxxx |xxxxxxxxxxxxx |       0.0000 |       0.0000 |       0.0000 |xxxxxxxxxxxxx |xxxxxxxxxxxxx |xxxxxxxxxxxxx |xxxxxxxxxxxxx |      <error: |      <error: |      <error: |xxxxxxxxxxxxx |xxxxxxxxxxxxx |xxxxxxxxxxxxx |xxxxxxxxxxxxx |       0.0000 |       0.0000 |       0.0000 |xxxxxxxxxxxxx |xxxxxxxxxxxxx |xxxxxxxxxxxxx |xxxxxxxxxxxxx |       0.0000 |       0.0000 |       0.0000 |xxxxxxxxxxxxx |xxxxxxxxxxxxx |xxxxxxxxxxxxx |xxxxxxxxxxxxx |       0.5000 |       0.5000 |       0.5000 |xxxxxxxxxxxxx |xxxxxxxxxxxxx |xxxxxxxxxxxxx |xxxxxxxxxxxxx |       0.0000 |       0.0000 |       0.0000 |
bpred_bimod.retstack_pushes                     63 |           63 |           63 |xxxxxxxxxxxxx |xxxxxxxxxxxxx |xxxxxxxxxxxxx |xxxxxxxxxxxxx |           74 |           74 |           74 |xxxxxxxxxxxxx |xxxxxxxxxxxxx |xxxxxxxxxxxxx |xxxxxxxxxxxxx |           72 |           72 |           72 |xxxxxxxxxxxxx |xxxxxxxxxxxxx |xxxxxxxxxxxxx |xxxxxxxxxxxxx |           74 |           74 |           74 |xxxxxxxxxxxxx |xxxxxxxxxxxxx |xxxxxxxxxxxxx |xxxxxxxxxxxxx |           72 |           72 |           72 |xxxxxxxxxxxxx |xxxxxxxxxxxxx |xxxxxxxxxxxxx |xxxxxxxxxxxxx |           74 |           74 |           74 |xxxxxxxxxxxxx |xxxxxxxxxxxxx |xxxxxxxxxxxxx |xxxxxxxxxxxxx |           72 |           72 |           72 |xxxxxxxxxxxxx |xxxxxxxxxxxxx |xxxxxxxxxxxxx |xxxxxxxxxxxxx |           74 |           74 |           74 |xxxxxxxxxxxxx |xxxxxxxxxxxxx |xxxxxxxxxxxxx |xxxxxxxxxxxxx |           74 |           74 |           74 |xxxxxxxxxxxxx |xxxxxxxxxxxxx |xxxxxxxxxxxxx |xxxxxxxxxxxxx |           76 |           76 |           76 |xxxxxxxxxxxxx |xxxxxxxxxxxxx |xxxxxxxxxxxxx |xxxxxxxxxxxxx |           74 |           74 |           74 |
bpred_bimod.retstack_pops                       61 |           61 |           61 |xxxxxxxxxxxxx |xxxxxxxxxxxxx |xxxxxxxxxxxxx |xxxxxxxxxxxxx |           72 |           72 |           72 |xxxxxxxxxxxxx |xxxxxxxxxxxxx |xxxxxxxxxxxxx |xxxxxxxxxxxxx |           70 |           70 |           70 |xxxxxxxxxxxxx |xxxxxxxxxxxxx |xxxxxxxxxxxxx |xxxxxxxxxxxxx |           72 |           72 |           72 |xxxxxxxxxxxxx |xxxxxxxxxxxxx |xxxxxxxxxxxxx |xxxxxxxxxxxxx |           70 |           70 |           70 |xxxxxxxxxxxxx |xxxxxxxxxxxxx |xxxxxxxxxxxxx |xxxxxxxxxxxxx |           72 |           72 |           72 |xxxxxxxxxxxxx |xxxxxxxxxxxxx |xxxxxxxxxxxxx |xxxxxxxxxxxxx |           70 |           70 |           70 |xxxxxxxxxxxxx |xxxxxxxxxxxxx |xxxxxxxxxxxxx |xxxxxxxxxxxxx |           72 |           72 |           72 |xxxxxxxxxxxxx |xxxxxxxxxxxxx |xxxxxxxxxxxxx |xxxxxxxxxxxxx |           72 |           72 |           72 |xxxxxxxxxxxxx |xxxxxxxxxxxxx |xxxxxxxxxxxxx |xxxxxxxxxxxxx |           74 |           74 |           74 |xxxxxxxxxxxxx |xxxxxxxxxxxxx |xxxxxxxxxxxxx |xxxxxxxxxxxxx |           72 |           72 |           72 |
bpred_bimod.used_ras.PP                         61 |           61 |           61 |xxxxxxxxxxxxx |xxxxxxxxxxxxx |xxxxxxxxxxxxx |xxxxxxxxxxxxx |           72 |           72 |           72 |xxxxxxxxxxxxx |xxxxxxxxxxxxx |xxxxxxxxxxxxx |xxxxxxxxxxxxx |           70 |           70 |           70 |xxxxxxxxxxxxx |xxxxxxxxxxxxx |xxxxxxxxxxxxx |xxxxxxxxxxxxx |           72 |           72 |           72 |xxxxxxxxxxxxx |xxxxxxxxxxxxx |xxxxxxxxxxxxx |xxxxxxxxxxxxx |           70 |           70 |           70 |xxxxxxxxxxxxx |xxxxxxxxxxxxx |xxxxxxxxxxxxx |xxxxxxxxxxxxx |           72 |           72 |           72 |xxxxxxxxxxxxx |xxxxxxxxxxxxx |xxxxxxxxxxxxx |xxxxxxxxxxxxx |           70 |           70 |           70 |xxxxxxxxxxxxx |xxxxxxxxxxxxx |xxxxxxxxxxxxx |xxxxxxxxxxxxx |           72 |           72 |           72 |xxxxxxxxxxxxx |xxxxxxxxxxxxx |xxxxxxxxxxxxx |xxxxxxxxxxxxx |           72 |           72 |           72 |xxxxxxxxxxxxx |xxxxxxxxxxxxx |xxxxxxxxxxxxx |xxxxxxxxxxxxx |           74 |           74 |           74 |xxxxxxxxxxxxx |xxxxxxxxxxxxx |xxxxxxxxxxxxx |xxxxxxxxxxxxx |           72 |           72 |           72 |
bpred_bimod.ras_hits.PP                         61 |           61 |           61 |xxxxxxxxxxxxx |xxxxxxxxxxxxx |xxxxxxxxxxxxx |xxxxxxxxxxxxx |           71 |           71 |           71 |xxxxxxxxxxxxx |xxxxxxxxxxxxx |xxxxxxxxxxxxx |xxxxxxxxxxxxx |           69 |           69 |           69 |xxxxxxxxxxxxx |xxxxxxxxxxxxx |xxxxxxxxxxxxx |xxxxxxxxxxxxx |           71 |           71 |           71 |xxxxxxxxxxxxx |xxxxxxxxxxxxx |xxxxxxxxxxxxx |xxxxxxxxxxxxx |           69 |           69 |           69 |xxxxxxxxxxxxx |xxxxxxxxxxxxx |xxxxxxxxxxxxx |xxxxxxxxxxxxx |           71 |           71 |           71 |xxxxxxxxxxxxx |xxxxxxxxxxxxx |xxxxxxxxxxxxx |xxxxxxxxxxxxx |           69 |           69 |           69 |xxxxxxxxxxxxx |xxxxxxxxxxxxx |xxxxxxxxxxxxx |xxxxxxxxxxxxx |           71 |           71 |           71 |xxxxxxxxxxxxx |xxxxxxxxxxxxx |xxxxxxxxxxxxx |xxxxxxxxxxxxx |           72 |           72 |           72 |xxxxxxxxxxxxx |xxxxxxxxxxxxx |xxxxxxxxxxxxx |xxxxxxxxxxxxx |           74 |           74 |           74 |xxxxxxxxxxxxx |xxxxxxxxxxxxx |xxxxxxxxxxxxx |xxxxxxxxxxxxx |           72 |           72 |           72 |
bpred_bimod.ras_rate.PP                     1.0000 |       1.0000 |       1.0000 |xxxxxxxxxxxxx |xxxxxxxxxxxxx |xxxxxxxxxxxxx |xxxxxxxxxxxxx |       0.9861 |       0.9861 |       0.9861 |xxxxxxxxxxxxx |xxxxxxxxxxxxx |xxxxxxxxxxxxx |xxxxxxxxxxxxx |       0.9857 |       0.9857 |       0.9857 |xxxxxxxxxxxxx |xxxxxxxxxxxxx |xxxxxxxxxxxxx |xxxxxxxxxxxxx |       0.9861 |       0.9861 |       0.9861 |xxxxxxxxxxxxx |xxxxxxxxxxxxx |xxxxxxxxxxxxx |xxxxxxxxxxxxx |       0.9857 |       0.9857 |       0.9857 |xxxxxxxxxxxxx |xxxxxxxxxxxxx |xxxxxxxxxxxxx |xxxxxxxxxxxxx |       0.9861 |       0.9861 |       0.9861 |xxxxxxxxxxxxx |xxxxxxxxxxxxx |xxxxxxxxxxxxx |xxxxxxxxxxxxx |       0.9857 |       0.9857 |       0.9857 |xxxxxxxxxxxxx |xxxxxxxxxxxxx |xxxxxxxxxxxxx |xxxxxxxxxxxxx |       0.9861 |       0.9861 |       0.9861 |xxxxxxxxxxxxx |xxxxxxxxxxxxx |xxxxxxxxxxxxx |xxxxxxxxxxxxx |       1.0000 |       1.0000 |       1.0000 |xxxxxxxxxxxxx |xxxxxxxxxxxxx |xxxxxxxxxxxxx |xxxxxxxxxxxxx |       1.0000 |       1.0000 |       1.0000 |xxxxxxxxxxxxx |xxxxxxxxxxxxx |xxxxxxxxxxxxx |xxxxxxxxxxxxx |       1.0000 |       1.0000 |       1.0000 |
bpred_2lev.lookups                   xxxxxxxxxxxxx |xxxxxxxxxxxxx |xxxxxxxxxxxxx |        94171 |        94171 |        94171 |        94171 |xxxxxxxxxxxxx |xxxxxxxxxxxxx |xxxxxxxxxxxxx |       205056 |       205056 |       205056 |       205056 |xxxxxxxxxxxxx |xxxxxxxxxxxxx |xxxxxxxxxxxxx |       441025 |       441025 |       441025 |       441025 |xxxxxxxxxxxxx |xxxxxxxxxxxxx |xxxxxxxxxxxxx |       951837 |       951837 |       951837 |       951837 |xxxxxxxxxxxxx |xxxxxxxxxxxxx |xxxxxxxxxxxxx |      2026185 |      2026185 |      2026185 |      2026185 |xxxxxxxxxxxxx |xxxxxxxxxxxxx |xxxxxxxxxxxxx |      4329512 |      4329512 |      4329512 |      4329512 |xxxxxxxxxxxxx |xxxxxxxxxxxxx |xxxxxxxxxxxxx |      9150096 |      9150096 |      9150096 |      9150096 |xxxxxxxxxxxxx |xxxxxxxxxxxxx |xxxxxxxxxxxxx |     19415573 |     19415573 |     19415573 |     19415573 |xxxxxxxxxxxxx |xxxxxxxxxxxxx |xxxxxxxxxxxxx |     40799013 |     40799013 |     40799013 |     40799013 |xxxxxxxxxxxxx |xxxxxxxxxxxxx |xxxxxxxxxxxxx |     86065447 |     86065447 |     86065447 |     86065447 |xxxxxxxxxxxxx |xxxxxxxxxxxxx |xxxxxxxxxxxxx |    180017052 |    180017052 |    180017052 |    180017052 |
[...]
bpred_2lev.retstack_pushes           xxxxxxxxxxxxx |xxxxxxxxxxxxx |xxxxxxxxxxxxx |           63 |           63 |           63 |           63 |xxxxxxxxxxxxx |xxxxxxxxxxxxx |xxxxxxxxxxxxx |           74 |           74 |           74 |           74 |xxxxxxxxxxxxx |xxxxxxxxxxxxx |xxxxxxxxxxxxx |           72 |           72 |           72 |           72 |xxxxxxxxxxxxx |xxxxxxxxxxxxx |xxxxxxxxxxxxx |           74 |           74 |           74 |           74 |xxxxxxxxxxxxx |xxxxxxxxxxxxx |xxxxxxxxxxxxx |           72 |           72 |           72 |           72 |xxxxxxxxxxxxx |xxxxxxxxxxxxx |xxxxxxxxxxxxx |           74 |           74 |           74 |           74 |xxxxxxxxxxxxx |xxxxxxxxxxxxx |xxxxxxxxxxxxx |           72 |           72 |           72 |           72 |xxxxxxxxxxxxx |xxxxxxxxxxxxx |xxxxxxxxxxxxx |           74 |           74 |           74 |           74 |xxxxxxxxxxxxx |xxxxxxxxxxxxx |xxxxxxxxxxxxx |           74 |           74 |           74 |           74 |xxxxxxxxxxxxx |xxxxxxxxxxxxx |xxxxxxxxxxxxx |           76 |           76 |           76 |           76 |xxxxxxxxxxxxx |xxxxxxxxxxxxx |xxxxxxxxxxxxx |           74 |           74 |           74 |           74 |
bpred_2lev.retstack_pops             xxxxxxxxxxxxx |xxxxxxxxxxxxx |xxxxxxxxxxxxx |           61 |           61 |           61 |           61 |xxxxxxxxxxxxx |xxxxxxxxxxxxx |xxxxxxxxxxxxx |           72 |           72 |           72 |           72 |xxxxxxxxxxxxx |xxxxxxxxxxxxx |xxxxxxxxxxxxx |           70 |           70 |           70 |           70 |xxxxxxxxxxxxx |xxxxxxxxxxxxx |xxxxxxxxxxxxx |           72 |           72 |           72 |           72 |xxxxxxxxxxxxx |xxxxxxxxxxxxx |xxxxxxxxxxxxx |           70 |           70 |           70 |           70 |xxxxxxxxxxxxx |xxxxxxxxxxxxx |xxxxxxxxxxxxx |           72 |           72 |           72 |           72 |xxxxxxxxxxxxx |xxxxxxxxxxxxx |xxxxxxxxxxxxx |           70 |           70 |           70 |           70 |xxxxxxxxxxxxx |xxxxxxxxxxxxx |xxxxxxxxxxxxx |           72 |           72 |           72 |           72 |xxxxxxxxxxxxx |xxxxxxxxxxxxx |xxxxxxxxxxxxx |           72 |           72 |           72 |           72 |xxxxxxxxxxxxx |xxxxxxxxxxxxx |xxxxxxxxxxxxx |           74 |           74 |           74 |           74 |xxxxxxxxxxxxx |xxxxxxxxxxxxx |xxxxxxxxxxxxx |           72 |           72 |           72 |           72 |
bpred_2lev.used_ras.PP               xxxxxxxxxxxxx |xxxxxxxxxxxxx |xxxxxxxxxxxxx |           61 |           61 |           61 |           61 |xxxxxxxxxxxxx |xxxxxxxxxxxxx |xxxxxxxxxxxxx |           72 |           72 |           72 |           72 |xxxxxxxxxxxxx |xxxxxxxxxxxxx |xxxxxxxxxxxxx |           70 |           70 |           70 |           70 |xxxxxxxxxxxxx |xxxxxxxxxxxxx |xxxxxxxxxxxxx |           72 |           72 |           72 |           72 |xxxxxxxxxxxxx |xxxxxxxxxxxxx |xxxxxxxxxxxxx |           70 |           70 |           70 |           70 |xxxxxxxxxxxxx |xxxxxxxxxxxxx |xxxxxxxxxxxxx |           72 |           72 |           72 |           72 |xxxxxxxxxxxxx |xxxxxxxxxxxxx |xxxxxxxxxxxxx |           70 |           70 |           70 |           70 |xxxxxxxxxxxxx |xxxxxxxxxxxxx |xxxxxxxxxxxxx |           72 |           72 |           72 |           72 |xxxxxxxxxxxxx |xxxxxxxxxxxxx |xxxxxxxxxxxxx |           72 |           72 |           72 |           72 |xxxxxxxxxxxxx |xxxxxxxxxxxxx |xxxxxxxxxxxxx |           74 |           74 |           74 |           74 |xxxxxxxxxxxxx |xxxxxxxxxxxxx |xxxxxxxxxxxxx |           72 |           72 |           72 |           72 |
bpred_2lev.ras_hits.PP               xxxxxxxxxxxxx |xxxxxxxxxxxxx |xxxxxxxxxxxxx |           61 |           61 |           61 |           61 |xxxxxxxxxxxxx |xxxxxxxxxxxxx |xxxxxxxxxxxxx |           71 |           71 |           71 |           71 |xxxxxxxxxxxxx |xxxxxxxxxxxxx |xxxxxxxxxxxxx |           69 |           69 |           69 |           69 |xxxxxxxxxxxxx |xxxxxxxxxxxxx |xxxxxxxxxxxxx |           71 |           71 |           71 |           71 |xxxxxxxxxxxxx |xxxxxxxxxxxxx |xxxxxxxxxxxxx |           69 |           69 |           69 |           69 |xxxxxxxxxxxxx |xxxxxxxxxxxxx |xxxxxxxxxxxxx |           71 |           71 |           71 |           71 |xxxxxxxxxxxxx |xxxxxxxxxxxxx |xxxxxxxxxxxxx |           69 |           69 |           69 |           69 |xxxxxxxxxxxxx |xxxxxxxxxxxxx |xxxxxxxxxxxxx |           71 |           71 |           71 |           71 |xxxxxxxxxxxxx |xxxxxxxxxxxxx |xxxxxxxxxxxxx |           72 |           72 |           72 |           72 |xxxxxxxxxxxxx |xxxxxxxxxxxxx |xxxxxxxxxxxxx |           74 |           74 |           74 |           74 |xxxxxxxxxxxxx |xxxxxxxxxxxxx |xxxxxxxxxxxxx |           72 |           72 |           72 |           72 |
bpred_2lev.ras_rate.PP               xxxxxxxxxxxxx |xxxxxxxxxxxxx |xxxxxxxxxxxxx |       1.0000 |       1.0000 |       1.0000 |       1.0000 |xxxxxxxxxxxxx |xxxxxxxxxxxxx |xxxxxxxxxxxxx |       0.9861 |       0.9861 |       0.9861 |       0.9861 |xxxxxxxxxxxxx |xxxxxxxxxxxxx |xxxxxxxxxxxxx |       0.9857 |       0.9857 |       0.9857 |       0.9857 |xxxxxxxxxxxxx |xxxxxxxxxxxxx |xxxxxxxxxxxxx |       0.9861 |       0.9861 |       0.9861 |       0.9861 |xxxxxxxxxxxxx |xxxxxxxxxxxxx |xxxxxxxxxxxxx |       0.9857 |       0.9857 |       0.9857 |       0.9857 |xxxxxxxxxxxxx |xxxxxxxxxxxxx |xxxxxxxxxxxxx |       0.9861 |       0.9861 |       0.9861 |       0.9861 |xxxxxxxxxxxxx |xxxxxxxxxxxxx |xxxxxxxxxxxxx |       0.9857 |       0.9857 |       0.9857 |       0.9857 |xxxxxxxxxxxxx |xxxxxxxxxxxxx |xxxxxxxxxxxxx |       0.9861 |       0.9861 |       0.9861 |       0.9861 |xxxxxxxxxxxxx |xxxxxxxxxxxxx |xxxxxxxxxxxxx |       1.0000 |       1.0000 |       1.0000 |       1.0000 |xxxxxxxxxxxxx |xxxxxxxxxxxxx |xxxxxxxxxxxxx |       1.0000 |       1.0000 |       1.0000 |       1.0000 |xxxxxxxxxxxxx |xxxxxxxxxxxxx |xxxxxxxxxxxxx |       1.0000 |       1.0000 |       1.0000 |       1.0000 |

Command list: 
	sslittle-na-sstrix-gcc -Wall -O3 -funroll-loops -finline-functions  -DRANDOM_SIZE=4096 -DOFFSET=5 -DSORT=base_mergesort sorts/base_mergesort820053100.c simpleMain.c -o base_mergesort589255654
	sim-cache -cache:dl1 dl1:256:32:1:l -cache:dl2 dl2:131072:32:1:l -cache:il1 il1:256:32:1:l -cache:il2 dl2 base_mergesort589255654
	sim-cache -cache:dl1 dl1:256:32:1:l -cache:dl2 dl2:65536:32:1:l -cache:il1 il1:256:32:1:l -cache:il2 dl2 base_mergesort589255654
	sim-cache -cache:dl1 dl1:1:32:256:l -cache:dl2 dl2:1:32:131072:l -cache:il1 il1:1:32:256:l -cache:il2 dl2 base_mergesort589255654
	sim-cache -cache:dl1 dl1:1:32:256:l -cache:dl2 dl2:1:32:65536:l -cache:il1 il1:1:32:256:l -cache:il2 dl2 base_mergesort589255654
	sim-bpred -bpred bimod -bpred:bimod 512 base_mergesort589255654
	sim-bpred -bpred bimod -bpred:bimod 1024 base_mergesort589255654
	sim-bpred -bpred bimod -bpred:bimod 2048 base_mergesort589255654
	sim-bpred -bpred 2lev -bpred:2lev 1 512 10 1 base_mergesort589255654
	sim-bpred -bpred 2lev -bpred:2lev 1 1024 10 1 base_mergesort589255654
	sim-bpred -bpred 2lev -bpred:2lev 1 2048 10 1 base_mergesort589255654
	sim-bpred -bpred 2lev -bpred:2lev 1 4096 10 1 base_mergesort589255654
	sslittle-na-sstrix-gcc -Wall -O3 -funroll-loops -finline-functions  -DRANDOM_SIZE=8192 -DOFFSET=5 -DSORT=base_mergesort sorts/base_mergesort820053100.c simpleMain.c -o base_mergesort589255654
	sim-cache -cache:dl1 dl1:256:32:1:l -cache:dl2 dl2:131072:32:1:l -cache:il1 il1:256:32:1:l -cache:il2 dl2 base_mergesort589255654
	sim-cache -cache:dl1 dl1:256:32:1:l -cache:dl2 dl2:65536:32:1:l -cache:il1 il1:256:32:1:l -cache:il2 dl2 base_mergesort589255654
	sim-cache -cache:dl1 dl1:1:32:256:l -cache:dl2 dl2:1:32:131072:l -cache:il1 il1:1:32:256:l -cache:il2 dl2 base_mergesort589255654
	sim-cache -cache:dl1 dl1:1:32:256:l -cache:dl2 dl2:1:32:65536:l -cache:il1 il1:1:32:256:l -cache:il2 dl2 base_mergesort589255654
	sim-bpred -bpred bimod -bpred:bimod 512 base_mergesort589255654
	sim-bpred -bpred bimod -bpred:bimod 1024 base_mergesort589255654
	sim-bpred -bpred bimod -bpred:bimod 2048 base_mergesort589255654
	sim-bpred -bpred 2lev -bpred:2lev 1 512 10 1 base_mergesort589255654
	sim-bpred -bpred 2lev -bpred:2lev 1 1024 10 1 base_mergesort589255654
	sim-bpred -bpred 2lev -bpred:2lev 1 2048 10 1 base_mergesort589255654
	sim-bpred -bpred 2lev -bpred:2lev 1 4096 10 1 base_mergesort589255654
	sslittle-na-sstrix-gcc -Wall -O3 -funroll-loops -finline-functions  -DRANDOM_SIZE=16384 -DOFFSET=5 -DSORT=base_mergesort sorts/base_mergesort820053100.c simpleMain.c -o base_mergesort589255654
	sim-cache -cache:dl1 dl1:256:32:1:l -cache:dl2 dl2:131072:32:1:l -cache:il1 il1:256:32:1:l -cache:il2 dl2 base_mergesort589255654
	sim-cache -cache:dl1 dl1:256:32:1:l -cache:dl2 dl2:65536:32:1:l -cache:il1 il1:256:32:1:l -cache:il2 dl2 base_mergesort589255654
	sim-cache -cache:dl1 dl1:1:32:256:l -cache:dl2 dl2:1:32:131072:l -cache:il1 il1:1:32:256:l -cache:il2 dl2 base_mergesort589255654
	sim-cache -cache:dl1 dl1:1:32:256:l -cache:dl2 dl2:1:32:65536:l -cache:il1 il1:1:32:256:l -cache:il2 dl2 base_mergesort589255654
	sim-bpred -bpred bimod -bpred:bimod 512 base_mergesort589255654
	sim-bpred -bpred bimod -bpred:bimod 1024 base_mergesort589255654
	sim-bpred -bpred bimod -bpred:bimod 2048 base_mergesort589255654
	sim-bpred -bpred 2lev -bpred:2lev 1 512 10 1 base_mergesort589255654
	sim-bpred -bpred 2lev -bpred:2lev 1 1024 10 1 base_mergesort589255654
	sim-bpred -bpred 2lev -bpred:2lev 1 2048 10 1 base_mergesort589255654
	sim-bpred -bpred 2lev -bpred:2lev 1 4096 10 1 base_mergesort589255654
	sslittle-na-sstrix-gcc -Wall -O3 -funroll-loops -finline-functions  -DRANDOM_SIZE=32768 -DOFFSET=5 -DSORT=base_mergesort sorts/base_mergesort820053100.c simpleMain.c -o base_mergesort589255654
	sim-cache -cache:dl1 dl1:256:32:1:l -cache:dl2 dl2:131072:32:1:l -cache:il1 il1:256:32:1:l -cache:il2 dl2 base_mergesort589255654
	sim-cache -cache:dl1 dl1:256:32:1:l -cache:dl2 dl2:65536:32:1:l -cache:il1 il1:256:32:1:l -cache:il2 dl2 base_mergesort589255654
	sim-cache -cache:dl1 dl1:1:32:256:l -cache:dl2 dl2:1:32:131072:l -cache:il1 il1:1:32:256:l -cache:il2 dl2 base_mergesort589255654
	sim-cache -cache:dl1 dl1:1:32:256:l -cache:dl2 dl2:1:32:65536:l -cache:il1 il1:1:32:256:l -cache:il2 dl2 base_mergesort589255654
	sim-bpred -bpred bimod -bpred:bimod 512 base_mergesort589255654
	sim-bpred -bpred bimod -bpred:bimod 1024 base_mergesort589255654
	sim-bpred -bpred bimod -bpred:bimod 2048 base_mergesort589255654
	sim-bpred -bpred 2lev -bpred:2lev 1 512 10 1 base_mergesort589255654
	sim-bpred -bpred 2lev -bpred:2lev 1 1024 10 1 base_mergesort589255654
	sim-bpred -bpred 2lev -bpred:2lev 1 2048 10 1 base_mergesort589255654
	sim-bpred -bpred 2lev -bpred:2lev 1 4096 10 1 base_mergesort589255654
	sslittle-na-sstrix-gcc -Wall -O3 -funroll-loops -finline-functions  -DRANDOM_SIZE=65536 -DOFFSET=5 -DSORT=base_mergesort sorts/base_mergesort820053100.c simpleMain.c -o base_mergesort589255654
	sim-cache -cache:dl1 dl1:256:32:1:l -cache:dl2 dl2:131072:32:1:l -cache:il1 il1:256:32:1:l -cache:il2 dl2 base_mergesort589255654
	sim-cache -cache:dl1 dl1:256:32:1:l -cache:dl2 dl2:65536:32:1:l -cache:il1 il1:256:32:1:l -cache:il2 dl2 base_mergesort589255654
	sim-cache -cache:dl1 dl1:1:32:256:l -cache:dl2 dl2:1:32:131072:l -cache:il1 il1:1:32:256:l -cache:il2 dl2 base_mergesort589255654
	sim-cache -cache:dl1 dl1:1:32:256:l -cache:dl2 dl2:1:32:65536:l -cache:il1 il1:1:32:256:l -cache:il2 dl2 base_mergesort589255654
	sim-bpred -bpred bimod -bpred:bimod 512 base_mergesort589255654
	sim-bpred -bpred bimod -bpred:bimod 1024 base_mergesort589255654
	sim-bpred -bpred bimod -bpred:bimod 2048 base_mergesort589255654
	sim-bpred -bpred 2lev -bpred:2lev 1 512 10 1 base_mergesort589255654
	sim-bpred -bpred 2lev -bpred:2lev 1 1024 10 1 base_mergesort589255654
	sim-bpred -bpred 2lev -bpred:2lev 1 2048 10 1 base_mergesort589255654
	sim-bpred -bpred 2lev -bpred:2lev 1 4096 10 1 base_mergesort589255654
	sslittle-na-sstrix-gcc -Wall -O3 -funroll-loops -finline-functions  -DRANDOM_SIZE=131072 -DOFFSET=5 -DSORT=base_mergesort sorts/base_mergesort820053100.c simpleMain.c -o base_mergesort589255654
	sim-cache -cache:dl1 dl1:256:32:1:l -cache:dl2 dl2:131072:32:1:l -cache:il1 il1:256:32:1:l -cache:il2 dl2 base_mergesort589255654
	sim-cache -cache:dl1 dl1:256:32:1:l -cache:dl2 dl2:65536:32:1:l -cache:il1 il1:256:32:1:l -cache:il2 dl2 base_mergesort589255654
	sim-cache -cache:dl1 dl1:1:32:256:l -cache:dl2 dl2:1:32:131072:l -cache:il1 il1:1:32:256:l -cache:il2 dl2 base_mergesort589255654
	sim-cache -cache:dl1 dl1:1:32:256:l -cache:dl2 dl2:1:32:65536:l -cache:il1 il1:1:32:256:l -cache:il2 dl2 base_mergesort589255654
	sim-bpred -bpred bimod -bpred:bimod 512 base_mergesort589255654
	sim-bpred -bpred bimod -bpred:bimod 1024 base_mergesort589255654
	sim-bpred -bpred bimod -bpred:bimod 2048 base_mergesort589255654
	sim-bpred -bpred 2lev -bpred:2lev 1 512 10 1 base_mergesort589255654
	sim-bpred -bpred 2lev -bpred:2lev 1 1024 10 1 base_mergesort589255654
	sim-bpred -bpred 2lev -bpred:2lev 1 2048 10 1 base_mergesort589255654
	sim-bpred -bpred 2lev -bpred:2lev 1 4096 10 1 base_mergesort589255654
	sslittle-na-sstrix-gcc -Wall -O3 -funroll-loops -finline-functions  -DRANDOM_SIZE=262144 -DOFFSET=5 -DSORT=base_mergesort sorts/base_mergesort820053100.c simpleMain.c -o base_mergesort589255654
	sim-cache -cache:dl1 dl1:256:32:1:l -cache:dl2 dl2:131072:32:1:l -cache:il1 il1:256:32:1:l -cache:il2 dl2 base_mergesort589255654
	sim-cache -cache:dl1 dl1:256:32:1:l -cache:dl2 dl2:65536:32:1:l -cache:il1 il1:256:32:1:l -cache:il2 dl2 base_mergesort589255654
	sim-cache -cache:dl1 dl1:1:32:256:l -cache:dl2 dl2:1:32:131072:l -cache:il1 il1:1:32:256:l -cache:il2 dl2 base_mergesort589255654
	sim-cache -cache:dl1 dl1:1:32:256:l -cache:dl2 dl2:1:32:65536:l -cache:il1 il1:1:32:256:l -cache:il2 dl2 base_mergesort589255654
	sim-bpred -bpred bimod -bpred:bimod 512 base_mergesort589255654
	sim-bpred -bpred bimod -bpred:bimod 1024 base_mergesort589255654
	sim-bpred -bpred bimod -bpred:bimod 2048 base_mergesort589255654
	sim-bpred -bpred 2lev -bpred:2lev 1 512 10 1 base_mergesort589255654
	sim-bpred -bpred 2lev -bpred:2lev 1 1024 10 1 base_mergesort589255654
	sim-bpred -bpred 2lev -bpred:2lev 1 2048 10 1 base_mergesort589255654
	sim-bpred -bpred 2lev -bpred:2lev 1 4096 10 1 base_mergesort589255654
	sslittle-na-sstrix-gcc -Wall -O3 -funroll-loops -finline-functions  -DRANDOM_SIZE=524288 -DOFFSET=5 -DSORT=base_mergesort sorts/base_mergesort820053100.c simpleMain.c -o base_mergesort589255654
	sim-cache -cache:dl1 dl1:256:32:1:l -cache:dl2 dl2:131072:32:1:l -cache:il1 il1:256:32:1:l -cache:il2 dl2 base_mergesort589255654
	sim-cache -cache:dl1 dl1:256:32:1:l -cache:dl2 dl2:65536:32:1:l -cache:il1 il1:256:32:1:l -cache:il2 dl2 base_mergesort589255654
	sim-cache -cache:dl1 dl1:1:32:256:l -cache:dl2 dl2:1:32:131072:l -cache:il1 il1:1:32:256:l -cache:il2 dl2 base_mergesort589255654
	sim-cache -cache:dl1 dl1:1:32:256:l -cache:dl2 dl2:1:32:65536:l -cache:il1 il1:1:32:256:l -cache:il2 dl2 base_mergesort589255654
	sim-bpred -bpred bimod -bpred:bimod 512 base_mergesort589255654
	sim-bpred -bpred bimod -bpred:bimod 1024 base_mergesort589255654
	sim-bpred -bpred bimod -bpred:bimod 2048 base_mergesort589255654
	sim-bpred -bpred 2lev -bpred:2lev 1 512 10 1 base_mergesort589255654
	sim-bpred -bpred 2lev -bpred:2lev 1 1024 10 1 base_mergesort589255654
	sim-bpred -bpred 2lev -bpred:2lev 1 2048 10 1 base_mergesort589255654
	sim-bpred -bpred 2lev -bpred:2lev 1 4096 10 1 base_mergesort589255654
	sslittle-na-sstrix-gcc -Wall -O3 -funroll-loops -finline-functions  -DRANDOM_SIZE=1048576 -DOFFSET=5 -DSORT=base_mergesort sorts/base_mergesort820053100.c simpleMain.c -o base_mergesort589255654
	sim-cache -cache:dl1 dl1:256:32:1:l -cache:dl2 dl2:131072:32:1:l -cache:il1 il1:256:32:1:l -cache:il2 dl2 base_mergesort589255654
	sim-cache -cache:dl1 dl1:256:32:1:l -cache:dl2 dl2:65536:32:1:l -cache:il1 il1:256:32:1:l -cache:il2 dl2 base_mergesort589255654
	sim-cache -cache:dl1 dl1:1:32:256:l -cache:dl2 dl2:1:32:131072:l -cache:il1 il1:1:32:256:l -cache:il2 dl2 base_mergesort589255654
	sim-cache -cache:dl1 dl1:1:32:256:l -cache:dl2 dl2:1:32:65536:l -cache:il1 il1:1:32:256:l -cache:il2 dl2 base_mergesort589255654
	sim-bpred -bpred bimod -bpred:bimod 512 base_mergesort589255654
	sim-bpred -bpred bimod -bpred:bimod 1024 base_mergesort589255654
	sim-bpred -bpred bimod -bpred:bimod 2048 base_mergesort589255654
	sim-bpred -bpred 2lev -bpred:2lev 1 512 10 1 base_mergesort589255654
	sim-bpred -bpred 2lev -bpred:2lev 1 1024 10 1 base_mergesort589255654
	sim-bpred -bpred 2lev -bpred:2lev 1 2048 10 1 base_mergesort589255654
	sim-bpred -bpred 2lev -bpred:2lev 1 4096 10 1 base_mergesort589255654
	sslittle-na-sstrix-gcc -Wall -O3 -funroll-loops -finline-functions  -DRANDOM_SIZE=2097152 -DOFFSET=5 -DSORT=base_mergesort sorts/base_mergesort820053100.c simpleMain.c -o base_mergesort589255654
	sim-cache -cache:dl1 dl1:256:32:1:l -cache:dl2 dl2:131072:32:1:l -cache:il1 il1:256:32:1:l -cache:il2 dl2 base_mergesort589255654
	sim-cache -cache:dl1 dl1:256:32:1:l -cache:dl2 dl2:65536:32:1:l -cache:il1 il1:256:32:1:l -cache:il2 dl2 base_mergesort589255654
	sim-cache -cache:dl1 dl1:1:32:256:l -cache:dl2 dl2:1:32:131072:l -cache:il1 il1:1:32:256:l -cache:il2 dl2 base_mergesort589255654
	sim-cache -cache:dl1 dl1:1:32:256:l -cache:dl2 dl2:1:32:65536:l -cache:il1 il1:1:32:256:l -cache:il2 dl2 base_mergesort589255654
	sim-bpred -bpred bimod -bpred:bimod 512 base_mergesort589255654
	sim-bpred -bpred bimod -bpred:bimod 1024 base_mergesort589255654
	sim-bpred -bpred bimod -bpred:bimod 2048 base_mergesort589255654
	sim-bpred -bpred 2lev -bpred:2lev 1 512 10 1 base_mergesort589255654
	sim-bpred -bpred 2lev -bpred:2lev 1 1024 10 1 base_mergesort589255654
	sim-bpred -bpred 2lev -bpred:2lev 1 2048 10 1 base_mergesort589255654
	sim-bpred -bpred 2lev -bpred:2lev 1 4096 10 1 base_mergesort589255654
	sslittle-na-sstrix-gcc -Wall -O3 -funroll-loops -finline-functions  -DRANDOM_SIZE=4194304 -DOFFSET=5 -DSORT=base_mergesort sorts/base_mergesort820053100.c simpleMain.c -o base_mergesort589255654
	sim-cache -cache:dl1 dl1:256:32:1:l -cache:dl2 dl2:131072:32:1:l -cache:il1 il1:256:32:1:l -cache:il2 dl2 base_mergesort589255654
	sim-cache -cache:dl1 dl1:256:32:1:l -cache:dl2 dl2:65536:32:1:l -cache:il1 il1:256:32:1:l -cache:il2 dl2 base_mergesort589255654
	sim-cache -cache:dl1 dl1:1:32:256:l -cache:dl2 dl2:1:32:131072:l -cache:il1 il1:1:32:256:l -cache:il2 dl2 base_mergesort589255654
	sim-cache -cache:dl1 dl1:1:32:256:l -cache:dl2 dl2:1:32:65536:l -cache:il1 il1:1:32:256:l -cache:il2 dl2 base_mergesort589255654
	sim-bpred -bpred bimod -bpred:bimod 512 base_mergesort589255654
	sim-bpred -bpred bimod -bpred:bimod 1024 base_mergesort589255654
	sim-bpred -bpred bimod -bpred:bimod 2048 base_mergesort589255654
	sim-bpred -bpred 2lev -bpred:2lev 1 512 10 1 base_mergesort589255654
	sim-bpred -bpred 2lev -bpred:2lev 1 1024 10 1 base_mergesort589255654
	sim-bpred -bpred 2lev -bpred:2lev 1 2048 10 1 base_mergesort589255654
	sim-bpred -bpred 2lev -bpred:2lev 1 4096 10 1 base_mergesort589255654
