Wed Jul  6 23:40:40 2005
Run as: "./do_simple -c random.org4 -o 4 base_mergesort"
-------------------------------------------------------------------------------------------------
sim-cache                                     4096 |         4096 |         4096 |         4096 |         8192 |         8192 |         8192 |         8192 |        16384 |        16384 |        16384 |        16384 |        32768 |        32768 |        32768 |        32768 |        65536 |        65536 |        65536 |        65536 |       131072 |       131072 |       131072 |       131072 |       262144 |       262144 |       262144 |       262144 |       524288 |       524288 |       524288 |       524288 |      1048576 |      1048576 |      1048576 |      1048576 |      2097152 |      2097152 |      2097152 |      2097152 |      4194304 |      4194304 |      4194304 |      4194304 |
-cache:dl1 dl1:256:32:1:l -cache:dl2 dl2:131072:32:1:l -cache:il1 il1:256:32:1:l -cache:il2 dl2
-cache:dl1 dl1:256:32:1:l -cache:dl2 dl2:65536:32:1:l -cache:il1 il1:256:32:1:l -cache:il2 dl2
-cache:dl1 dl1:1:32:256:l -cache:dl2 dl2:1:32:131072:l -cache:il1 il1:1:32:256:l -cache:il2 dl2
-cache:dl1 dl1:1:32:256:l -cache:dl2 dl2:1:32:65536:l -cache:il1 il1:1:32:256:l -cache:il2 dl2
-------------------------------------------------------------------------------------------------
sim_num_insn                                754270 |       754270 |       754270 |       754270 |      1654425 |      1654425 |      1654425 |      1654425 |      3531447 |      3531447 |      3531447 |      3531447 |      7672238 |      7672238 |      7672238 |      7672238 |     16254283 |     16254283 |     16254283 |     16254283 |     35005983 |     35005983 |     35005983 |     35005983 |     73678050 |     73678050 |     73678050 |     73678050 |    157299681 |    157299681 |    157299681 |    157299681 |    329276740 |    329276740 |    329276740 |    329276740 |    698355648 |    698355648 |    698355648 |    698355648 |   1455358501 |   1455358501 |   1455358501 |   1455358501 |
sim_num_refs                                206248 |       206248 |       206248 |       206248 |       461311 |       461311 |       461311 |       461311 |       959818 |       959818 |       959818 |       959818 |      2127365 |      2127365 |      2127365 |      2127365 |      4414066 |      4414066 |      4414066 |      4414066 |      9679137 |      9679137 |      9679137 |      9679137 |     20010478 |     20010478 |     20010478 |     20010478 |     43421515 |     43421515 |     43421515 |     43421515 |     89463980 |     89463980 |     89463980 |     89463980 |    192544253 |    192544253 |    192544253 |    192544253 |    395550310 |    395550310 |    395550310 |    395550310 |
sim_elapsed_time                                 1 |            1 |           10 |            5 |            1 |            1 |           16 |            8 |            1 |            1 |           27 |           13 |            2 |            2 |           49 |           24 |            4 |            5 |           90 |           45 |            9 |           10 |          167 |           78 |           20 |           20 |          286 |          109 |           43 |           44 |          395 |          136 |           90 |           91 |          449 |          189 |          192 |          192 |          568 |          308 |          399 |          401 |          806 |          545 |
sim_inst_rate                          754270.0000 |  754270.0000 |   75427.0000 |  150854.0000 | 1654425.0000 | 1654425.0000 |  103401.5625 |  206803.1250 | 3531447.0000 | 3531447.0000 |  130794.3333 |  271649.7692 | 3836119.0000 | 3836119.0000 |  156576.2857 |  319676.5833 | 4063570.7500 | 3250856.6000 |  180603.1444 |  361206.2889 | 3889553.6667 | 3500598.3000 |  209616.6647 |  448794.6538 | 3683902.5000 | 3683902.5000 |  257615.5594 |  675945.4128 | 3658132.1163 | 3574992.7500 |  398227.0405 | 1156615.3015 | 3658630.4444 | 3618425.7143 |  733355.7684 | 1742204.9735 | 3637269.0000 | 3637269.0000 | 1229499.3803 | 2267388.4675 | 3647515.0401 | 3629322.9451 | 1805655.7084 | 2670382.5706 |
il1.accesses                                754270 |       754270 |       754270 |       754270 |      1654425 |      1654425 |      1654425 |      1654425 |      3531447 |      3531447 |      3531447 |      3531447 |      7672238 |      7672238 |      7672238 |      7672238 |     16254283 |     16254283 |     16254283 |     16254283 |     35005983 |     35005983 |     35005983 |     35005983 |     73678050 |     73678050 |     73678050 |     73678050 |    157299681 |    157299681 |    157299681 |    157299681 |    329276740 |    329276740 |    329276740 |    329276740 |    698355648 |    698355648 |    698355648 |    698355648 |   1455358501 |   1455358501 |   1455358501 |   1455358501 |
il1.hits                                    753796 |       753796 |       753849 |       753849 |      1653900 |      1653900 |      1653963 |      1653963 |      3530933 |      3530933 |      3531013 |      3531013 |      7671713 |      7671713 |      7671775 |      7671775 |     16253776 |     16253776 |     16253841 |     16253841 |     35005457 |     35005457 |     35005520 |     35005520 |     73677544 |     73677544 |     73677610 |     73677610 |    157299155 |    157299155 |    157299218 |    157299218 |    329276199 |    329276199 |    329276267 |    329276267 |    698355097 |    698355097 |    698355173 |    698355173 |   1455357960 |   1455357960 |   1455358028 |   1455358028 |
il1.misses                                     474 |          474 |          421 |          421 |          525 |          525 |          462 |          462 |          514 |          514 |          434 |          434 |          525 |          525 |          463 |          463 |          507 |          507 |          442 |          442 |          526 |          526 |          463 |          463 |          506 |          506 |          440 |          440 |          526 |          526 |          463 |          463 |          541 |          541 |          473 |          473 |          551 |          551 |          475 |          475 |          541 |          541 |          473 |          473 |
il1.replacements                               270 |          270 |          165 |          165 |          308 |          308 |          206 |          206 |          314 |          314 |          178 |          178 |          309 |          309 |          207 |          207 |          305 |          305 |          186 |          186 |          310 |          310 |          207 |          207 |          304 |          304 |          184 |          184 |          310 |          310 |          207 |          207 |          312 |          312 |          217 |          217 |          322 |          322 |          219 |          219 |          312 |          312 |          217 |          217 |
il1.writebacks                                   0 |            0 |            0 |            0 |            0 |            0 |            0 |            0 |            0 |            0 |            0 |            0 |            0 |            0 |            0 |            0 |            0 |            0 |            0 |            0 |            0 |            0 |            0 |            0 |            0 |            0 |            0 |            0 |            0 |            0 |            0 |            0 |            0 |            0 |            0 |            0 |            0 |            0 |            0 |            0 |            0 |            0 |            0 |            0 |
il1.invalidations                                0 |            0 |            0 |            0 |            0 |            0 |            0 |            0 |            0 |            0 |            0 |            0 |            0 |            0 |            0 |            0 |            0 |            0 |            0 |            0 |            0 |            0 |            0 |            0 |            0 |            0 |            0 |            0 |            0 |            0 |            0 |            0 |            0 |            0 |            0 |            0 |            0 |            0 |            0 |            0 |            0 |            0 |            0 |            0 |
il1.miss_rate                               0.0006 |       0.0006 |       0.0006 |       0.0006 |       0.0003 |       0.0003 |       0.0003 |       0.0003 |       0.0001 |       0.0001 |       0.0001 |       0.0001 |       0.0001 |       0.0001 |       0.0001 |       0.0001 |       0.0000 |       0.0000 |       0.0000 |       0.0000 |       0.0000 |       0.0000 |       0.0000 |       0.0000 |       0.0000 |       0.0000 |       0.0000 |       0.0000 |       0.0000 |       0.0000 |       0.0000 |       0.0000 |       0.0000 |       0.0000 |       0.0000 |       0.0000 |       0.0000 |       0.0000 |       0.0000 |       0.0000 |       0.0000 |       0.0000 |       0.0000 |       0.0000 |
il1.repl_rate                               0.0004 |       0.0004 |       0.0002 |       0.0002 |       0.0002 |       0.0002 |       0.0001 |       0.0001 |       0.0001 |       0.0001 |       0.0001 |       0.0001 |       0.0000 |       0.0000 |       0.0000 |       0.0000 |       0.0000 |       0.0000 |       0.0000 |       0.0000 |       0.0000 |       0.0000 |       0.0000 |       0.0000 |       0.0000 |       0.0000 |       0.0000 |       0.0000 |       0.0000 |       0.0000 |       0.0000 |       0.0000 |       0.0000 |       0.0000 |       0.0000 |       0.0000 |       0.0000 |       0.0000 |       0.0000 |       0.0000 |       0.0000 |       0.0000 |       0.0000 |       0.0000 |
il1.wb_rate                                 0.0000 |       0.0000 |       0.0000 |       0.0000 |       0.0000 |       0.0000 |       0.0000 |       0.0000 |       0.0000 |       0.0000 |       0.0000 |       0.0000 |       0.0000 |       0.0000 |       0.0000 |       0.0000 |       0.0000 |       0.0000 |       0.0000 |       0.0000 |       0.0000 |       0.0000 |       0.0000 |       0.0000 |       0.0000 |       0.0000 |       0.0000 |       0.0000 |       0.0000 |       0.0000 |       0.0000 |       0.0000 |       0.0000 |       0.0000 |       0.0000 |       0.0000 |       0.0000 |       0.0000 |       0.0000 |       0.0000 |       0.0000 |       0.0000 |       0.0000 |       0.0000 |
il1.inv_rate                                0.0000 |       0.0000 |       0.0000 |       0.0000 |       0.0000 |       0.0000 |       0.0000 |       0.0000 |       0.0000 |       0.0000 |       0.0000 |       0.0000 |       0.0000 |       0.0000 |       0.0000 |       0.0000 |       0.0000 |       0.0000 |       0.0000 |       0.0000 |       0.0000 |       0.0000 |       0.0000 |       0.0000 |       0.0000 |       0.0000 |       0.0000 |       0.0000 |       0.0000 |       0.0000 |       0.0000 |       0.0000 |       0.0000 |       0.0000 |       0.0000 |       0.0000 |       0.0000 |       0.0000 |       0.0000 |       0.0000 |       0.0000 |       0.0000 |       0.0000 |       0.0000 |
dl1.accesses                                222714 |       222714 |       222714 |       222714 |       494161 |       494161 |       494161 |       494161 |      1025436 |      1025436 |      1025436 |      1025436 |      2258519 |      2258519 |      2258519 |      2258519 |      4676292 |      4676292 |      4676292 |      4676292 |     10203507 |     10203507 |     10203507 |     10203507 |     21059136 |     21059136 |     21059136 |     21059136 |     45518749 |     45518749 |     45518749 |     45518749 |     93658366 |     93658366 |     93658366 |     93658366 |    200932943 |    200932943 |    200932943 |    200932943 |    412327608 |    412327608 |    412327608 |    412327608 |
dl1.hits                                    210787 |       210787 |       210988 |       210988 |       466396 |       466396 |       467061 |       467061 |       970167 |       970167 |       971700 |       971700 |      2131022 |      2131022 |      2135115 |      2135115 |      4420163 |      4420163 |      4429948 |      4429948 |      9622879 |      9622879 |      9645735 |      9645735 |     19891498 |     19891498 |     19944056 |     19944056 |     42907240 |     42907240 |     43026897 |     43026897 |     88405330 |     88405330 |     88673967 |     88673967 |    189321514 |    189321514 |    189916412 |    189916412 |    388991504 |    388991504 |    390295401 |    390295401 |
dl1.misses                                   11927 |        11927 |        11726 |        11726 |        27765 |        27765 |        27100 |        27100 |        55269 |        55269 |        53736 |        53736 |       127497 |       127497 |       123404 |       123404 |       256129 |       256129 |       246344 |       246344 |       580628 |       580628 |       557772 |       557772 |      1167638 |      1167638 |      1115080 |      1115080 |      2611509 |      2611509 |      2491852 |      2491852 |      5253036 |      5253036 |      4984399 |      4984399 |     11611429 |     11611429 |     11016531 |     11016531 |     23336104 |     23336104 |     22032207 |     22032207 |
dl1.replacements                             11671 |        11671 |        11470 |        11470 |        27509 |        27509 |        26844 |        26844 |        55013 |        55013 |        53480 |        53480 |       127241 |       127241 |       123148 |       123148 |       255873 |       255873 |       246088 |       246088 |       580372 |       580372 |       557516 |       557516 |      1167382 |      1167382 |      1114824 |      1114824 |      2611253 |      2611253 |      2491596 |      2491596 |      5252780 |      5252780 |      4984143 |      4984143 |     11611173 |     11611173 |     11016275 |     11016275 |     23335848 |     23335848 |     22031951 |     22031951 |
dl1.writebacks                                6567 |         6567 |         6449 |         6449 |        14862 |        14862 |        14650 |        14650 |        29502 |        29502 |        28994 |        28994 |        67082 |        67082 |        65882 |        65882 |       134243 |       134243 |       131454 |       131454 |       301758 |       301758 |       295378 |       295378 |       604978 |       604978 |       590454 |       590454 |      1344463 |      1344463 |      1311677 |      1311677 |      2696554 |      2696554 |      2623823 |      2623823 |      5931624 |      5931624 |      5771649 |      5771649 |     11891690 |     11891690 |     11543005 |     11543005 |
dl1.invalidations                                0 |            0 |            0 |            0 |            0 |            0 |            0 |            0 |            0 |            0 |            0 |            0 |            0 |            0 |            0 |            0 |            0 |            0 |            0 |            0 |            0 |            0 |            0 |            0 |            0 |            0 |            0 |            0 |            0 |            0 |            0 |            0 |            0 |            0 |            0 |            0 |            0 |            0 |            0 |            0 |            0 |            0 |            0 |            0 |
dl1.miss_rate                               0.0536 |       0.0536 |       0.0527 |       0.0527 |       0.0562 |       0.0562 |       0.0548 |       0.0548 |       0.0539 |       0.0539 |       0.0524 |       0.0524 |       0.0565 |       0.0565 |       0.0546 |       0.0546 |       0.0548 |       0.0548 |       0.0527 |       0.0527 |       0.0569 |       0.0569 |       0.0547 |       0.0547 |       0.0554 |       0.0554 |       0.0529 |       0.0529 |       0.0574 |       0.0574 |       0.0547 |       0.0547 |       0.0561 |       0.0561 |       0.0532 |       0.0532 |       0.0578 |       0.0578 |       0.0548 |       0.0548 |       0.0566 |       0.0566 |       0.0534 |       0.0534 |
dl1.repl_rate                               0.0524 |       0.0524 |       0.0515 |       0.0515 |       0.0557 |       0.0557 |       0.0543 |       0.0543 |       0.0536 |       0.0536 |       0.0522 |       0.0522 |       0.0563 |       0.0563 |       0.0545 |       0.0545 |       0.0547 |       0.0547 |       0.0526 |       0.0526 |       0.0569 |       0.0569 |       0.0546 |       0.0546 |       0.0554 |       0.0554 |       0.0529 |       0.0529 |       0.0574 |       0.0574 |       0.0547 |       0.0547 |       0.0561 |       0.0561 |       0.0532 |       0.0532 |       0.0578 |       0.0578 |       0.0548 |       0.0548 |       0.0566 |       0.0566 |       0.0534 |       0.0534 |
dl1.wb_rate                                 0.0295 |       0.0295 |       0.0290 |       0.0290 |       0.0301 |       0.0301 |       0.0296 |       0.0296 |       0.0288 |       0.0288 |       0.0283 |       0.0283 |       0.0297 |       0.0297 |       0.0292 |       0.0292 |       0.0287 |       0.0287 |       0.0281 |       0.0281 |       0.0296 |       0.0296 |       0.0289 |       0.0289 |       0.0287 |       0.0287 |       0.0280 |       0.0280 |       0.0295 |       0.0295 |       0.0288 |       0.0288 |       0.0288 |       0.0288 |       0.0280 |       0.0280 |       0.0295 |       0.0295 |       0.0287 |       0.0287 |       0.0288 |       0.0288 |       0.0280 |       0.0280 |
dl1.inv_rate                                0.0000 |       0.0000 |       0.0000 |       0.0000 |       0.0000 |       0.0000 |       0.0000 |       0.0000 |       0.0000 |       0.0000 |       0.0000 |       0.0000 |       0.0000 |       0.0000 |       0.0000 |       0.0000 |       0.0000 |       0.0000 |       0.0000 |       0.0000 |       0.0000 |       0.0000 |       0.0000 |       0.0000 |       0.0000 |       0.0000 |       0.0000 |       0.0000 |       0.0000 |       0.0000 |       0.0000 |       0.0000 |       0.0000 |       0.0000 |       0.0000 |       0.0000 |       0.0000 |       0.0000 |       0.0000 |       0.0000 |       0.0000 |       0.0000 |       0.0000 |       0.0000 |
dl2.accesses                                 18968 |        18968 |        18596 |        18596 |        43152 |        43152 |        42212 |        42212 |        85285 |        85285 |        83164 |        83164 |       195104 |       195104 |       189749 |       189749 |       390879 |       390879 |       378240 |       378240 |       882912 |       882912 |       853613 |       853613 |      1773122 |      1773122 |      1705974 |      1705974 |      3956498 |      3956498 |      3803992 |      3803992 |      7950131 |      7950131 |      7608695 |      7608695 |     17543604 |     17543604 |     16788655 |     16788655 |     35228335 |     35228335 |     33575685 |     33575685 |
dl2.hits                                     17094 |        17094 |        16748 |        16748 |        40238 |        40238 |        39328 |        39328 |        80346 |        80346 |        78258 |        78258 |       186043 |       186043 |       180720 |       180720 |       373645 |       373645 |       361039 |       361039 |       849275 |       849275 |       820008 |       820008 |      1706737 |      1657303 |      1639622 |      1542201 |      3767903 |      1661103 |      3470352 |      1312762 |      3361111 |      2967289 |      2626327 |      2626261 |      6527174 |      6526917 |      5776131 |      5776131 |     13196157 |     13195423 |     11551575 |     11551575 |
dl2.misses                                    1874 |         1874 |         1848 |         1848 |         2914 |         2914 |         2884 |         2884 |         4939 |         4939 |         4906 |         4906 |         9061 |         9061 |         9029 |         9029 |        17234 |        17234 |        17201 |        17201 |        33637 |        33637 |        33605 |        33605 |        66385 |       115819 |        66352 |       163773 |       188595 |      2295395 |       333640 |      2491230 |      4589020 |      4982842 |      4982368 |      4982434 |     11016430 |     11016687 |     11012524 |     11012524 |     22032178 |     22032912 |     22024110 |     22024110 |
dl2.replacements                               254 |          254 |            0 |            0 |          284 |          284 |            0 |            0 |          283 |          283 |            0 |            0 |          307 |          307 |            0 |            0 |          289 |          289 |            0 |            0 |          308 |          308 |            0 |            0 |          289 |        51394 |            0 |        98237 |        58633 |      2229859 |       202568 |      2425694 |      4457948 |      4917306 |      4851296 |      4916898 |     10885358 |     10951151 |     10881452 |     10946988 |     21901106 |     21967376 |     21893038 |     21958574 |
dl2.writebacks                                 175 |          175 |            0 |            0 |          186 |          186 |            0 |            0 |          183 |          183 |            0 |            0 |          208 |          208 |            0 |            0 |          188 |          188 |            0 |            0 |          208 |          208 |            0 |            0 |          188 |        27967 |            0 |        97998 |        31873 |      1182729 |       202312 |      1278395 |      2449136 |      2580936 |      2557064 |      2589832 |      5641571 |      5707172 |      5703527 |      5736295 |     11455210 |     11499071 |     11472154 |     11504922 |
dl2.invalidations                                0 |            0 |            0 |            0 |            0 |            0 |            0 |            0 |            0 |            0 |            0 |            0 |            0 |            0 |            0 |            0 |            0 |            0 |            0 |            0 |            0 |            0 |            0 |            0 |            0 |            0 |            0 |            0 |            0 |            0 |            0 |            0 |            0 |            0 |            0 |            0 |            0 |            0 |            0 |            0 |            0 |            0 |            0 |            0 |
dl2.miss_rate                               0.0988 |       0.0988 |       0.0994 |       0.0994 |       0.0675 |       0.0675 |       0.0683 |       0.0683 |       0.0579 |       0.0579 |       0.0590 |       0.0590 |       0.0464 |       0.0464 |       0.0476 |       0.0476 |       0.0441 |       0.0441 |       0.0455 |       0.0455 |       0.0381 |       0.0381 |       0.0394 |       0.0394 |       0.0374 |       0.0653 |       0.0389 |       0.0960 |       0.0477 |       0.5802 |       0.0877 |       0.6549 |       0.5772 |       0.6268 |       0.6548 |       0.6548 |       0.6279 |       0.6280 |       0.6560 |       0.6560 |       0.6254 |       0.6254 |       0.6560 |       0.6560 |
dl2.repl_rate                               0.0134 |       0.0134 |       0.0000 |       0.0000 |       0.0066 |       0.0066 |       0.0000 |       0.0000 |       0.0033 |       0.0033 |       0.0000 |       0.0000 |       0.0016 |       0.0016 |       0.0000 |       0.0000 |       0.0007 |       0.0007 |       0.0000 |       0.0000 |       0.0003 |       0.0003 |       0.0000 |       0.0000 |       0.0002 |       0.0290 |       0.0000 |       0.0576 |       0.0148 |       0.5636 |       0.0533 |       0.6377 |       0.5607 |       0.6185 |       0.6376 |       0.6462 |       0.6205 |       0.6242 |       0.6481 |       0.6520 |       0.6217 |       0.6236 |       0.6521 |       0.6540 |
dl2.wb_rate                                 0.0092 |       0.0092 |       0.0000 |       0.0000 |       0.0043 |       0.0043 |       0.0000 |       0.0000 |       0.0021 |       0.0021 |       0.0000 |       0.0000 |       0.0011 |       0.0011 |       0.0000 |       0.0000 |       0.0005 |       0.0005 |       0.0000 |       0.0000 |       0.0002 |       0.0002 |       0.0000 |       0.0000 |       0.0001 |       0.0158 |       0.0000 |       0.0574 |       0.0081 |       0.2989 |       0.0532 |       0.3361 |       0.3081 |       0.3246 |       0.3361 |       0.3404 |       0.3216 |       0.3253 |       0.3397 |       0.3417 |       0.3252 |       0.3264 |       0.3417 |       0.3427 |
dl2.inv_rate                                0.0000 |       0.0000 |       0.0000 |       0.0000 |       0.0000 |       0.0000 |       0.0000 |       0.0000 |       0.0000 |       0.0000 |       0.0000 |       0.0000 |       0.0000 |       0.0000 |       0.0000 |       0.0000 |       0.0000 |       0.0000 |       0.0000 |       0.0000 |       0.0000 |       0.0000 |       0.0000 |       0.0000 |       0.0000 |       0.0000 |       0.0000 |       0.0000 |       0.0000 |       0.0000 |       0.0000 |       0.0000 |       0.0000 |       0.0000 |       0.0000 |       0.0000 |       0.0000 |       0.0000 |       0.0000 |       0.0000 |       0.0000 |       0.0000 |       0.0000 |       0.0000 |
itlb.accesses                               754270 |       754270 |       754270 |       754270 |      1654425 |      1654425 |      1654425 |      1654425 |      3531447 |      3531447 |      3531447 |      3531447 |      7672238 |      7672238 |      7672238 |      7672238 |     16254283 |     16254283 |     16254283 |     16254283 |     35005983 |     35005983 |     35005983 |     35005983 |     73678050 |     73678050 |     73678050 |     73678050 |    157299681 |    157299681 |    157299681 |    157299681 |    329276740 |    329276740 |    329276740 |    329276740 |    698355648 |    698355648 |    698355648 |    698355648 |   1455358501 |   1455358501 |   1455358501 |   1455358501 |
itlb.hits                                   754259 |       754259 |       754259 |       754259 |      1654414 |      1654414 |      1654414 |      1654414 |      3531437 |      3531437 |      3531437 |      3531437 |      7672228 |      7672228 |      7672228 |      7672228 |     16254273 |     16254273 |     16254273 |     16254273 |     35005973 |     35005973 |     35005973 |     35005973 |     73678040 |     73678040 |     73678040 |     73678040 |    157299671 |    157299671 |    157299671 |    157299671 |    329276730 |    329276730 |    329276730 |    329276730 |    698355638 |    698355638 |    698355638 |    698355638 |   1455358491 |   1455358491 |   1455358491 |   1455358491 |
itlb.misses                                     11 |           11 |           11 |           11 |           11 |           11 |           11 |           11 |           10 |           10 |           10 |           10 |           10 |           10 |           10 |           10 |           10 |           10 |           10 |           10 |           10 |           10 |           10 |           10 |           10 |           10 |           10 |           10 |           10 |           10 |           10 |           10 |           10 |           10 |           10 |           10 |           10 |           10 |           10 |           10 |           10 |           10 |           10 |           10 |
itlb.replacements                                0 |            0 |            0 |            0 |            0 |            0 |            0 |            0 |            0 |            0 |            0 |            0 |            0 |            0 |            0 |            0 |            0 |            0 |            0 |            0 |            0 |            0 |            0 |            0 |            0 |            0 |            0 |            0 |            0 |            0 |            0 |            0 |            0 |            0 |            0 |            0 |            0 |            0 |            0 |            0 |            0 |            0 |            0 |            0 |
itlb.writebacks                                  0 |            0 |            0 |            0 |            0 |            0 |            0 |            0 |            0 |            0 |            0 |            0 |            0 |            0 |            0 |            0 |            0 |            0 |            0 |            0 |            0 |            0 |            0 |            0 |            0 |            0 |            0 |            0 |            0 |            0 |            0 |            0 |            0 |            0 |            0 |            0 |            0 |            0 |            0 |            0 |            0 |            0 |            0 |            0 |
itlb.invalidations                               0 |            0 |            0 |            0 |            0 |            0 |            0 |            0 |            0 |            0 |            0 |            0 |            0 |            0 |            0 |            0 |            0 |            0 |            0 |            0 |            0 |            0 |            0 |            0 |            0 |            0 |            0 |            0 |            0 |            0 |            0 |            0 |            0 |            0 |            0 |            0 |            0 |            0 |            0 |            0 |            0 |            0 |            0 |            0 |
itlb.miss_rate                              0.0000 |       0.0000 |       0.0000 |       0.0000 |       0.0000 |       0.0000 |       0.0000 |       0.0000 |       0.0000 |       0.0000 |       0.0000 |       0.0000 |       0.0000 |       0.0000 |       0.0000 |       0.0000 |       0.0000 |       0.0000 |       0.0000 |       0.0000 |       0.0000 |       0.0000 |       0.0000 |       0.0000 |       0.0000 |       0.0000 |       0.0000 |       0.0000 |       0.0000 |       0.0000 |       0.0000 |       0.0000 |       0.0000 |       0.0000 |       0.0000 |       0.0000 |       0.0000 |       0.0000 |       0.0000 |       0.0000 |       0.0000 |       0.0000 |       0.0000 |       0.0000 |
itlb.repl_rate                              0.0000 |       0.0000 |       0.0000 |       0.0000 |       0.0000 |       0.0000 |       0.0000 |       0.0000 |       0.0000 |       0.0000 |       0.0000 |       0.0000 |       0.0000 |       0.0000 |       0.0000 |       0.0000 |       0.0000 |       0.0000 |       0.0000 |       0.0000 |       0.0000 |       0.0000 |       0.0000 |       0.0000 |       0.0000 |       0.0000 |       0.0000 |       0.0000 |       0.0000 |       0.0000 |       0.0000 |       0.0000 |       0.0000 |       0.0000 |       0.0000 |       0.0000 |       0.0000 |       0.0000 |       0.0000 |       0.0000 |       0.0000 |       0.0000 |       0.0000 |       0.0000 |
itlb.wb_rate                                0.0000 |       0.0000 |       0.0000 |       0.0000 |       0.0000 |       0.0000 |       0.0000 |       0.0000 |       0.0000 |       0.0000 |       0.0000 |       0.0000 |       0.0000 |       0.0000 |       0.0000 |       0.0000 |       0.0000 |       0.0000 |       0.0000 |       0.0000 |       0.0000 |       0.0000 |       0.0000 |       0.0000 |       0.0000 |       0.0000 |       0.0000 |       0.0000 |       0.0000 |       0.0000 |       0.0000 |       0.0000 |       0.0000 |       0.0000 |       0.0000 |       0.0000 |       0.0000 |       0.0000 |       0.0000 |       0.0000 |       0.0000 |       0.0000 |       0.0000 |       0.0000 |
itlb.inv_rate                               0.0000 |       0.0000 |       0.0000 |       0.0000 |       0.0000 |       0.0000 |       0.0000 |       0.0000 |       0.0000 |       0.0000 |       0.0000 |       0.0000 |       0.0000 |       0.0000 |       0.0000 |       0.0000 |       0.0000 |       0.0000 |       0.0000 |       0.0000 |       0.0000 |       0.0000 |       0.0000 |       0.0000 |       0.0000 |       0.0000 |       0.0000 |       0.0000 |       0.0000 |       0.0000 |       0.0000 |       0.0000 |       0.0000 |       0.0000 |       0.0000 |       0.0000 |       0.0000 |       0.0000 |       0.0000 |       0.0000 |       0.0000 |       0.0000 |       0.0000 |       0.0000 |
dtlb.accesses                               222714 |       222714 |       222714 |       222714 |       494161 |       494161 |       494161 |       494161 |      1025436 |      1025436 |      1025436 |      1025436 |      2258519 |      2258519 |      2258519 |      2258519 |      4676292 |      4676292 |      4676292 |      4676292 |     10203507 |     10203507 |     10203507 |     10203507 |     21059136 |     21059136 |     21059136 |     21059136 |     45518749 |     45518749 |     45518749 |     45518749 |     93658366 |     93658366 |     93658366 |     93658366 |    200932943 |    200932943 |    200932943 |    200932943 |    412327608 |    412327608 |    412327608 |    412327608 |
dtlb.hits                                   222699 |       222699 |       222699 |       222699 |       494138 |       494138 |       494138 |       494138 |      1025397 |      1025397 |      1025397 |      1025397 |      2258448 |      2258448 |      2258448 |      2258448 |      4676092 |      4676092 |      4676092 |      4676092 |     10199266 |     10199266 |     10199266 |     10199266 |     21050398 |     21050398 |     21050398 |     21050398 |     45499248 |     45499248 |     45499248 |     45499248 |     93619389 |     93619389 |     93619389 |     93619389 |    200846822 |    200846822 |    200846822 |    200846822 |    412155397 |    412155397 |    412155397 |    412155397 |
dtlb.misses                                     15 |           15 |           15 |           15 |           23 |           23 |           23 |           23 |           39 |           39 |           39 |           39 |           71 |           71 |           71 |           71 |          200 |          200 |          200 |          200 |         4241 |         4241 |         4241 |         4241 |         8738 |         8738 |         8738 |         8738 |        19501 |        19501 |        19501 |        19501 |        38977 |        38977 |        38977 |        38977 |        86121 |        86121 |        86121 |        86121 |       172211 |       172211 |       172211 |       172211 |
dtlb.replacements                                0 |            0 |            0 |            0 |            0 |            0 |            0 |            0 |            0 |            0 |            0 |            0 |            0 |            0 |            0 |            0 |           72 |           72 |           72 |           72 |         4113 |         4113 |         4113 |         4113 |         8610 |         8610 |         8610 |         8610 |        19373 |        19373 |        19373 |        19373 |        38849 |        38849 |        38849 |        38849 |        85993 |        85993 |        85993 |        85993 |       172083 |       172083 |       172083 |       172083 |
dtlb.writebacks                                  0 |            0 |            0 |            0 |            0 |            0 |            0 |            0 |            0 |            0 |            0 |            0 |            0 |            0 |            0 |            0 |           42 |           42 |           42 |           42 |         2152 |         2152 |         2152 |         2152 |         4564 |         4564 |         4564 |         4564 |        10205 |        10205 |        10205 |        10205 |        20458 |        20458 |        20458 |        20458 |        45063 |        45063 |        45063 |        45063 |        90172 |        90172 |        90172 |        90172 |
dtlb.invalidations                               0 |            0 |            0 |            0 |            0 |            0 |            0 |            0 |            0 |            0 |            0 |            0 |            0 |            0 |            0 |            0 |            0 |            0 |            0 |            0 |            0 |            0 |            0 |            0 |            0 |            0 |            0 |            0 |            0 |            0 |            0 |            0 |            0 |            0 |            0 |            0 |            0 |            0 |            0 |            0 |            0 |            0 |            0 |            0 |
dtlb.miss_rate                              0.0001 |       0.0001 |       0.0001 |       0.0001 |       0.0000 |       0.0000 |       0.0000 |       0.0000 |       0.0000 |       0.0000 |       0.0000 |       0.0000 |       0.0000 |       0.0000 |       0.0000 |       0.0000 |       0.0000 |       0.0000 |       0.0000 |       0.0000 |       0.0004 |       0.0004 |       0.0004 |       0.0004 |       0.0004 |       0.0004 |       0.0004 |       0.0004 |       0.0004 |       0.0004 |       0.0004 |       0.0004 |       0.0004 |       0.0004 |       0.0004 |       0.0004 |       0.0004 |       0.0004 |       0.0004 |       0.0004 |       0.0004 |       0.0004 |       0.0004 |       0.0004 |
dtlb.repl_rate                              0.0000 |       0.0000 |       0.0000 |       0.0000 |       0.0000 |       0.0000 |       0.0000 |       0.0000 |       0.0000 |       0.0000 |       0.0000 |       0.0000 |       0.0000 |       0.0000 |       0.0000 |       0.0000 |       0.0000 |       0.0000 |       0.0000 |       0.0000 |       0.0004 |       0.0004 |       0.0004 |       0.0004 |       0.0004 |       0.0004 |       0.0004 |       0.0004 |       0.0004 |       0.0004 |       0.0004 |       0.0004 |       0.0004 |       0.0004 |       0.0004 |       0.0004 |       0.0004 |       0.0004 |       0.0004 |       0.0004 |       0.0004 |       0.0004 |       0.0004 |       0.0004 |
dtlb.wb_rate                                0.0000 |       0.0000 |       0.0000 |       0.0000 |       0.0000 |       0.0000 |       0.0000 |       0.0000 |       0.0000 |       0.0000 |       0.0000 |       0.0000 |       0.0000 |       0.0000 |       0.0000 |       0.0000 |       0.0000 |       0.0000 |       0.0000 |       0.0000 |       0.0002 |       0.0002 |       0.0002 |       0.0002 |       0.0002 |       0.0002 |       0.0002 |       0.0002 |       0.0002 |       0.0002 |       0.0002 |       0.0002 |       0.0002 |       0.0002 |       0.0002 |       0.0002 |       0.0002 |       0.0002 |       0.0002 |       0.0002 |       0.0002 |       0.0002 |       0.0002 |       0.0002 |
dtlb.inv_rate                               0.0000 |       0.0000 |       0.0000 |       0.0000 |       0.0000 |       0.0000 |       0.0000 |       0.0000 |       0.0000 |       0.0000 |       0.0000 |       0.0000 |       0.0000 |       0.0000 |       0.0000 |       0.0000 |       0.0000 |       0.0000 |       0.0000 |       0.0000 |       0.0000 |       0.0000 |       0.0000 |       0.0000 |       0.0000 |       0.0000 |       0.0000 |       0.0000 |       0.0000 |       0.0000 |       0.0000 |       0.0000 |       0.0000 |       0.0000 |       0.0000 |       0.0000 |       0.0000 |       0.0000 |       0.0000 |       0.0000 |       0.0000 |       0.0000 |       0.0000 |       0.0000 |
ld_text_base                            0x00400000 |   0x00400000 |   0x00400000 |   0x00400000 |   0x00400000 |   0x00400000 |   0x00400000 |   0x00400000 |   0x00400000 |   0x00400000 |   0x00400000 |   0x00400000 |   0x00400000 |   0x00400000 |   0x00400000 |   0x00400000 |   0x00400000 |   0x00400000 |   0x00400000 |   0x00400000 |   0x00400000 |   0x00400000 |   0x00400000 |   0x00400000 |   0x00400000 |   0x00400000 |   0x00400000 |   0x00400000 |   0x00400000 |   0x00400000 |   0x00400000 |   0x00400000 |   0x00400000 |   0x00400000 |   0x00400000 |   0x00400000 |   0x00400000 |   0x00400000 |   0x00400000 |   0x00400000 |   0x00400000 |   0x00400000 |   0x00400000 |   0x00400000 |
ld_text_size                                 74928 |        74928 |        74928 |        74928 |        74960 |        74960 |        74960 |        74960 |        74976 |        74976 |        74976 |        74976 |        74992 |        74992 |        74992 |        74992 |        74992 |        74992 |        74992 |        74992 |        74992 |        74992 |        74992 |        74992 |        74992 |        74992 |        74992 |        74992 |        74992 |        74992 |        74992 |        74992 |        74992 |        74992 |        74992 |        74992 |        74992 |        74992 |        74992 |        74992 |        74992 |        74992 |        74992 |        74992 |
ld_data_base                            0x10000000 |   0x10000000 |   0x10000000 |   0x10000000 |   0x10000000 |   0x10000000 |   0x10000000 |   0x10000000 |   0x10000000 |   0x10000000 |   0x10000000 |   0x10000000 |   0x10000000 |   0x10000000 |   0x10000000 |   0x10000000 |   0x10000000 |   0x10000000 |   0x10000000 |   0x10000000 |   0x10000000 |   0x10000000 |   0x10000000 |   0x10000000 |   0x10000000 |   0x10000000 |   0x10000000 |   0x10000000 |   0x10000000 |   0x10000000 |   0x10000000 |   0x10000000 |   0x10000000 |   0x10000000 |   0x10000000 |   0x10000000 |   0x10000000 |   0x10000000 |   0x10000000 |   0x10000000 |   0x10000000 |   0x10000000 |   0x10000000 |   0x10000000 |
ld_data_size                                  8192 |         8192 |         8192 |         8192 |         8192 |         8192 |         8192 |         8192 |         8192 |         8192 |         8192 |         8192 |         8192 |         8192 |         8192 |         8192 |         8192 |         8192 |         8192 |         8192 |         8192 |         8192 |         8192 |         8192 |         8192 |         8192 |         8192 |         8192 |         8192 |         8192 |         8192 |         8192 |         8192 |         8192 |         8192 |         8192 |         8192 |         8192 |         8192 |         8192 |         8192 |         8192 |         8192 |         8192 |
ld_stack_base                           0x7fffc000 |   0x7fffc000 |   0x7fffc000 |   0x7fffc000 |   0x7fffc000 |   0x7fffc000 |   0x7fffc000 |   0x7fffc000 |   0x7fffc000 |   0x7fffc000 |   0x7fffc000 |   0x7fffc000 |   0x7fffc000 |   0x7fffc000 |   0x7fffc000 |   0x7fffc000 |   0x7fffc000 |   0x7fffc000 |   0x7fffc000 |   0x7fffc000 |   0x7fffc000 |   0x7fffc000 |   0x7fffc000 |   0x7fffc000 |   0x7fffc000 |   0x7fffc000 |   0x7fffc000 |   0x7fffc000 |   0x7fffc000 |   0x7fffc000 |   0x7fffc000 |   0x7fffc000 |   0x7fffc000 |   0x7fffc000 |   0x7fffc000 |   0x7fffc000 |   0x7fffc000 |   0x7fffc000 |   0x7fffc000 |   0x7fffc000 |   0x7fffc000 |   0x7fffc000 |   0x7fffc000 |   0x7fffc000 |
ld_stack_size                                16384 |        16384 |        16384 |        16384 |        16384 |        16384 |        16384 |        16384 |        16384 |        16384 |        16384 |        16384 |        16384 |        16384 |        16384 |        16384 |        16384 |        16384 |        16384 |        16384 |        16384 |        16384 |        16384 |        16384 |        16384 |        16384 |        16384 |        16384 |        16384 |        16384 |        16384 |        16384 |        16384 |        16384 |        16384 |        16384 |        16384 |        16384 |        16384 |        16384 |        16384 |        16384 |        16384 |        16384 |
ld_prog_entry                           0x00400140 |   0x00400140 |   0x00400140 |   0x00400140 |   0x00400140 |   0x00400140 |   0x00400140 |   0x00400140 |   0x00400140 |   0x00400140 |   0x00400140 |   0x00400140 |   0x00400140 |   0x00400140 |   0x00400140 |   0x00400140 |   0x00400140 |   0x00400140 |   0x00400140 |   0x00400140 |   0x00400140 |   0x00400140 |   0x00400140 |   0x00400140 |   0x00400140 |   0x00400140 |   0x00400140 |   0x00400140 |   0x00400140 |   0x00400140 |   0x00400140 |   0x00400140 |   0x00400140 |   0x00400140 |   0x00400140 |   0x00400140 |   0x00400140 |   0x00400140 |   0x00400140 |   0x00400140 |   0x00400140 |   0x00400140 |   0x00400140 |   0x00400140 |
ld_environ_base                         0x7fff8000 |   0x7fff8000 |   0x7fff8000 |   0x7fff8000 |   0x7fff8000 |   0x7fff8000 |   0x7fff8000 |   0x7fff8000 |   0x7fff8000 |   0x7fff8000 |   0x7fff8000 |   0x7fff8000 |   0x7fff8000 |   0x7fff8000 |   0x7fff8000 |   0x7fff8000 |   0x7fff8000 |   0x7fff8000 |   0x7fff8000 |   0x7fff8000 |   0x7fff8000 |   0x7fff8000 |   0x7fff8000 |   0x7fff8000 |   0x7fff8000 |   0x7fff8000 |   0x7fff8000 |   0x7fff8000 |   0x7fff8000 |   0x7fff8000 |   0x7fff8000 |   0x7fff8000 |   0x7fff8000 |   0x7fff8000 |   0x7fff8000 |   0x7fff8000 |   0x7fff8000 |   0x7fff8000 |   0x7fff8000 |   0x7fff8000 |   0x7fff8000 |   0x7fff8000 |   0x7fff8000 |   0x7fff8000 |
ld_target_big_endian                             0 |            0 |            0 |            0 |            0 |            0 |            0 |            0 |            0 |            0 |            0 |            0 |            0 |            0 |            0 |            0 |            0 |            0 |            0 |            0 |            0 |            0 |            0 |            0 |            0 |            0 |            0 |            0 |            0 |            0 |            0 |            0 |            0 |            0 |            0 |            0 |            0 |            0 |            0 |            0 |            0 |            0 |            0 |            0 |
mem.page_count                                  34 |           34 |           34 |           34 |           42 |           42 |           42 |           42 |           58 |           58 |           58 |           58 |           90 |           90 |           90 |           90 |          154 |          154 |          154 |          154 |          282 |          282 |          282 |          282 |          538 |          538 |          538 |          538 |         1050 |         1050 |         1050 |         1050 |         2080 |         2080 |         2080 |         2080 |         4134 |         4134 |         4134 |         4134 |         8242 |         8242 |         8242 |         8242 |
mem.page_mem                                  136k |         136k |         136k |         136k |         168k |         168k |         168k |         168k |         232k |         232k |         232k |         232k |         360k |         360k |         360k |         360k |         616k |         616k |         616k |         616k |        1128k |        1128k |        1128k |        1128k |        2152k |        2152k |        2152k |        2152k |        4200k |        4200k |        4200k |        4200k |        8320k |        8320k |        8320k |        8320k |       16536k |       16536k |       16536k |       16536k |       32968k |       32968k |       32968k |       32968k |
mem.ptab_misses                                 34 |           34 |           34 |           34 |           42 |           42 |           42 |           42 |           58 |           58 |           58 |           58 |           90 |           90 |           90 |           90 |          154 |          154 |          154 |          154 |          282 |          282 |          282 |          282 |          538 |          538 |          538 |          538 |         1050 |         1050 |         1050 |         1050 |       105751 |       105751 |       105751 |       105751 |       112445 |       112445 |       112445 |       112445 |       123741 |       123741 |       123741 |       123741 |
mem.ptab_accesses                          3926664 |      3926664 |      3926664 |      3926664 |      8070370 |      8070370 |      8070370 |      8070370 |     16641104 |     16641104 |     16641104 |     16641104 |     35670530 |     35670530 |     35670530 |     35670530 |     74834256 |     74834256 |     74834256 |     74834256 |    160895486 |    160895486 |    160895486 |    160895486 |    337295012 |    337295012 |    337295012 |    337295012 |    720700762 |    720700762 |    720700762 |    720700762 |   1504888232 |   1504888232 |   1504888232 |   1504888232 |   3195753018 |   3195753018 |   3195753018 |   3195753018 |   6646553760 |   6646553760 |   6646553760 |   6646553760 |
mem.ptab_miss_rate                          0.0000 |       0.0000 |       0.0000 |       0.0000 |       0.0000 |       0.0000 |       0.0000 |       0.0000 |       0.0000 |       0.0000 |       0.0000 |       0.0000 |       0.0000 |       0.0000 |       0.0000 |       0.0000 |       0.0000 |       0.0000 |       0.0000 |       0.0000 |       0.0000 |       0.0000 |       0.0000 |       0.0000 |       0.0000 |       0.0000 |       0.0000 |       0.0000 |       0.0000 |       0.0000 |       0.0000 |       0.0000 |       0.0001 |       0.0001 |       0.0001 |       0.0001 |       0.0000 |       0.0000 |       0.0000 |       0.0000 |       0.0000 |       0.0000 |       0.0000 |       0.0000 |
-------------------------------------------------------------------------------------------------
sim-bpred                                     4096 |         4096 |         4096 |         4096 |         4096 |         4096 |         4096 |         8192 |         8192 |         8192 |         8192 |         8192 |         8192 |         8192 |        16384 |        16384 |        16384 |        16384 |        16384 |        16384 |        16384 |        32768 |        32768 |        32768 |        32768 |        32768 |        32768 |        32768 |        65536 |        65536 |        65536 |        65536 |        65536 |        65536 |        65536 |       131072 |       131072 |       131072 |       131072 |       131072 |       131072 |       131072 |       262144 |       262144 |       262144 |       262144 |       262144 |       262144 |       262144 |       524288 |       524288 |       524288 |       524288 |       524288 |       524288 |       524288 |      1048576 |      1048576 |      1048576 |      1048576 |      1048576 |      1048576 |      1048576 |      2097152 |      2097152 |      2097152 |      2097152 |      2097152 |      2097152 |      2097152 |      4194304 |      4194304 |      4194304 |      4194304 |      4194304 |      4194304 |      4194304 |
-bpred bimod -bpred:bimod 512
-bpred bimod -bpred:bimod 1024
-bpred bimod -bpred:bimod 2048
-bpred 2lev -bpred:2lev 1 512 10 1
-bpred 2lev -bpred:2lev 1 1024 10 1
-bpred 2lev -bpred:2lev 1 2048 10 1
-bpred 2lev -bpred:2lev 1 4096 10 1
-------------------------------------------------------------------------------------------------
sim_num_insn                                754270 |       754270 |       754270 |       754270 |       754270 |       754270 |       754270 |      1654425 |      1654425 |      1654425 |      1654425 |      1654425 |      1654425 |      1654425 |      3531447 |      3531447 |      3531447 |      3531447 |      3531447 |      3531447 |      3531447 |      7672238 |      7672238 |      7672238 |      7672238 |      7672238 |      7672238 |      7672238 |     16254283 |     16254283 |     16254283 |     16254283 |     16254283 |     16254283 |     16254283 |     35005983 |     35005983 |     35005983 |     35005983 |     35005983 |     35005983 |     35005983 |     73678050 |     73678050 |     73678050 |     73678050 |     73678050 |     73678050 |     73678050 |    157299681 |    157299681 |    157299681 |    157299681 |    157299681 |    157299681 |    157299681 |    329276740 |    329276740 |    329276740 |    329276740 |    329276740 |    329276740 |    329276740 |    698355648 |    698355648 |    698355648 |    698355648 |    698355648 |    698355648 |    698355648 |   1455358501 |   1455358501 |   1455358501 |   1455358501 |   1455358501 |   1455358501 |   1455358501 |
sim_num_refs                                206248 |       206248 |       206248 |       206248 |       206248 |       206248 |       206248 |       461311 |       461311 |       461311 |       461311 |       461311 |       461311 |       461311 |       959818 |       959818 |       959818 |       959818 |       959818 |       959818 |       959818 |      2127365 |      2127365 |      2127365 |      2127365 |      2127365 |      2127365 |      2127365 |      4414066 |      4414066 |      4414066 |      4414066 |      4414066 |      4414066 |      4414066 |      9679137 |      9679137 |      9679137 |      9679137 |      9679137 |      9679137 |      9679137 |     20010478 |     20010478 |     20010478 |     20010478 |     20010478 |     20010478 |     20010478 |     43421515 |     43421515 |     43421515 |     43421515 |     43421515 |     43421515 |     43421515 |     89463980 |     89463980 |     89463980 |     89463980 |     89463980 |     89463980 |     89463980 |    192544253 |    192544253 |    192544253 |    192544253 |    192544253 |    192544253 |    192544253 |    395550310 |    395550310 |    395550310 |    395550310 |    395550310 |    395550310 |    395550310 |
sim_elapsed_time                                 1 |            1 |            1 |            1 |            1 |            1 |            1 |            1 |            1 |            1 |            1 |            1 |            1 |            1 |            1 |            1 |            1 |            1 |            1 |            1 |            1 |            1 |            1 |            1 |            1 |            2 |            1 |            1 |            2 |            2 |            2 |            2 |            3 |            1 |            2 |            4 |            4 |            4 |            4 |            5 |            4 |            5 |            9 |           10 |            8 |            9 |           12 |            8 |            9 |           18 |           21 |           19 |           18 |           25 |           19 |           18 |           38 |           44 |           38 |           38 |           54 |           39 |           38 |           80 |           93 |           81 |           81 |          113 |           82 |           80 |          165 |          196 |          166 |          168 |          236 |          169 |          168 |
sim_inst_rate                          754270.0000 |  754270.0000 |  754270.0000 |  754270.0000 |  754270.0000 |  754270.0000 |  754270.0000 | 1654425.0000 | 1654425.0000 | 1654425.0000 | 1654425.0000 | 1654425.0000 | 1654425.0000 | 1654425.0000 | 3531447.0000 | 3531447.0000 | 3531447.0000 | 3531447.0000 | 3531447.0000 | 3531447.0000 | 3531447.0000 | 7672238.0000 | 7672238.0000 | 7672238.0000 | 7672238.0000 | 3836119.0000 | 7672238.0000 | 7672238.0000 | 8127141.5000 | 8127141.5000 | 8127141.5000 | 8127141.5000 | 5418094.3333 |16254283.0000 | 8127141.5000 | 8751495.7500 | 8751495.7500 | 8751495.7500 | 8751495.7500 | 7001196.6000 | 8751495.7500 | 7001196.6000 | 8186450.0000 | 7367805.0000 | 9209756.2500 | 8186450.0000 | 6139837.5000 | 9209756.2500 | 8186450.0000 | 8738871.1667 | 7490461.0000 | 8278930.5789 | 8738871.1667 | 6291987.2400 | 8278930.5789 | 8738871.1667 | 8665177.3684 | 7483562.2727 | 8665177.3684 | 8665177.3684 | 6097717.4074 | 8442993.3333 | 8665177.3684 | 8729445.6000 | 7509200.5161 | 8621674.6667 | 8621674.6667 | 6180138.4779 | 8516532.2927 | 8729445.6000 | 8820354.5515 | 7425298.4745 | 8767219.8855 | 8662848.2202 | 6166773.3093 | 8611588.7633 | 8662848.2202 |
sim_num_branches                             94834 |        94834 |        94834 |        94834 |        94834 |        94834 |        94834 |       205914 |       205914 |       205914 |       205914 |       205914 |       205914 |       205914 |       441709 |       441709 |       441709 |       441709 |       441709 |       441709 |       441709 |       951514 |       951514 |       951514 |       951514 |       951514 |       951514 |       951514 |      2025265 |      2025265 |      2025265 |      2025265 |      2025265 |      2025265 |      2025265 |      4330465 |      4330465 |      4330465 |      4330465 |      4330465 |      4330465 |      4330465 |      9152844 |      9152844 |      9152844 |      9152844 |      9152844 |      9152844 |      9152844 |     19419311 |     19419311 |     19419311 |     19419311 |     19419311 |     19419311 |     19419311 |     40807737 |     40807737 |     40807737 |     40807737 |     40807737 |     40807737 |     40807737 |     86073501 |     86073501 |     86073501 |     86073501 |     86073501 |     86073501 |     86073501 |    180015797 |    180015797 |    180015797 |    180015797 |    180015797 |    180015797 |    180015797 |
sim_IPB                                     7.9536 |       7.9536 |       7.9536 |       7.9536 |       7.9536 |       7.9536 |       7.9536 |       8.0345 |       8.0345 |       8.0345 |       8.0345 |       8.0345 |       8.0345 |       8.0345 |       7.9950 |       7.9950 |       7.9950 |       7.9950 |       7.9950 |       7.9950 |       7.9950 |       8.0632 |       8.0632 |       8.0632 |       8.0632 |       8.0632 |       8.0632 |       8.0632 |       8.0258 |       8.0258 |       8.0258 |       8.0258 |       8.0258 |       8.0258 |       8.0258 |       8.0837 |       8.0837 |       8.0837 |       8.0837 |       8.0837 |       8.0837 |       8.0837 |       8.0497 |       8.0497 |       8.0497 |       8.0497 |       8.0497 |       8.0497 |       8.0497 |       8.1002 |       8.1002 |       8.1002 |       8.1002 |       8.1002 |       8.1002 |       8.1002 |       8.0690 |       8.0690 |       8.0690 |       8.0690 |       8.0690 |       8.0690 |       8.0690 |       8.1135 |       8.1135 |       8.1135 |       8.1135 |       8.1135 |       8.1135 |       8.1135 |       8.0846 |       8.0846 |       8.0846 |       8.0846 |       8.0846 |       8.0846 |       8.0846 |
bpred_bimod.lookups                          94834 |        94834 |        94834 |xxxxxxxxxxxxx |xxxxxxxxxxxxx |xxxxxxxxxxxxx |xxxxxxxxxxxxx |       205914 |       205914 |       205914 |xxxxxxxxxxxxx |xxxxxxxxxxxxx |xxxxxxxxxxxxx |xxxxxxxxxxxxx |       441709 |       441709 |       441709 |xxxxxxxxxxxxx |xxxxxxxxxxxxx |xxxxxxxxxxxxx |xxxxxxxxxxxxx |       951514 |       951514 |       951514 |xxxxxxxxxxxxx |xxxxxxxxxxxxx |xxxxxxxxxxxxx |xxxxxxxxxxxxx |      2025265 |      2025265 |      2025265 |xxxxxxxxxxxxx |xxxxxxxxxxxxx |xxxxxxxxxxxxx |xxxxxxxxxxxxx |      4330465 |      4330465 |      4330465 |xxxxxxxxxxxxx |xxxxxxxxxxxxx |xxxxxxxxxxxxx |xxxxxxxxxxxxx |      9152844 |      9152844 |      9152844 |xxxxxxxxxxxxx |xxxxxxxxxxxxx |xxxxxxxxxxxxx |xxxxxxxxxxxxx |     19419311 |     19419311 |     19419311 |xxxxxxxxxxxxx |xxxxxxxxxxxxx |xxxxxxxxxxxxx |xxxxxxxxxxxxx |     40807737 |     40807737 |     40807737 |xxxxxxxxxxxxx |xxxxxxxxxxxxx |xxxxxxxxxxxxx |xxxxxxxxxxxxx |     86073501 |     86073501 |     86073501 |xxxxxxxxxxxxx |xxxxxxxxxxxxx |xxxxxxxxxxxxx |xxxxxxxxxxxxx |    180015797 |    180015797 |    180015797 |
bpred_bimod.updates                          94834 |        94834 |        94834 |xxxxxxxxxxxxx |xxxxxxxxxxxxx |xxxxxxxxxxxxx |xxxxxxxxxxxxx |       205914 |       205914 |       205914 |xxxxxxxxxxxxx |xxxxxxxxxxxxx |xxxxxxxxxxxxx |xxxxxxxxxxxxx |       441709 |       441709 |       441709 |xxxxxxxxxxxxx |xxxxxxxxxxxxx |xxxxxxxxxxxxx |xxxxxxxxxxxxx |       951514 |       951514 |       951514 |xxxxxxxxxxxxx |xxxxxxxxxxxxx |xxxxxxxxxxxxx |xxxxxxxxxxxxx |      2025265 |      2025265 |      2025265 |xxxxxxxxxxxxx |xxxxxxxxxxxxx |xxxxxxxxxxxxx |xxxxxxxxxxxxx |      4330465 |      4330465 |      4330465 |xxxxxxxxxxxxx |xxxxxxxxxxxxx |xxxxxxxxxxxxx |xxxxxxxxxxxxx |      9152844 |      9152844 |      9152844 |xxxxxxxxxxxxx |xxxxxxxxxxxxx |xxxxxxxxxxxxx |xxxxxxxxxxxxx |     19419311 |     19419311 |     19419311 |xxxxxxxxxxxxx |xxxxxxxxxxxxx |xxxxxxxxxxxxx |xxxxxxxxxxxxx |     40807737 |     40807737 |     40807737 |xxxxxxxxxxxxx |xxxxxxxxxxxxx |xxxxxxxxxxxxx |xxxxxxxxxxxxx |     86073501 |     86073501 |     86073501 |xxxxxxxxxxxxx |xxxxxxxxxxxxx |xxxxxxxxxxxxx |xxxxxxxxxxxxx |    180015797 |    180015797 |    180015797 |
bpred_bimod.addr_hits                        69656 |        69660 |        69664 |xxxxxxxxxxxxx |xxxxxxxxxxxxx |xxxxxxxxxxxxx |xxxxxxxxxxxxx |       151558 |       151561 |       151564 |xxxxxxxxxxxxx |xxxxxxxxxxxxx |xxxxxxxxxxxxx |xxxxxxxxxxxxx |       325136 |       325140 |       325147 |xxxxxxxxxxxxx |xxxxxxxxxxxxx |xxxxxxxxxxxxx |xxxxxxxxxxxxx |       701604 |       701607 |       701611 |xxxxxxxxxxxxx |xxxxxxxxxxxxx |xxxxxxxxxxxxx |xxxxxxxxxxxxx |      1493623 |      1493625 |      1493631 |xxxxxxxxxxxxx |xxxxxxxxxxxxx |xxxxxxxxxxxxx |xxxxxxxxxxxxx |      3201906 |      3201909 |      3201913 |xxxxxxxxxxxxx |xxxxxxxxxxxxx |xxxxxxxxxxxxx |xxxxxxxxxxxxx |      6762940 |      6762942 |      6762947 |xxxxxxxxxxxxx |xxxxxxxxxxxxx |xxxxxxxxxxxxx |xxxxxxxxxxxxx |     14378352 |     14378355 |     14378359 |xxxxxxxxxxxxx |xxxxxxxxxxxxx |xxxxxxxxxxxxx |xxxxxxxxxxxxx |     30195991 |     30195994 |     30195998 |xxxxxxxxxxxxx |xxxxxxxxxxxxx |xxxxxxxxxxxxx |xxxxxxxxxxxxx |     63798641 |     63798644 |     63798647 |xxxxxxxxxxxxx |xxxxxxxxxxxxx |xxxxxxxxxxxxx |xxxxxxxxxxxxx |    133355624 |    133355627 |    133355631 |
bpred_bimod.dir_hits                         69772 |        69775 |        69778 |xxxxxxxxxxxxx |xxxxxxxxxxxxx |xxxxxxxxxxxxx |xxxxxxxxxxxxx |       151683 |       151685 |       151688 |xxxxxxxxxxxxx |xxxxxxxxxxxxx |xxxxxxxxxxxxx |xxxxxxxxxxxxx |       325256 |       325257 |       325264 |xxxxxxxxxxxxx |xxxxxxxxxxxxx |xxxxxxxxxxxxx |xxxxxxxxxxxxx |       701729 |       701730 |       701734 |xxxxxxxxxxxxx |xxxxxxxxxxxxx |xxxxxxxxxxxxx |xxxxxxxxxxxxx |      1493743 |      1493743 |      1493749 |xxxxxxxxxxxxx |xxxxxxxxxxxxx |xxxxxxxxxxxxx |xxxxxxxxxxxxx |      3202033 |      3202034 |      3202038 |xxxxxxxxxxxxx |xxxxxxxxxxxxx |xxxxxxxxxxxxx |xxxxxxxxxxxxx |      6763061 |      6763061 |      6763066 |xxxxxxxxxxxxx |xxxxxxxxxxxxx |xxxxxxxxxxxxx |xxxxxxxxxxxxx |     14378479 |     14378480 |     14378484 |xxxxxxxxxxxxx |xxxxxxxxxxxxx |xxxxxxxxxxxxx |xxxxxxxxxxxxx |     30196123 |     30196124 |     30196128 |xxxxxxxxxxxxx |xxxxxxxxxxxxx |xxxxxxxxxxxxx |xxxxxxxxxxxxx |     63798774 |     63798775 |     63798778 |xxxxxxxxxxxxx |xxxxxxxxxxxxx |xxxxxxxxxxxxx |xxxxxxxxxxxxx |    133355756 |    133355757 |    133355761 |
bpred_bimod.misses                           25062 |        25059 |        25056 |xxxxxxxxxxxxx |xxxxxxxxxxxxx |xxxxxxxxxxxxx |xxxxxxxxxxxxx |        54231 |        54229 |        54226 |xxxxxxxxxxxxx |xxxxxxxxxxxxx |xxxxxxxxxxxxx |xxxxxxxxxxxxx |       116453 |       116452 |       116445 |xxxxxxxxxxxxx |xxxxxxxxxxxxx |xxxxxxxxxxxxx |xxxxxxxxxxxxx |       249785 |       249784 |       249780 |xxxxxxxxxxxxx |xxxxxxxxxxxxx |xxxxxxxxxxxxx |xxxxxxxxxxxxx |       531522 |       531522 |       531516 |xxxxxxxxxxxxx |xxxxxxxxxxxxx |xxxxxxxxxxxxx |xxxxxxxxxxxxx |      1128432 |      1128431 |      1128427 |xxxxxxxxxxxxx |xxxxxxxxxxxxx |xxxxxxxxxxxxx |xxxxxxxxxxxxx |      2389783 |      2389783 |      2389778 |xxxxxxxxxxxxx |xxxxxxxxxxxxx |xxxxxxxxxxxxx |xxxxxxxxxxxxx |      5040832 |      5040831 |      5040827 |xxxxxxxxxxxxx |xxxxxxxxxxxxx |xxxxxxxxxxxxx |xxxxxxxxxxxxx |     10611614 |     10611613 |     10611609 |xxxxxxxxxxxxx |xxxxxxxxxxxxx |xxxxxxxxxxxxx |xxxxxxxxxxxxx |     22274727 |     22274726 |     22274723 |xxxxxxxxxxxxx |xxxxxxxxxxxxx |xxxxxxxxxxxxx |xxxxxxxxxxxxx |     46660041 |     46660040 |     46660036 |
bpred_bimod.jr_hits                             61 |           61 |           61 |xxxxxxxxxxxxx |xxxxxxxxxxxxx |xxxxxxxxxxxxx |xxxxxxxxxxxxx |           71 |           71 |           71 |xxxxxxxxxxxxx |xxxxxxxxxxxxx |xxxxxxxxxxxxx |xxxxxxxxxxxxx |           69 |           69 |           69 |xxxxxxxxxxxxx |xxxxxxxxxxxxx |xxxxxxxxxxxxx |xxxxxxxxxxxxx |           71 |           71 |           71 |xxxxxxxxxxxxx |xxxxxxxxxxxxx |xxxxxxxxxxxxx |xxxxxxxxxxxxx |           69 |           69 |           69 |xxxxxxxxxxxxx |xxxxxxxxxxxxx |xxxxxxxxxxxxx |xxxxxxxxxxxxx |           71 |           71 |           71 |xxxxxxxxxxxxx |xxxxxxxxxxxxx |xxxxxxxxxxxxx |xxxxxxxxxxxxx |           69 |           69 |           69 |xxxxxxxxxxxxx |xxxxxxxxxxxxx |xxxxxxxxxxxxx |xxxxxxxxxxxxx |           71 |           71 |           71 |xxxxxxxxxxxxx |xxxxxxxxxxxxx |xxxxxxxxxxxxx |xxxxxxxxxxxxx |           72 |           72 |           72 |xxxxxxxxxxxxx |xxxxxxxxxxxxx |xxxxxxxxxxxxx |xxxxxxxxxxxxx |           75 |           75 |           75 |xxxxxxxxxxxxx |xxxxxxxxxxxxx |xxxxxxxxxxxxx |xxxxxxxxxxxxx |           72 |           72 |           72 |
bpred_bimod.jr_seen                             61 |           61 |           61 |xxxxxxxxxxxxx |xxxxxxxxxxxxx |xxxxxxxxxxxxx |xxxxxxxxxxxxx |           73 |           73 |           73 |xxxxxxxxxxxxx |xxxxxxxxxxxxx |xxxxxxxxxxxxx |xxxxxxxxxxxxx |           70 |           70 |           70 |xxxxxxxxxxxxx |xxxxxxxxxxxxx |xxxxxxxxxxxxx |xxxxxxxxxxxxx |           73 |           73 |           73 |xxxxxxxxxxxxx |xxxxxxxxxxxxx |xxxxxxxxxxxxx |xxxxxxxxxxxxx |           70 |           70 |           70 |xxxxxxxxxxxxx |xxxxxxxxxxxxx |xxxxxxxxxxxxx |xxxxxxxxxxxxx |           73 |           73 |           73 |xxxxxxxxxxxxx |xxxxxxxxxxxxx |xxxxxxxxxxxxx |xxxxxxxxxxxxx |           70 |           70 |           70 |xxxxxxxxxxxxx |xxxxxxxxxxxxx |xxxxxxxxxxxxx |xxxxxxxxxxxxx |           73 |           73 |           73 |xxxxxxxxxxxxx |xxxxxxxxxxxxx |xxxxxxxxxxxxx |xxxxxxxxxxxxx |           73 |           73 |           73 |xxxxxxxxxxxxx |xxxxxxxxxxxxx |xxxxxxxxxxxxx |xxxxxxxxxxxxx |           76 |           76 |           76 |xxxxxxxxxxxxx |xxxxxxxxxxxxx |xxxxxxxxxxxxx |xxxxxxxxxxxxx |           73 |           73 |           73 |
bpred_bimod.jr_non_ras_hits.PP                   0 |            0 |            0 |xxxxxxxxxxxxx |xxxxxxxxxxxxx |xxxxxxxxxxxxx |xxxxxxxxxxxxx |            0 |            0 |            0 |xxxxxxxxxxxxx |xxxxxxxxxxxxx |xxxxxxxxxxxxx |xxxxxxxxxxxxx |            0 |            0 |            0 |xxxxxxxxxxxxx |xxxxxxxxxxxxx |xxxxxxxxxxxxx |xxxxxxxxxxxxx |            0 |            0 |            0 |xxxxxxxxxxxxx |xxxxxxxxxxxxx |xxxxxxxxxxxxx |xxxxxxxxxxxxx |            0 |            0 |            0 |xxxxxxxxxxxxx |xxxxxxxxxxxxx |xxxxxxxxxxxxx |xxxxxxxxxxxxx |            0 |            0 |            0 |xxxxxxxxxxxxx |xxxxxxxxxxxxx |xxxxxxxxxxxxx |xxxxxxxxxxxxx |            0 |            0 |            0 |xxxxxxxxxxxxx |xxxxxxxxxxxxx |xxxxxxxxxxxxx |xxxxxxxxxxxxx |            0 |            0 |            0 |xxxxxxxxxxxxx |xxxxxxxxxxxxx |xxxxxxxxxxxxx |xxxxxxxxxxxxx |            0 |            0 |            0 |xxxxxxxxxxxxx |xxxxxxxxxxxxx |xxxxxxxxxxxxx |xxxxxxxxxxxxx |            1 |            1 |            1 |xxxxxxxxxxxxx |xxxxxxxxxxxxx |xxxxxxxxxxxxx |xxxxxxxxxxxxx |            0 |            0 |            0 |
bpred_bimod.jr_non_ras_seen.PP                   0 |            0 |            0 |xxxxxxxxxxxxx |xxxxxxxxxxxxx |xxxxxxxxxxxxx |xxxxxxxxxxxxx |            1 |            1 |            1 |xxxxxxxxxxxxx |xxxxxxxxxxxxx |xxxxxxxxxxxxx |xxxxxxxxxxxxx |            0 |            0 |            0 |xxxxxxxxxxxxx |xxxxxxxxxxxxx |xxxxxxxxxxxxx |xxxxxxxxxxxxx |            1 |            1 |            1 |xxxxxxxxxxxxx |xxxxxxxxxxxxx |xxxxxxxxxxxxx |xxxxxxxxxxxxx |            0 |            0 |            0 |xxxxxxxxxxxxx |xxxxxxxxxxxxx |xxxxxxxxxxxxx |xxxxxxxxxxxxx |            1 |            1 |            1 |xxxxxxxxxxxxx |xxxxxxxxxxxxx |xxxxxxxxxxxxx |xxxxxxxxxxxxx |            0 |            0 |            0 |xxxxxxxxxxxxx |xxxxxxxxxxxxx |xxxxxxxxxxxxx |xxxxxxxxxxxxx |            1 |            1 |            1 |xxxxxxxxxxxxx |xxxxxxxxxxxxx |xxxxxxxxxxxxx |xxxxxxxxxxxxx |            1 |            1 |            1 |xxxxxxxxxxxxx |xxxxxxxxxxxxx |xxxxxxxxxxxxx |xxxxxxxxxxxxx |            2 |            2 |            2 |xxxxxxxxxxxxx |xxxxxxxxxxxxx |xxxxxxxxxxxxx |xxxxxxxxxxxxx |            1 |            1 |            1 |
bpred_bimod.bpred_addr_rate                 0.7345 |       0.7345 |       0.7346 |xxxxxxxxxxxxx |xxxxxxxxxxxxx |xxxxxxxxxxxxx |xxxxxxxxxxxxx |       0.7360 |       0.7360 |       0.7361 |xxxxxxxxxxxxx |xxxxxxxxxxxxx |xxxxxxxxxxxxx |xxxxxxxxxxxxx |       0.7361 |       0.7361 |       0.7361 |xxxxxxxxxxxxx |xxxxxxxxxxxxx |xxxxxxxxxxxxx |xxxxxxxxxxxxx |       0.7374 |       0.7374 |       0.7374 |xxxxxxxxxxxxx |xxxxxxxxxxxxx |xxxxxxxxxxxxx |xxxxxxxxxxxxx |       0.7375 |       0.7375 |       0.7375 |xxxxxxxxxxxxx |xxxxxxxxxxxxx |xxxxxxxxxxxxx |xxxxxxxxxxxxx |       0.7394 |       0.7394 |       0.7394 |xxxxxxxxxxxxx |xxxxxxxxxxxxx |xxxxxxxxxxxxx |xxxxxxxxxxxxx |       0.7389 |       0.7389 |       0.7389 |xxxxxxxxxxxxx |xxxxxxxxxxxxx |xxxxxxxxxxxxx |xxxxxxxxxxxxx |       0.7404 |       0.7404 |       0.7404 |xxxxxxxxxxxxx |xxxxxxxxxxxxx |xxxxxxxxxxxxx |xxxxxxxxxxxxx |       0.7400 |       0.7400 |       0.7400 |xxxxxxxxxxxxx |xxxxxxxxxxxxx |xxxxxxxxxxxxx |xxxxxxxxxxxxx |       0.7412 |       0.7412 |       0.7412 |xxxxxxxxxxxxx |xxxxxxxxxxxxx |xxxxxxxxxxxxx |xxxxxxxxxxxxx |       0.7408 |       0.7408 |       0.7408 |
bpred_bimod.bpred_dir_rate                  0.7357 |       0.7358 |       0.7358 |xxxxxxxxxxxxx |xxxxxxxxxxxxx |xxxxxxxxxxxxx |xxxxxxxxxxxxx |       0.7366 |       0.7366 |       0.7367 |xxxxxxxxxxxxx |xxxxxxxxxxxxx |xxxxxxxxxxxxx |xxxxxxxxxxxxx |       0.7364 |       0.7364 |       0.7364 |xxxxxxxxxxxxx |xxxxxxxxxxxxx |xxxxxxxxxxxxx |xxxxxxxxxxxxx |       0.7375 |       0.7375 |       0.7375 |xxxxxxxxxxxxx |xxxxxxxxxxxxx |xxxxxxxxxxxxx |xxxxxxxxxxxxx |       0.7376 |       0.7376 |       0.7376 |xxxxxxxxxxxxx |xxxxxxxxxxxxx |xxxxxxxxxxxxx |xxxxxxxxxxxxx |       0.7394 |       0.7394 |       0.7394 |xxxxxxxxxxxxx |xxxxxxxxxxxxx |xxxxxxxxxxxxx |xxxxxxxxxxxxx |       0.7389 |       0.7389 |       0.7389 |xxxxxxxxxxxxx |xxxxxxxxxxxxx |xxxxxxxxxxxxx |xxxxxxxxxxxxx |       0.7404 |       0.7404 |       0.7404 |xxxxxxxxxxxxx |xxxxxxxxxxxxx |xxxxxxxxxxxxx |xxxxxxxxxxxxx |       0.7400 |       0.7400 |       0.7400 |xxxxxxxxxxxxx |xxxxxxxxxxxxx |xxxxxxxxxxxxx |xxxxxxxxxxxxx |       0.7412 |       0.7412 |       0.7412 |xxxxxxxxxxxxx |xxxxxxxxxxxxx |xxxxxxxxxxxxx |xxxxxxxxxxxxx |       0.7408 |       0.7408 |       0.7408 |
bpred_bimod.bpred_jr_rate                   1.0000 |       1.0000 |       1.0000 |xxxxxxxxxxxxx |xxxxxxxxxxxxx |xxxxxxxxxxxxx |xxxxxxxxxxxxx |       0.9726 |       0.9726 |       0.9726 |xxxxxxxxxxxxx |xxxxxxxxxxxxx |xxxxxxxxxxxxx |xxxxxxxxxxxxx |       0.9857 |       0.9857 |       0.9857 |xxxxxxxxxxxxx |xxxxxxxxxxxxx |xxxxxxxxxxxxx |xxxxxxxxxxxxx |       0.9726 |       0.9726 |       0.9726 |xxxxxxxxxxxxx |xxxxxxxxxxxxx |xxxxxxxxxxxxx |xxxxxxxxxxxxx |       0.9857 |       0.9857 |       0.9857 |xxxxxxxxxxxxx |xxxxxxxxxxxxx |xxxxxxxxxxxxx |xxxxxxxxxxxxx |       0.9726 |       0.9726 |       0.9726 |xxxxxxxxxxxxx |xxxxxxxxxxxxx |xxxxxxxxxxxxx |xxxxxxxxxxxxx |       0.9857 |       0.9857 |       0.9857 |xxxxxxxxxxxxx |xxxxxxxxxxxxx |xxxxxxxxxxxxx |xxxxxxxxxxxxx |       0.9726 |       0.9726 |       0.9726 |xxxxxxxxxxxxx |xxxxxxxxxxxxx |xxxxxxxxxxxxx |xxxxxxxxxxxxx |       0.9863 |       0.9863 |       0.9863 |xxxxxxxxxxxxx |xxxxxxxxxxxxx |xxxxxxxxxxxxx |xxxxxxxxxxxxx |       0.9868 |       0.9868 |       0.9868 |xxxxxxxxxxxxx |xxxxxxxxxxxxx |xxxxxxxxxxxxx |xxxxxxxxxxxxx |       0.9863 |       0.9863 |       0.9863 |
bpred_bimod.bpred_jr_non_ras_rate.PP       <error: |      <error: |      <error: |xxxxxxxxxxxxx |xxxxxxxxxxxxx |xxxxxxxxxxxxx |xxxxxxxxxxxxx |       0.0000 |       0.0000 |       0.0000 |xxxxxxxxxxxxx |xxxxxxxxxxxxx |xxxxxxxxxxxxx |xxxxxxxxxxxxx |      <error: |      <error: |      <error: |xxxxxxxxxxxxx |xxxxxxxxxxxxx |xxxxxxxxxxxxx |xxxxxxxxxxxxx |       0.0000 |       0.0000 |       0.0000 |xxxxxxxxxxxxx |xxxxxxxxxxxxx |xxxxxxxxxxxxx |xxxxxxxxxxxxx |      <error: |      <error: |      <error: |xxxxxxxxxxxxx |xxxxxxxxxxxxx |xxxxxxxxxxxxx |xxxxxxxxxxxxx |       0.0000 |       0.0000 |       0.0000 |xxxxxxxxxxxxx |xxxxxxxxxxxxx |xxxxxxxxxxxxx |xxxxxxxxxxxxx |      <error: |      <error: |      <error: |xxxxxxxxxxxxx |xxxxxxxxxxxxx |xxxxxxxxxxxxx |xxxxxxxxxxxxx |       0.0000 |       0.0000 |       0.0000 |xxxxxxxxxxxxx |xxxxxxxxxxxxx |xxxxxxxxxxxxx |xxxxxxxxxxxxx |       0.0000 |       0.0000 |       0.0000 |xxxxxxxxxxxxx |xxxxxxxxxxxxx |xxxxxxxxxxxxx |xxxxxxxxxxxxx |       0.5000 |       0.5000 |       0.5000 |xxxxxxxxxxxxx |xxxxxxxxxxxxx |xxxxxxxxxxxxx |xxxxxxxxxxxxx |       0.0000 |       0.0000 |       0.0000 |
bpred_bimod.retstack_pushes                     63 |           63 |           63 |xxxxxxxxxxxxx |xxxxxxxxxxxxx |xxxxxxxxxxxxx |xxxxxxxxxxxxx |           74 |           74 |           74 |xxxxxxxxxxxxx |xxxxxxxxxxxxx |xxxxxxxxxxxxx |xxxxxxxxxxxxx |           72 |           72 |           72 |xxxxxxxxxxxxx |xxxxxxxxxxxxx |xxxxxxxxxxxxx |xxxxxxxxxxxxx |           74 |           74 |           74 |xxxxxxxxxxxxx |xxxxxxxxxxxxx |xxxxxxxxxxxxx |xxxxxxxxxxxxx |           72 |           72 |           72 |xxxxxxxxxxxxx |xxxxxxxxxxxxx |xxxxxxxxxxxxx |xxxxxxxxxxxxx |           74 |           74 |           74 |xxxxxxxxxxxxx |xxxxxxxxxxxxx |xxxxxxxxxxxxx |xxxxxxxxxxxxx |           72 |           72 |           72 |xxxxxxxxxxxxx |xxxxxxxxxxxxx |xxxxxxxxxxxxx |xxxxxxxxxxxxx |           74 |           74 |           74 |xxxxxxxxxxxxx |xxxxxxxxxxxxx |xxxxxxxxxxxxx |xxxxxxxxxxxxx |           74 |           74 |           74 |xxxxxxxxxxxxx |xxxxxxxxxxxxx |xxxxxxxxxxxxx |xxxxxxxxxxxxx |           76 |           76 |           76 |xxxxxxxxxxxxx |xxxxxxxxxxxxx |xxxxxxxxxxxxx |xxxxxxxxxxxxx |           74 |           74 |           74 |
bpred_bimod.retstack_pops                       61 |           61 |           61 |xxxxxxxxxxxxx |xxxxxxxxxxxxx |xxxxxxxxxxxxx |xxxxxxxxxxxxx |           72 |           72 |           72 |xxxxxxxxxxxxx |xxxxxxxxxxxxx |xxxxxxxxxxxxx |xxxxxxxxxxxxx |           70 |           70 |           70 |xxxxxxxxxxxxx |xxxxxxxxxxxxx |xxxxxxxxxxxxx |xxxxxxxxxxxxx |           72 |           72 |           72 |xxxxxxxxxxxxx |xxxxxxxxxxxxx |xxxxxxxxxxxxx |xxxxxxxxxxxxx |           70 |           70 |           70 |xxxxxxxxxxxxx |xxxxxxxxxxxxx |xxxxxxxxxxxxx |xxxxxxxxxxxxx |           72 |           72 |           72 |xxxxxxxxxxxxx |xxxxxxxxxxxxx |xxxxxxxxxxxxx |xxxxxxxxxxxxx |           70 |           70 |           70 |xxxxxxxxxxxxx |xxxxxxxxxxxxx |xxxxxxxxxxxxx |xxxxxxxxxxxxx |           72 |           72 |           72 |xxxxxxxxxxxxx |xxxxxxxxxxxxx |xxxxxxxxxxxxx |xxxxxxxxxxxxx |           72 |           72 |           72 |xxxxxxxxxxxxx |xxxxxxxxxxxxx |xxxxxxxxxxxxx |xxxxxxxxxxxxx |           74 |           74 |           74 |xxxxxxxxxxxxx |xxxxxxxxxxxxx |xxxxxxxxxxxxx |xxxxxxxxxxxxx |           72 |           72 |           72 |
bpred_bimod.used_ras.PP                         61 |           61 |           61 |xxxxxxxxxxxxx |xxxxxxxxxxxxx |xxxxxxxxxxxxx |xxxxxxxxxxxxx |           72 |           72 |           72 |xxxxxxxxxxxxx |xxxxxxxxxxxxx |xxxxxxxxxxxxx |xxxxxxxxxxxxx |           70 |           70 |           70 |xxxxxxxxxxxxx |xxxxxxxxxxxxx |xxxxxxxxxxxxx |xxxxxxxxxxxxx |           72 |           72 |           72 |xxxxxxxxxxxxx |xxxxxxxxxxxxx |xxxxxxxxxxxxx |xxxxxxxxxxxxx |           70 |           70 |           70 |xxxxxxxxxxxxx |xxxxxxxxxxxxx |xxxxxxxxxxxxx |xxxxxxxxxxxxx |           72 |           72 |           72 |xxxxxxxxxxxxx |xxxxxxxxxxxxx |xxxxxxxxxxxxx |xxxxxxxxxxxxx |           70 |           70 |           70 |xxxxxxxxxxxxx |xxxxxxxxxxxxx |xxxxxxxxxxxxx |xxxxxxxxxxxxx |           72 |           72 |           72 |xxxxxxxxxxxxx |xxxxxxxxxxxxx |xxxxxxxxxxxxx |xxxxxxxxxxxxx |           72 |           72 |           72 |xxxxxxxxxxxxx |xxxxxxxxxxxxx |xxxxxxxxxxxxx |xxxxxxxxxxxxx |           74 |           74 |           74 |xxxxxxxxxxxxx |xxxxxxxxxxxxx |xxxxxxxxxxxxx |xxxxxxxxxxxxx |           72 |           72 |           72 |
bpred_bimod.ras_hits.PP                         61 |           61 |           61 |xxxxxxxxxxxxx |xxxxxxxxxxxxx |xxxxxxxxxxxxx |xxxxxxxxxxxxx |           71 |           71 |           71 |xxxxxxxxxxxxx |xxxxxxxxxxxxx |xxxxxxxxxxxxx |xxxxxxxxxxxxx |           69 |           69 |           69 |xxxxxxxxxxxxx |xxxxxxxxxxxxx |xxxxxxxxxxxxx |xxxxxxxxxxxxx |           71 |           71 |           71 |xxxxxxxxxxxxx |xxxxxxxxxxxxx |xxxxxxxxxxxxx |xxxxxxxxxxxxx |           69 |           69 |           69 |xxxxxxxxxxxxx |xxxxxxxxxxxxx |xxxxxxxxxxxxx |xxxxxxxxxxxxx |           71 |           71 |           71 |xxxxxxxxxxxxx |xxxxxxxxxxxxx |xxxxxxxxxxxxx |xxxxxxxxxxxxx |           69 |           69 |           69 |xxxxxxxxxxxxx |xxxxxxxxxxxxx |xxxxxxxxxxxxx |xxxxxxxxxxxxx |           71 |           71 |           71 |xxxxxxxxxxxxx |xxxxxxxxxxxxx |xxxxxxxxxxxxx |xxxxxxxxxxxxx |           72 |           72 |           72 |xxxxxxxxxxxxx |xxxxxxxxxxxxx |xxxxxxxxxxxxx |xxxxxxxxxxxxx |           74 |           74 |           74 |xxxxxxxxxxxxx |xxxxxxxxxxxxx |xxxxxxxxxxxxx |xxxxxxxxxxxxx |           72 |           72 |           72 |
bpred_bimod.ras_rate.PP                     1.0000 |       1.0000 |       1.0000 |xxxxxxxxxxxxx |xxxxxxxxxxxxx |xxxxxxxxxxxxx |xxxxxxxxxxxxx |       0.9861 |       0.9861 |       0.9861 |xxxxxxxxxxxxx |xxxxxxxxxxxxx |xxxxxxxxxxxxx |xxxxxxxxxxxxx |       0.9857 |       0.9857 |       0.9857 |xxxxxxxxxxxxx |xxxxxxxxxxxxx |xxxxxxxxxxxxx |xxxxxxxxxxxxx |       0.9861 |       0.9861 |       0.9861 |xxxxxxxxxxxxx |xxxxxxxxxxxxx |xxxxxxxxxxxxx |xxxxxxxxxxxxx |       0.9857 |       0.9857 |       0.9857 |xxxxxxxxxxxxx |xxxxxxxxxxxxx |xxxxxxxxxxxxx |xxxxxxxxxxxxx |       0.9861 |       0.9861 |       0.9861 |xxxxxxxxxxxxx |xxxxxxxxxxxxx |xxxxxxxxxxxxx |xxxxxxxxxxxxx |       0.9857 |       0.9857 |       0.9857 |xxxxxxxxxxxxx |xxxxxxxxxxxxx |xxxxxxxxxxxxx |xxxxxxxxxxxxx |       0.9861 |       0.9861 |       0.9861 |xxxxxxxxxxxxx |xxxxxxxxxxxxx |xxxxxxxxxxxxx |xxxxxxxxxxxxx |       1.0000 |       1.0000 |       1.0000 |xxxxxxxxxxxxx |xxxxxxxxxxxxx |xxxxxxxxxxxxx |xxxxxxxxxxxxx |       1.0000 |       1.0000 |       1.0000 |xxxxxxxxxxxxx |xxxxxxxxxxxxx |xxxxxxxxxxxxx |xxxxxxxxxxxxx |       1.0000 |       1.0000 |       1.0000 |
bpred_2lev.lookups                   xxxxxxxxxxxxx |xxxxxxxxxxxxx |xxxxxxxxxxxxx |        94834 |        94834 |        94834 |        94834 |xxxxxxxxxxxxx |xxxxxxxxxxxxx |xxxxxxxxxxxxx |       205914 |       205914 |       205914 |       205914 |xxxxxxxxxxxxx |xxxxxxxxxxxxx |xxxxxxxxxxxxx |       441709 |       441709 |       441709 |       441709 |xxxxxxxxxxxxx |xxxxxxxxxxxxx |xxxxxxxxxxxxx |       951514 |       951514 |       951514 |       951514 |xxxxxxxxxxxxx |xxxxxxxxxxxxx |xxxxxxxxxxxxx |      2025265 |      2025265 |      2025265 |      2025265 |xxxxxxxxxxxxx |xxxxxxxxxxxxx |xxxxxxxxxxxxx |      4330465 |      4330465 |      4330465 |      4330465 |xxxxxxxxxxxxx |xxxxxxxxxxxxx |xxxxxxxxxxxxx |      9152844 |      9152844 |      9152844 |      9152844 |xxxxxxxxxxxxx |xxxxxxxxxxxxx |xxxxxxxxxxxxx |     19419311 |     19419311 |     19419311 |     19419311 |xxxxxxxxxxxxx |xxxxxxxxxxxxx |xxxxxxxxxxxxx |     40807737 |     40807737 |     40807737 |     40807737 |xxxxxxxxxxxxx |xxxxxxxxxxxxx |xxxxxxxxxxxxx |     86073501 |     86073501 |     86073501 |     86073501 |xxxxxxxxxxxxx |xxxxxxxxxxxxx |xxxxxxxxxxxxx |    180015797 |    180015797 |    180015797 |    180015797 |
[...]
bpred_2lev.retstack_pushes           xxxxxxxxxxxxx |xxxxxxxxxxxxx |xxxxxxxxxxxxx |           63 |           63 |           63 |           63 |xxxxxxxxxxxxx |xxxxxxxxxxxxx |xxxxxxxxxxxxx |           74 |           74 |           74 |           74 |xxxxxxxxxxxxx |xxxxxxxxxxxxx |xxxxxxxxxxxxx |           72 |           72 |           72 |           72 |xxxxxxxxxxxxx |xxxxxxxxxxxxx |xxxxxxxxxxxxx |           74 |           74 |           74 |           74 |xxxxxxxxxxxxx |xxxxxxxxxxxxx |xxxxxxxxxxxxx |           72 |           72 |           72 |           72 |xxxxxxxxxxxxx |xxxxxxxxxxxxx |xxxxxxxxxxxxx |           74 |           74 |           74 |           74 |xxxxxxxxxxxxx |xxxxxxxxxxxxx |xxxxxxxxxxxxx |           72 |           72 |           72 |           72 |xxxxxxxxxxxxx |xxxxxxxxxxxxx |xxxxxxxxxxxxx |           74 |           74 |           74 |           74 |xxxxxxxxxxxxx |xxxxxxxxxxxxx |xxxxxxxxxxxxx |           74 |           74 |           74 |           74 |xxxxxxxxxxxxx |xxxxxxxxxxxxx |xxxxxxxxxxxxx |           76 |           76 |           76 |           76 |xxxxxxxxxxxxx |xxxxxxxxxxxxx |xxxxxxxxxxxxx |           74 |           74 |           74 |           74 |
bpred_2lev.retstack_pops             xxxxxxxxxxxxx |xxxxxxxxxxxxx |xxxxxxxxxxxxx |           61 |           61 |           61 |           61 |xxxxxxxxxxxxx |xxxxxxxxxxxxx |xxxxxxxxxxxxx |           72 |           72 |           72 |           72 |xxxxxxxxxxxxx |xxxxxxxxxxxxx |xxxxxxxxxxxxx |           70 |           70 |           70 |           70 |xxxxxxxxxxxxx |xxxxxxxxxxxxx |xxxxxxxxxxxxx |           72 |           72 |           72 |           72 |xxxxxxxxxxxxx |xxxxxxxxxxxxx |xxxxxxxxxxxxx |           70 |           70 |           70 |           70 |xxxxxxxxxxxxx |xxxxxxxxxxxxx |xxxxxxxxxxxxx |           72 |           72 |           72 |           72 |xxxxxxxxxxxxx |xxxxxxxxxxxxx |xxxxxxxxxxxxx |           70 |           70 |           70 |           70 |xxxxxxxxxxxxx |xxxxxxxxxxxxx |xxxxxxxxxxxxx |           72 |           72 |           72 |           72 |xxxxxxxxxxxxx |xxxxxxxxxxxxx |xxxxxxxxxxxxx |           72 |           72 |           72 |           72 |xxxxxxxxxxxxx |xxxxxxxxxxxxx |xxxxxxxxxxxxx |           74 |           74 |           74 |           74 |xxxxxxxxxxxxx |xxxxxxxxxxxxx |xxxxxxxxxxxxx |           72 |           72 |           72 |           72 |
bpred_2lev.used_ras.PP               xxxxxxxxxxxxx |xxxxxxxxxxxxx |xxxxxxxxxxxxx |           61 |           61 |           61 |           61 |xxxxxxxxxxxxx |xxxxxxxxxxxxx |xxxxxxxxxxxxx |           72 |           72 |           72 |           72 |xxxxxxxxxxxxx |xxxxxxxxxxxxx |xxxxxxxxxxxxx |           70 |           70 |           70 |           70 |xxxxxxxxxxxxx |xxxxxxxxxxxxx |xxxxxxxxxxxxx |           72 |           72 |           72 |           72 |xxxxxxxxxxxxx |xxxxxxxxxxxxx |xxxxxxxxxxxxx |           70 |           70 |           70 |           70 |xxxxxxxxxxxxx |xxxxxxxxxxxxx |xxxxxxxxxxxxx |           72 |           72 |           72 |           72 |xxxxxxxxxxxxx |xxxxxxxxxxxxx |xxxxxxxxxxxxx |           70 |           70 |           70 |           70 |xxxxxxxxxxxxx |xxxxxxxxxxxxx |xxxxxxxxxxxxx |           72 |           72 |           72 |           72 |xxxxxxxxxxxxx |xxxxxxxxxxxxx |xxxxxxxxxxxxx |           72 |           72 |           72 |           72 |xxxxxxxxxxxxx |xxxxxxxxxxxxx |xxxxxxxxxxxxx |           74 |           74 |           74 |           74 |xxxxxxxxxxxxx |xxxxxxxxxxxxx |xxxxxxxxxxxxx |           72 |           72 |           72 |           72 |
bpred_2lev.ras_hits.PP               xxxxxxxxxxxxx |xxxxxxxxxxxxx |xxxxxxxxxxxxx |           61 |           61 |           61 |           61 |xxxxxxxxxxxxx |xxxxxxxxxxxxx |xxxxxxxxxxxxx |           71 |           71 |           71 |           71 |xxxxxxxxxxxxx |xxxxxxxxxxxxx |xxxxxxxxxxxxx |           69 |           69 |           69 |           69 |xxxxxxxxxxxxx |xxxxxxxxxxxxx |xxxxxxxxxxxxx |           71 |           71 |           71 |           71 |xxxxxxxxxxxxx |xxxxxxxxxxxxx |xxxxxxxxxxxxx |           69 |           69 |           69 |           69 |xxxxxxxxxxxxx |xxxxxxxxxxxxx |xxxxxxxxxxxxx |           71 |           71 |           71 |           71 |xxxxxxxxxxxxx |xxxxxxxxxxxxx |xxxxxxxxxxxxx |           69 |           69 |           69 |           69 |xxxxxxxxxxxxx |xxxxxxxxxxxxx |xxxxxxxxxxxxx |           71 |           71 |           71 |           71 |xxxxxxxxxxxxx |xxxxxxxxxxxxx |xxxxxxxxxxxxx |           72 |           72 |           72 |           72 |xxxxxxxxxxxxx |xxxxxxxxxxxxx |xxxxxxxxxxxxx |           74 |           74 |           74 |           74 |xxxxxxxxxxxxx |xxxxxxxxxxxxx |xxxxxxxxxxxxx |           72 |           72 |           72 |           72 |
bpred_2lev.ras_rate.PP               xxxxxxxxxxxxx |xxxxxxxxxxxxx |xxxxxxxxxxxxx |       1.0000 |       1.0000 |       1.0000 |       1.0000 |xxxxxxxxxxxxx |xxxxxxxxxxxxx |xxxxxxxxxxxxx |       0.9861 |       0.9861 |       0.9861 |       0.9861 |xxxxxxxxxxxxx |xxxxxxxxxxxxx |xxxxxxxxxxxxx |       0.9857 |       0.9857 |       0.9857 |       0.9857 |xxxxxxxxxxxxx |xxxxxxxxxxxxx |xxxxxxxxxxxxx |       0.9861 |       0.9861 |       0.9861 |       0.9861 |xxxxxxxxxxxxx |xxxxxxxxxxxxx |xxxxxxxxxxxxx |       0.9857 |       0.9857 |       0.9857 |       0.9857 |xxxxxxxxxxxxx |xxxxxxxxxxxxx |xxxxxxxxxxxxx |       0.9861 |       0.9861 |       0.9861 |       0.9861 |xxxxxxxxxxxxx |xxxxxxxxxxxxx |xxxxxxxxxxxxx |       0.9857 |       0.9857 |       0.9857 |       0.9857 |xxxxxxxxxxxxx |xxxxxxxxxxxxx |xxxxxxxxxxxxx |       0.9861 |       0.9861 |       0.9861 |       0.9861 |xxxxxxxxxxxxx |xxxxxxxxxxxxx |xxxxxxxxxxxxx |       1.0000 |       1.0000 |       1.0000 |       1.0000 |xxxxxxxxxxxxx |xxxxxxxxxxxxx |xxxxxxxxxxxxx |       1.0000 |       1.0000 |       1.0000 |       1.0000 |xxxxxxxxxxxxx |xxxxxxxxxxxxx |xxxxxxxxxxxxx |       1.0000 |       1.0000 |       1.0000 |       1.0000 |

Command list: 
	sslittle-na-sstrix-gcc -Wall -O3 -funroll-loops -finline-functions  -DRANDOM_SIZE=4096 -DOFFSET=4 -DSORT=base_mergesort sorts/base_mergesort1462227993.c simpleMain.c -o base_mergesort123154063
	sim-cache -cache:dl1 dl1:256:32:1:l -cache:dl2 dl2:131072:32:1:l -cache:il1 il1:256:32:1:l -cache:il2 dl2 base_mergesort123154063
	sim-cache -cache:dl1 dl1:256:32:1:l -cache:dl2 dl2:65536:32:1:l -cache:il1 il1:256:32:1:l -cache:il2 dl2 base_mergesort123154063
	sim-cache -cache:dl1 dl1:1:32:256:l -cache:dl2 dl2:1:32:131072:l -cache:il1 il1:1:32:256:l -cache:il2 dl2 base_mergesort123154063
	sim-cache -cache:dl1 dl1:1:32:256:l -cache:dl2 dl2:1:32:65536:l -cache:il1 il1:1:32:256:l -cache:il2 dl2 base_mergesort123154063
	sim-bpred -bpred bimod -bpred:bimod 512 base_mergesort123154063
	sim-bpred -bpred bimod -bpred:bimod 1024 base_mergesort123154063
	sim-bpred -bpred bimod -bpred:bimod 2048 base_mergesort123154063
	sim-bpred -bpred 2lev -bpred:2lev 1 512 10 1 base_mergesort123154063
	sim-bpred -bpred 2lev -bpred:2lev 1 1024 10 1 base_mergesort123154063
	sim-bpred -bpred 2lev -bpred:2lev 1 2048 10 1 base_mergesort123154063
	sim-bpred -bpred 2lev -bpred:2lev 1 4096 10 1 base_mergesort123154063
	sslittle-na-sstrix-gcc -Wall -O3 -funroll-loops -finline-functions  -DRANDOM_SIZE=8192 -DOFFSET=4 -DSORT=base_mergesort sorts/base_mergesort1462227993.c simpleMain.c -o base_mergesort123154063
	sim-cache -cache:dl1 dl1:256:32:1:l -cache:dl2 dl2:131072:32:1:l -cache:il1 il1:256:32:1:l -cache:il2 dl2 base_mergesort123154063
	sim-cache -cache:dl1 dl1:256:32:1:l -cache:dl2 dl2:65536:32:1:l -cache:il1 il1:256:32:1:l -cache:il2 dl2 base_mergesort123154063
	sim-cache -cache:dl1 dl1:1:32:256:l -cache:dl2 dl2:1:32:131072:l -cache:il1 il1:1:32:256:l -cache:il2 dl2 base_mergesort123154063
	sim-cache -cache:dl1 dl1:1:32:256:l -cache:dl2 dl2:1:32:65536:l -cache:il1 il1:1:32:256:l -cache:il2 dl2 base_mergesort123154063
	sim-bpred -bpred bimod -bpred:bimod 512 base_mergesort123154063
	sim-bpred -bpred bimod -bpred:bimod 1024 base_mergesort123154063
	sim-bpred -bpred bimod -bpred:bimod 2048 base_mergesort123154063
	sim-bpred -bpred 2lev -bpred:2lev 1 512 10 1 base_mergesort123154063
	sim-bpred -bpred 2lev -bpred:2lev 1 1024 10 1 base_mergesort123154063
	sim-bpred -bpred 2lev -bpred:2lev 1 2048 10 1 base_mergesort123154063
	sim-bpred -bpred 2lev -bpred:2lev 1 4096 10 1 base_mergesort123154063
	sslittle-na-sstrix-gcc -Wall -O3 -funroll-loops -finline-functions  -DRANDOM_SIZE=16384 -DOFFSET=4 -DSORT=base_mergesort sorts/base_mergesort1462227993.c simpleMain.c -o base_mergesort123154063
	sim-cache -cache:dl1 dl1:256:32:1:l -cache:dl2 dl2:131072:32:1:l -cache:il1 il1:256:32:1:l -cache:il2 dl2 base_mergesort123154063
	sim-cache -cache:dl1 dl1:256:32:1:l -cache:dl2 dl2:65536:32:1:l -cache:il1 il1:256:32:1:l -cache:il2 dl2 base_mergesort123154063
	sim-cache -cache:dl1 dl1:1:32:256:l -cache:dl2 dl2:1:32:131072:l -cache:il1 il1:1:32:256:l -cache:il2 dl2 base_mergesort123154063
	sim-cache -cache:dl1 dl1:1:32:256:l -cache:dl2 dl2:1:32:65536:l -cache:il1 il1:1:32:256:l -cache:il2 dl2 base_mergesort123154063
	sim-bpred -bpred bimod -bpred:bimod 512 base_mergesort123154063
	sim-bpred -bpred bimod -bpred:bimod 1024 base_mergesort123154063
	sim-bpred -bpred bimod -bpred:bimod 2048 base_mergesort123154063
	sim-bpred -bpred 2lev -bpred:2lev 1 512 10 1 base_mergesort123154063
	sim-bpred -bpred 2lev -bpred:2lev 1 1024 10 1 base_mergesort123154063
	sim-bpred -bpred 2lev -bpred:2lev 1 2048 10 1 base_mergesort123154063
	sim-bpred -bpred 2lev -bpred:2lev 1 4096 10 1 base_mergesort123154063
	sslittle-na-sstrix-gcc -Wall -O3 -funroll-loops -finline-functions  -DRANDOM_SIZE=32768 -DOFFSET=4 -DSORT=base_mergesort sorts/base_mergesort1462227993.c simpleMain.c -o base_mergesort123154063
	sim-cache -cache:dl1 dl1:256:32:1:l -cache:dl2 dl2:131072:32:1:l -cache:il1 il1:256:32:1:l -cache:il2 dl2 base_mergesort123154063
	sim-cache -cache:dl1 dl1:256:32:1:l -cache:dl2 dl2:65536:32:1:l -cache:il1 il1:256:32:1:l -cache:il2 dl2 base_mergesort123154063
	sim-cache -cache:dl1 dl1:1:32:256:l -cache:dl2 dl2:1:32:131072:l -cache:il1 il1:1:32:256:l -cache:il2 dl2 base_mergesort123154063
	sim-cache -cache:dl1 dl1:1:32:256:l -cache:dl2 dl2:1:32:65536:l -cache:il1 il1:1:32:256:l -cache:il2 dl2 base_mergesort123154063
	sim-bpred -bpred bimod -bpred:bimod 512 base_mergesort123154063
	sim-bpred -bpred bimod -bpred:bimod 1024 base_mergesort123154063
	sim-bpred -bpred bimod -bpred:bimod 2048 base_mergesort123154063
	sim-bpred -bpred 2lev -bpred:2lev 1 512 10 1 base_mergesort123154063
	sim-bpred -bpred 2lev -bpred:2lev 1 1024 10 1 base_mergesort123154063
	sim-bpred -bpred 2lev -bpred:2lev 1 2048 10 1 base_mergesort123154063
	sim-bpred -bpred 2lev -bpred:2lev 1 4096 10 1 base_mergesort123154063
	sslittle-na-sstrix-gcc -Wall -O3 -funroll-loops -finline-functions  -DRANDOM_SIZE=65536 -DOFFSET=4 -DSORT=base_mergesort sorts/base_mergesort1462227993.c simpleMain.c -o base_mergesort123154063
	sim-cache -cache:dl1 dl1:256:32:1:l -cache:dl2 dl2:131072:32:1:l -cache:il1 il1:256:32:1:l -cache:il2 dl2 base_mergesort123154063
	sim-cache -cache:dl1 dl1:256:32:1:l -cache:dl2 dl2:65536:32:1:l -cache:il1 il1:256:32:1:l -cache:il2 dl2 base_mergesort123154063
	sim-cache -cache:dl1 dl1:1:32:256:l -cache:dl2 dl2:1:32:131072:l -cache:il1 il1:1:32:256:l -cache:il2 dl2 base_mergesort123154063
	sim-cache -cache:dl1 dl1:1:32:256:l -cache:dl2 dl2:1:32:65536:l -cache:il1 il1:1:32:256:l -cache:il2 dl2 base_mergesort123154063
	sim-bpred -bpred bimod -bpred:bimod 512 base_mergesort123154063
	sim-bpred -bpred bimod -bpred:bimod 1024 base_mergesort123154063
	sim-bpred -bpred bimod -bpred:bimod 2048 base_mergesort123154063
	sim-bpred -bpred 2lev -bpred:2lev 1 512 10 1 base_mergesort123154063
	sim-bpred -bpred 2lev -bpred:2lev 1 1024 10 1 base_mergesort123154063
	sim-bpred -bpred 2lev -bpred:2lev 1 2048 10 1 base_mergesort123154063
	sim-bpred -bpred 2lev -bpred:2lev 1 4096 10 1 base_mergesort123154063
	sslittle-na-sstrix-gcc -Wall -O3 -funroll-loops -finline-functions  -DRANDOM_SIZE=131072 -DOFFSET=4 -DSORT=base_mergesort sorts/base_mergesort1462227993.c simpleMain.c -o base_mergesort123154063
	sim-cache -cache:dl1 dl1:256:32:1:l -cache:dl2 dl2:131072:32:1:l -cache:il1 il1:256:32:1:l -cache:il2 dl2 base_mergesort123154063
	sim-cache -cache:dl1 dl1:256:32:1:l -cache:dl2 dl2:65536:32:1:l -cache:il1 il1:256:32:1:l -cache:il2 dl2 base_mergesort123154063
	sim-cache -cache:dl1 dl1:1:32:256:l -cache:dl2 dl2:1:32:131072:l -cache:il1 il1:1:32:256:l -cache:il2 dl2 base_mergesort123154063
	sim-cache -cache:dl1 dl1:1:32:256:l -cache:dl2 dl2:1:32:65536:l -cache:il1 il1:1:32:256:l -cache:il2 dl2 base_mergesort123154063
	sim-bpred -bpred bimod -bpred:bimod 512 base_mergesort123154063
	sim-bpred -bpred bimod -bpred:bimod 1024 base_mergesort123154063
	sim-bpred -bpred bimod -bpred:bimod 2048 base_mergesort123154063
	sim-bpred -bpred 2lev -bpred:2lev 1 512 10 1 base_mergesort123154063
	sim-bpred -bpred 2lev -bpred:2lev 1 1024 10 1 base_mergesort123154063
	sim-bpred -bpred 2lev -bpred:2lev 1 2048 10 1 base_mergesort123154063
	sim-bpred -bpred 2lev -bpred:2lev 1 4096 10 1 base_mergesort123154063
	sslittle-na-sstrix-gcc -Wall -O3 -funroll-loops -finline-functions  -DRANDOM_SIZE=262144 -DOFFSET=4 -DSORT=base_mergesort sorts/base_mergesort1462227993.c simpleMain.c -o base_mergesort123154063
	sim-cache -cache:dl1 dl1:256:32:1:l -cache:dl2 dl2:131072:32:1:l -cache:il1 il1:256:32:1:l -cache:il2 dl2 base_mergesort123154063
	sim-cache -cache:dl1 dl1:256:32:1:l -cache:dl2 dl2:65536:32:1:l -cache:il1 il1:256:32:1:l -cache:il2 dl2 base_mergesort123154063
	sim-cache -cache:dl1 dl1:1:32:256:l -cache:dl2 dl2:1:32:131072:l -cache:il1 il1:1:32:256:l -cache:il2 dl2 base_mergesort123154063
	sim-cache -cache:dl1 dl1:1:32:256:l -cache:dl2 dl2:1:32:65536:l -cache:il1 il1:1:32:256:l -cache:il2 dl2 base_mergesort123154063
	sim-bpred -bpred bimod -bpred:bimod 512 base_mergesort123154063
	sim-bpred -bpred bimod -bpred:bimod 1024 base_mergesort123154063
	sim-bpred -bpred bimod -bpred:bimod 2048 base_mergesort123154063
	sim-bpred -bpred 2lev -bpred:2lev 1 512 10 1 base_mergesort123154063
	sim-bpred -bpred 2lev -bpred:2lev 1 1024 10 1 base_mergesort123154063
	sim-bpred -bpred 2lev -bpred:2lev 1 2048 10 1 base_mergesort123154063
	sim-bpred -bpred 2lev -bpred:2lev 1 4096 10 1 base_mergesort123154063
	sslittle-na-sstrix-gcc -Wall -O3 -funroll-loops -finline-functions  -DRANDOM_SIZE=524288 -DOFFSET=4 -DSORT=base_mergesort sorts/base_mergesort1462227993.c simpleMain.c -o base_mergesort123154063
	sim-cache -cache:dl1 dl1:256:32:1:l -cache:dl2 dl2:131072:32:1:l -cache:il1 il1:256:32:1:l -cache:il2 dl2 base_mergesort123154063
	sim-cache -cache:dl1 dl1:256:32:1:l -cache:dl2 dl2:65536:32:1:l -cache:il1 il1:256:32:1:l -cache:il2 dl2 base_mergesort123154063
	sim-cache -cache:dl1 dl1:1:32:256:l -cache:dl2 dl2:1:32:131072:l -cache:il1 il1:1:32:256:l -cache:il2 dl2 base_mergesort123154063
	sim-cache -cache:dl1 dl1:1:32:256:l -cache:dl2 dl2:1:32:65536:l -cache:il1 il1:1:32:256:l -cache:il2 dl2 base_mergesort123154063
	sim-bpred -bpred bimod -bpred:bimod 512 base_mergesort123154063
	sim-bpred -bpred bimod -bpred:bimod 1024 base_mergesort123154063
	sim-bpred -bpred bimod -bpred:bimod 2048 base_mergesort123154063
	sim-bpred -bpred 2lev -bpred:2lev 1 512 10 1 base_mergesort123154063
	sim-bpred -bpred 2lev -bpred:2lev 1 1024 10 1 base_mergesort123154063
	sim-bpred -bpred 2lev -bpred:2lev 1 2048 10 1 base_mergesort123154063
	sim-bpred -bpred 2lev -bpred:2lev 1 4096 10 1 base_mergesort123154063
	sslittle-na-sstrix-gcc -Wall -O3 -funroll-loops -finline-functions  -DRANDOM_SIZE=1048576 -DOFFSET=4 -DSORT=base_mergesort sorts/base_mergesort1462227993.c simpleMain.c -o base_mergesort123154063
	sim-cache -cache:dl1 dl1:256:32:1:l -cache:dl2 dl2:131072:32:1:l -cache:il1 il1:256:32:1:l -cache:il2 dl2 base_mergesort123154063
	sim-cache -cache:dl1 dl1:256:32:1:l -cache:dl2 dl2:65536:32:1:l -cache:il1 il1:256:32:1:l -cache:il2 dl2 base_mergesort123154063
	sim-cache -cache:dl1 dl1:1:32:256:l -cache:dl2 dl2:1:32:131072:l -cache:il1 il1:1:32:256:l -cache:il2 dl2 base_mergesort123154063
	sim-cache -cache:dl1 dl1:1:32:256:l -cache:dl2 dl2:1:32:65536:l -cache:il1 il1:1:32:256:l -cache:il2 dl2 base_mergesort123154063
	sim-bpred -bpred bimod -bpred:bimod 512 base_mergesort123154063
	sim-bpred -bpred bimod -bpred:bimod 1024 base_mergesort123154063
	sim-bpred -bpred bimod -bpred:bimod 2048 base_mergesort123154063
	sim-bpred -bpred 2lev -bpred:2lev 1 512 10 1 base_mergesort123154063
	sim-bpred -bpred 2lev -bpred:2lev 1 1024 10 1 base_mergesort123154063
	sim-bpred -bpred 2lev -bpred:2lev 1 2048 10 1 base_mergesort123154063
	sim-bpred -bpred 2lev -bpred:2lev 1 4096 10 1 base_mergesort123154063
	sslittle-na-sstrix-gcc -Wall -O3 -funroll-loops -finline-functions  -DRANDOM_SIZE=2097152 -DOFFSET=4 -DSORT=base_mergesort sorts/base_mergesort1462227993.c simpleMain.c -o base_mergesort123154063
	sim-cache -cache:dl1 dl1:256:32:1:l -cache:dl2 dl2:131072:32:1:l -cache:il1 il1:256:32:1:l -cache:il2 dl2 base_mergesort123154063
	sim-cache -cache:dl1 dl1:256:32:1:l -cache:dl2 dl2:65536:32:1:l -cache:il1 il1:256:32:1:l -cache:il2 dl2 base_mergesort123154063
	sim-cache -cache:dl1 dl1:1:32:256:l -cache:dl2 dl2:1:32:131072:l -cache:il1 il1:1:32:256:l -cache:il2 dl2 base_mergesort123154063
	sim-cache -cache:dl1 dl1:1:32:256:l -cache:dl2 dl2:1:32:65536:l -cache:il1 il1:1:32:256:l -cache:il2 dl2 base_mergesort123154063
	sim-bpred -bpred bimod -bpred:bimod 512 base_mergesort123154063
	sim-bpred -bpred bimod -bpred:bimod 1024 base_mergesort123154063
	sim-bpred -bpred bimod -bpred:bimod 2048 base_mergesort123154063
	sim-bpred -bpred 2lev -bpred:2lev 1 512 10 1 base_mergesort123154063
	sim-bpred -bpred 2lev -bpred:2lev 1 1024 10 1 base_mergesort123154063
	sim-bpred -bpred 2lev -bpred:2lev 1 2048 10 1 base_mergesort123154063
	sim-bpred -bpred 2lev -bpred:2lev 1 4096 10 1 base_mergesort123154063
	sslittle-na-sstrix-gcc -Wall -O3 -funroll-loops -finline-functions  -DRANDOM_SIZE=4194304 -DOFFSET=4 -DSORT=base_mergesort sorts/base_mergesort1462227993.c simpleMain.c -o base_mergesort123154063
	sim-cache -cache:dl1 dl1:256:32:1:l -cache:dl2 dl2:131072:32:1:l -cache:il1 il1:256:32:1:l -cache:il2 dl2 base_mergesort123154063
	sim-cache -cache:dl1 dl1:256:32:1:l -cache:dl2 dl2:65536:32:1:l -cache:il1 il1:256:32:1:l -cache:il2 dl2 base_mergesort123154063
	sim-cache -cache:dl1 dl1:1:32:256:l -cache:dl2 dl2:1:32:131072:l -cache:il1 il1:1:32:256:l -cache:il2 dl2 base_mergesort123154063
	sim-cache -cache:dl1 dl1:1:32:256:l -cache:dl2 dl2:1:32:65536:l -cache:il1 il1:1:32:256:l -cache:il2 dl2 base_mergesort123154063
	sim-bpred -bpred bimod -bpred:bimod 512 base_mergesort123154063
	sim-bpred -bpred bimod -bpred:bimod 1024 base_mergesort123154063
	sim-bpred -bpred bimod -bpred:bimod 2048 base_mergesort123154063
	sim-bpred -bpred 2lev -bpred:2lev 1 512 10 1 base_mergesort123154063
	sim-bpred -bpred 2lev -bpred:2lev 1 1024 10 1 base_mergesort123154063
	sim-bpred -bpred 2lev -bpred:2lev 1 2048 10 1 base_mergesort123154063
	sim-bpred -bpred 2lev -bpred:2lev 1 4096 10 1 base_mergesort123154063
