Mon Jun 13 21:24:23 2005
Run as: "./simple -c random.org0 -o 0 base_heapsort"
-------------------------------------------------------------------------------------------------
sim-cache                                     4096 |         4096 |         4096 |         4096 |         8192 |         8192 |         8192 |         8192 |        16384 |        16384 |        16384 |        16384 |        32768 |        32768 |        32768 |        32768 |        65536 |        65536 |        65536 |        65536 |       131072 |       131072 |       131072 |       131072 |       262144 |       262144 |       262144 |       262144 |       524288 |       524288 |       524288 |       524288 |      1048576 |      1048576 |      1048576 |      1048576 |      2097152 |      2097152 |      2097152 |      2097152 |      4194304 |      4194304 |      4194304 |      4194304 |
-cache:dl1 dl1:256:32:1:l -cache:dl2 dl2:131072:32:1:l -cache:il1 il1:256:32:1:l -cache:il2 dl2
-cache:dl1 dl1:256:32:1:l -cache:dl2 dl2:65536:32:1:l -cache:il1 il1:256:32:1:l -cache:il2 dl2
-cache:dl1 dl1:1:32:256:l -cache:dl2 dl2:1:32:131072:l -cache:il1 il1:1:32:256:l -cache:il2 dl2
-cache:dl1 dl1:1:32:256:l -cache:dl2 dl2:1:32:65536:l -cache:il1 il1:1:32:256:l -cache:il2 dl2
-------------------------------------------------------------------------------------------------
sim_num_insn                                907401 |       907401 |       907401 |       907401 |      1970270 |      1970270 |      1970270 |      1970270 |      4250329 |      4250329 |      4250329 |      4250329 |      9135609 |      9135609 |      9135609 |      9135609 |     19544964 |     19544964 |     19544964 |     19544964 |     41637893 |     41637893 |     41637893 |     41637893 |     88382681 |     88382681 |     88382681 |     88382681 |    186983261 |    186983261 |    186983261 |    186983261 |    394395529 |    394395529 |    394395529 |    394395529 |    829698691 |    829698691 |    829698691 |    829698691 |   1741211768 |   1741211768 |   1741211768 |   1741211768 |
sim_num_refs                                198028 |       198028 |       198028 |       198028 |       425508 |       425508 |       425508 |       425508 |       912331 |       912331 |       912331 |       912331 |      1952435 |      1952435 |      1952435 |      1952435 |      4163704 |      4163704 |      4163704 |      4163704 |      8847805 |      8847805 |      8847805 |      8847805 |     18740792 |     18740792 |     18740792 |     18740792 |     39575447 |     39575447 |     39575447 |     39575447 |     83339537 |     83339537 |     83339537 |     83339537 |    175067165 |    175067165 |    175067165 |    175067165 |    366914420 |    366914420 |    366914420 |    366914420 |
sim_elapsed_time                                 1 |            1 |            7 |            4 |            1 |            1 |           10 |            6 |            1 |            1 |           16 |            9 |            2 |            3 |           27 |           15 |            5 |            5 |           51 |           27 |           11 |           12 |           95 |           51 |           25 |           24 |          179 |           92 |           53 |           52 |          316 |          147 |          113 |          113 |          474 |          225 |          242 |          241 |          650 |          394 |          516 |          514 |         1005 |          749 |
sim_inst_rate                          907401.0000 |  907401.0000 |  129628.7143 |  226850.2500 | 1970270.0000 | 1970270.0000 |  197027.0000 |  328378.3333 | 4250329.0000 | 4250329.0000 |  265645.5625 |  472258.7778 | 4567804.5000 | 3045203.0000 |  338355.8889 |  609040.6000 | 3908992.8000 | 3908992.8000 |  383234.5882 |  723887.5556 | 3785263.0000 | 3469824.4167 |  438293.6105 |  816429.2745 | 3535307.2400 | 3682611.7083 |  493757.9944 |  960681.3152 | 3527986.0566 | 3595831.9423 |  591719.1804 | 1271994.9728 | 3490225.9204 | 3490225.9204 |  832058.0781 | 1752869.0178 | 3428506.9876 | 3442733.1577 | 1276459.5246 | 2105834.2411 | 3374441.4109 | 3387571.5331 | 1732549.0229 | 2324715.3111 |
il1.accesses                                907401 |       907401 |       907401 |       907401 |      1970270 |      1970270 |      1970270 |      1970270 |      4250329 |      4250329 |      4250329 |      4250329 |      9135609 |      9135609 |      9135609 |      9135609 |     19544964 |     19544964 |     19544964 |     19544964 |     41637893 |     41637893 |     41637893 |     41637893 |     88382681 |     88382681 |     88382681 |     88382681 |    186983261 |    186983261 |    186983261 |    186983261 |    394395529 |    394395529 |    394395529 |    394395529 |    829698691 |    829698691 |    829698691 |    829698691 |   1741211768 |   1741211768 |   1741211768 |   1741211768 |
il1.hits                                    906930 |       906930 |       906984 |       906984 |      1969799 |      1969799 |      1969853 |      1969853 |      4249847 |      4249847 |      4249906 |      4249906 |      9135135 |      9135135 |      9135189 |      9135189 |     19544491 |     19544491 |     19544545 |     19544545 |     41637419 |     41637419 |     41637473 |     41637473 |     88382207 |     88382207 |     88382261 |     88382261 |    186982788 |    186982788 |    186982842 |    186982842 |    394395056 |    394395056 |    394395110 |    394395110 |    829698218 |    829698218 |    829698272 |    829698272 |   1741211295 |   1741211295 |   1741211349 |   1741211349 |
il1.misses                                     471 |          471 |          417 |          417 |          471 |          471 |          417 |          417 |          482 |          482 |          423 |          423 |          474 |          474 |          420 |          420 |          473 |          473 |          419 |          419 |          474 |          474 |          420 |          420 |          474 |          474 |          420 |          420 |          473 |          473 |          419 |          419 |          473 |          473 |          419 |          419 |          473 |          473 |          419 |          419 |          473 |          473 |          419 |          419 |
il1.replacements                               237 |          237 |          161 |          161 |          237 |          237 |          161 |          161 |          245 |          245 |          167 |          167 |          239 |          239 |          164 |          164 |          238 |          238 |          163 |          163 |          239 |          239 |          164 |          164 |          239 |          239 |          164 |          164 |          238 |          238 |          163 |          163 |          238 |          238 |          163 |          163 |          238 |          238 |          163 |          163 |          238 |          238 |          163 |          163 |
il1.writebacks                                   0 |            0 |            0 |            0 |            0 |            0 |            0 |            0 |            0 |            0 |            0 |            0 |            0 |            0 |            0 |            0 |            0 |            0 |            0 |            0 |            0 |            0 |            0 |            0 |            0 |            0 |            0 |            0 |            0 |            0 |            0 |            0 |            0 |            0 |            0 |            0 |            0 |            0 |            0 |            0 |            0 |            0 |            0 |            0 |
il1.invalidations                                0 |            0 |            0 |            0 |            0 |            0 |            0 |            0 |            0 |            0 |            0 |            0 |            0 |            0 |            0 |            0 |            0 |            0 |            0 |            0 |            0 |            0 |            0 |            0 |            0 |            0 |            0 |            0 |            0 |            0 |            0 |            0 |            0 |            0 |            0 |            0 |            0 |            0 |            0 |            0 |            0 |            0 |            0 |            0 |
il1.miss_rate                               0.0005 |       0.0005 |       0.0005 |       0.0005 |       0.0002 |       0.0002 |       0.0002 |       0.0002 |       0.0001 |       0.0001 |       0.0001 |       0.0001 |       0.0001 |       0.0001 |       0.0000 |       0.0000 |       0.0000 |       0.0000 |       0.0000 |       0.0000 |       0.0000 |       0.0000 |       0.0000 |       0.0000 |       0.0000 |       0.0000 |       0.0000 |       0.0000 |       0.0000 |       0.0000 |       0.0000 |       0.0000 |       0.0000 |       0.0000 |       0.0000 |       0.0000 |       0.0000 |       0.0000 |       0.0000 |       0.0000 |       0.0000 |       0.0000 |       0.0000 |       0.0000 |
il1.repl_rate                               0.0003 |       0.0003 |       0.0002 |       0.0002 |       0.0001 |       0.0001 |       0.0001 |       0.0001 |       0.0001 |       0.0001 |       0.0000 |       0.0000 |       0.0000 |       0.0000 |       0.0000 |       0.0000 |       0.0000 |       0.0000 |       0.0000 |       0.0000 |       0.0000 |       0.0000 |       0.0000 |       0.0000 |       0.0000 |       0.0000 |       0.0000 |       0.0000 |       0.0000 |       0.0000 |       0.0000 |       0.0000 |       0.0000 |       0.0000 |       0.0000 |       0.0000 |       0.0000 |       0.0000 |       0.0000 |       0.0000 |       0.0000 |       0.0000 |       0.0000 |       0.0000 |
il1.wb_rate                                 0.0000 |       0.0000 |       0.0000 |       0.0000 |       0.0000 |       0.0000 |       0.0000 |       0.0000 |       0.0000 |       0.0000 |       0.0000 |       0.0000 |       0.0000 |       0.0000 |       0.0000 |       0.0000 |       0.0000 |       0.0000 |       0.0000 |       0.0000 |       0.0000 |       0.0000 |       0.0000 |       0.0000 |       0.0000 |       0.0000 |       0.0000 |       0.0000 |       0.0000 |       0.0000 |       0.0000 |       0.0000 |       0.0000 |       0.0000 |       0.0000 |       0.0000 |       0.0000 |       0.0000 |       0.0000 |       0.0000 |       0.0000 |       0.0000 |       0.0000 |       0.0000 |
il1.inv_rate                                0.0000 |       0.0000 |       0.0000 |       0.0000 |       0.0000 |       0.0000 |       0.0000 |       0.0000 |       0.0000 |       0.0000 |       0.0000 |       0.0000 |       0.0000 |       0.0000 |       0.0000 |       0.0000 |       0.0000 |       0.0000 |       0.0000 |       0.0000 |       0.0000 |       0.0000 |       0.0000 |       0.0000 |       0.0000 |       0.0000 |       0.0000 |       0.0000 |       0.0000 |       0.0000 |       0.0000 |       0.0000 |       0.0000 |       0.0000 |       0.0000 |       0.0000 |       0.0000 |       0.0000 |       0.0000 |       0.0000 |       0.0000 |       0.0000 |       0.0000 |       0.0000 |
dl1.accesses                                214486 |       214486 |       214486 |       214486 |       458350 |       458350 |       458350 |       458350 |       977941 |       977941 |       977941 |       977941 |      2083581 |      2083581 |      2083581 |      2083581 |      4425922 |      4425922 |      4425922 |      4425922 |      9372167 |      9372167 |      9372167 |      9372167 |     19789442 |     19789442 |     19789442 |     19789442 |     41672673 |     41672673 |     41672673 |     41672673 |     87533915 |     87533915 |     87533915 |     87533915 |    183455847 |    183455847 |    183455847 |    183455847 |    383691710 |    383691710 |    383691710 |    383691710 |
dl1.hits                                    209421 |       209421 |       209306 |       209306 |       436763 |       436763 |       438392 |       438392 |       909444 |       909444 |       914494 |       914494 |      1894222 |      1894222 |      1907048 |      1907048 |      3941815 |      3941815 |      3972532 |      3972532 |      8195171 |      8195171 |      8265849 |      8265849 |     17027473 |     17027473 |     17186596 |     17186596 |     35352399 |     35352399 |     35696215 |     35696215 |     73318650 |     73318650 |     74062321 |     74062321 |    151941021 |    151941021 |    153514892 |    153514892 |    314567192 |    314567192 |    317898510 |    317898510 |
dl1.misses                                    5065 |         5065 |         5180 |         5180 |        21587 |        21587 |        19958 |        19958 |        68497 |        68497 |        63447 |        63447 |       189359 |       189359 |       176533 |       176533 |       484107 |       484107 |       453390 |       453390 |      1176996 |      1176996 |      1106318 |      1106318 |      2761969 |      2761969 |      2602846 |      2602846 |      6320274 |      6320274 |      5976458 |      5976458 |     14215265 |     14215265 |     13471594 |     13471594 |     31514826 |     31514826 |     29940955 |     29940955 |     69124518 |     69124518 |     65793200 |     65793200 |
dl1.replacements                              4809 |         4809 |         4924 |         4924 |        21331 |        21331 |        19702 |        19702 |        68241 |        68241 |        63191 |        63191 |       189103 |       189103 |       176277 |       176277 |       483851 |       483851 |       453134 |       453134 |      1176740 |      1176740 |      1106062 |      1106062 |      2761713 |      2761713 |      2602590 |      2602590 |      6320018 |      6320018 |      5976202 |      5976202 |     14215009 |     14215009 |     13471338 |     13471338 |     31514570 |     31514570 |     29940699 |     29940699 |     69124262 |     69124262 |     65792944 |     65792944 |
dl1.writebacks                                4173 |         4173 |         4312 |         4312 |        18132 |        18132 |        16713 |        16713 |        57084 |        57084 |        52504 |        52504 |       156778 |       156778 |       145002 |       145002 |       399015 |       399015 |       371073 |       371073 |       965487 |       965487 |       901972 |       901972 |      2258158 |      2258158 |      2116764 |      2116764 |      5152216 |      5152216 |      4849369 |      4849369 |     11560945 |     11560945 |     10913894 |     10913894 |     25582115 |     25582115 |     24225778 |     24225778 |     56023483 |     56023483 |     53180458 |     53180458 |
dl1.invalidations                                0 |            0 |            0 |            0 |            0 |            0 |            0 |            0 |            0 |            0 |            0 |            0 |            0 |            0 |            0 |            0 |            0 |            0 |            0 |            0 |            0 |            0 |            0 |            0 |            0 |            0 |            0 |            0 |            0 |            0 |            0 |            0 |            0 |            0 |            0 |            0 |            0 |            0 |            0 |            0 |            0 |            0 |            0 |            0 |
dl1.miss_rate                               0.0236 |       0.0236 |       0.0242 |       0.0242 |       0.0471 |       0.0471 |       0.0435 |       0.0435 |       0.0700 |       0.0700 |       0.0649 |       0.0649 |       0.0909 |       0.0909 |       0.0847 |       0.0847 |       0.1094 |       0.1094 |       0.1024 |       0.1024 |       0.1256 |       0.1256 |       0.1180 |       0.1180 |       0.1396 |       0.1396 |       0.1315 |       0.1315 |       0.1517 |       0.1517 |       0.1434 |       0.1434 |       0.1624 |       0.1624 |       0.1539 |       0.1539 |       0.1718 |       0.1718 |       0.1632 |       0.1632 |       0.1802 |       0.1802 |       0.1715 |       0.1715 |
dl1.repl_rate                               0.0224 |       0.0224 |       0.0230 |       0.0230 |       0.0465 |       0.0465 |       0.0430 |       0.0430 |       0.0698 |       0.0698 |       0.0646 |       0.0646 |       0.0908 |       0.0908 |       0.0846 |       0.0846 |       0.1093 |       0.1093 |       0.1024 |       0.1024 |       0.1256 |       0.1256 |       0.1180 |       0.1180 |       0.1396 |       0.1396 |       0.1315 |       0.1315 |       0.1517 |       0.1517 |       0.1434 |       0.1434 |       0.1624 |       0.1624 |       0.1539 |       0.1539 |       0.1718 |       0.1718 |       0.1632 |       0.1632 |       0.1802 |       0.1802 |       0.1715 |       0.1715 |
dl1.wb_rate                                 0.0195 |       0.0195 |       0.0201 |       0.0201 |       0.0396 |       0.0396 |       0.0365 |       0.0365 |       0.0584 |       0.0584 |       0.0537 |       0.0537 |       0.0752 |       0.0752 |       0.0696 |       0.0696 |       0.0902 |       0.0902 |       0.0838 |       0.0838 |       0.1030 |       0.1030 |       0.0962 |       0.0962 |       0.1141 |       0.1141 |       0.1070 |       0.1070 |       0.1236 |       0.1236 |       0.1164 |       0.1164 |       0.1321 |       0.1321 |       0.1247 |       0.1247 |       0.1394 |       0.1394 |       0.1321 |       0.1321 |       0.1460 |       0.1460 |       0.1386 |       0.1386 |
dl1.inv_rate                                0.0000 |       0.0000 |       0.0000 |       0.0000 |       0.0000 |       0.0000 |       0.0000 |       0.0000 |       0.0000 |       0.0000 |       0.0000 |       0.0000 |       0.0000 |       0.0000 |       0.0000 |       0.0000 |       0.0000 |       0.0000 |       0.0000 |       0.0000 |       0.0000 |       0.0000 |       0.0000 |       0.0000 |       0.0000 |       0.0000 |       0.0000 |       0.0000 |       0.0000 |       0.0000 |       0.0000 |       0.0000 |       0.0000 |       0.0000 |       0.0000 |       0.0000 |       0.0000 |       0.0000 |       0.0000 |       0.0000 |       0.0000 |       0.0000 |       0.0000 |       0.0000 |
dl2.accesses                                  9709 |         9709 |         9909 |         9909 |        40190 |        40190 |        37088 |        37088 |       126063 |       126063 |       116374 |       116374 |       346611 |       346611 |       321955 |       321955 |       883595 |       883595 |       824882 |       824882 |      2142957 |      2142957 |      2008710 |      2008710 |      5020601 |      5020601 |      4720030 |      4720030 |     11472963 |     11472963 |     10826246 |     10826246 |     25776683 |     25776683 |     24385907 |     24385907 |     57097414 |     57097414 |     54167152 |     54167152 |    125148474 |    125148474 |    118974077 |    118974077 |
dl2.hits                                      8368 |         8368 |         8573 |         8573 |        38338 |        38338 |        35240 |        35240 |       123180 |       123180 |       113494 |       113494 |       341681 |       341681 |       317032 |       317032 |       874570 |       874570 |       815864 |       815864 |      2125739 |      2125739 |      1991499 |      1991499 |      4986999 |      4986999 |      4686435 |      4686435 |     11406594 |     11406452 |     10759884 |     10759056 |     25644636 |     24656875 |     24252855 |     23189730 |     54860828 |     51916823 |     51779052 |     49181937 |    114788629 |    108310204 |    109008121 |    102922227 |
dl2.misses                                    1341 |         1341 |         1336 |         1336 |         1852 |         1852 |         1848 |         1848 |         2883 |         2883 |         2880 |         2880 |         4930 |         4930 |         4923 |         4923 |         9025 |         9025 |         9018 |         9018 |        17218 |        17218 |        17211 |        17211 |        33602 |        33602 |        33595 |        33595 |        66369 |        66511 |        66362 |        67190 |       132047 |      1119808 |       133052 |      1196177 |      2236586 |      5180591 |      2388100 |      4985215 |     10359845 |     16838270 |      9965956 |     16051850 |
dl2.replacements                                47 |           47 |            0 |            0 |           46 |           46 |            0 |            0 |           44 |           44 |            0 |            0 |           50 |           50 |            0 |            0 |           50 |           50 |            0 |            0 |           50 |           50 |            0 |            0 |           50 |           50 |            0 |            0 |           50 |          975 |            0 |         1654 |          975 |      1054272 |         1980 |      1130641 |      2105514 |      5115055 |      2257028 |      4919679 |     10228773 |     16772734 |      9834884 |     15986314 |
dl2.writebacks                                   4 |            4 |            0 |            0 |            3 |            3 |            0 |            0 |            2 |            2 |            0 |            0 |            2 |            2 |            0 |            0 |            2 |            2 |            0 |            0 |            2 |            2 |            0 |            0 |            2 |            2 |            0 |            0 |            2 |          753 |            0 |         1468 |          753 |       906201 |         1794 |       978796 |      1810217 |      4349536 |      1955635 |      4153181 |      8696343 |     14104946 |      8301953 |     13294655 |
dl2.invalidations                                0 |            0 |            0 |            0 |            0 |            0 |            0 |            0 |            0 |            0 |            0 |            0 |            0 |            0 |            0 |            0 |            0 |            0 |            0 |            0 |            0 |            0 |            0 |            0 |            0 |            0 |            0 |            0 |            0 |            0 |            0 |            0 |            0 |            0 |            0 |            0 |            0 |            0 |            0 |            0 |            0 |            0 |            0 |            0 |
dl2.miss_rate                               0.1381 |       0.1381 |       0.1348 |       0.1348 |       0.0461 |       0.0461 |       0.0498 |       0.0498 |       0.0229 |       0.0229 |       0.0247 |       0.0247 |       0.0142 |       0.0142 |       0.0153 |       0.0153 |       0.0102 |       0.0102 |       0.0109 |       0.0109 |       0.0080 |       0.0080 |       0.0086 |       0.0086 |       0.0067 |       0.0067 |       0.0071 |       0.0071 |       0.0058 |       0.0058 |       0.0061 |       0.0062 |       0.0051 |       0.0434 |       0.0055 |       0.0491 |       0.0392 |       0.0907 |       0.0441 |       0.0920 |       0.0828 |       0.1345 |       0.0838 |       0.1349 |
dl2.repl_rate                               0.0048 |       0.0048 |       0.0000 |       0.0000 |       0.0011 |       0.0011 |       0.0000 |       0.0000 |       0.0003 |       0.0003 |       0.0000 |       0.0000 |       0.0001 |       0.0001 |       0.0000 |       0.0000 |       0.0001 |       0.0001 |       0.0000 |       0.0000 |       0.0000 |       0.0000 |       0.0000 |       0.0000 |       0.0000 |       0.0000 |       0.0000 |       0.0000 |       0.0000 |       0.0001 |       0.0000 |       0.0002 |       0.0000 |       0.0409 |       0.0001 |       0.0464 |       0.0369 |       0.0896 |       0.0417 |       0.0908 |       0.0817 |       0.1340 |       0.0827 |       0.1344 |
dl2.wb_rate                                 0.0004 |       0.0004 |       0.0000 |       0.0000 |       0.0001 |       0.0001 |       0.0000 |       0.0000 |       0.0000 |       0.0000 |       0.0000 |       0.0000 |       0.0000 |       0.0000 |       0.0000 |       0.0000 |       0.0000 |       0.0000 |       0.0000 |       0.0000 |       0.0000 |       0.0000 |       0.0000 |       0.0000 |       0.0000 |       0.0000 |       0.0000 |       0.0000 |       0.0000 |       0.0001 |       0.0000 |       0.0001 |       0.0000 |       0.0352 |       0.0001 |       0.0401 |       0.0317 |       0.0762 |       0.0361 |       0.0767 |       0.0695 |       0.1127 |       0.0698 |       0.1117 |
dl2.inv_rate                                0.0000 |       0.0000 |       0.0000 |       0.0000 |       0.0000 |       0.0000 |       0.0000 |       0.0000 |       0.0000 |       0.0000 |       0.0000 |       0.0000 |       0.0000 |       0.0000 |       0.0000 |       0.0000 |       0.0000 |       0.0000 |       0.0000 |       0.0000 |       0.0000 |       0.0000 |       0.0000 |       0.0000 |       0.0000 |       0.0000 |       0.0000 |       0.0000 |       0.0000 |       0.0000 |       0.0000 |       0.0000 |       0.0000 |       0.0000 |       0.0000 |       0.0000 |       0.0000 |       0.0000 |       0.0000 |       0.0000 |       0.0000 |       0.0000 |       0.0000 |       0.0000 |
itlb.accesses                               907401 |       907401 |       907401 |       907401 |      1970270 |      1970270 |      1970270 |      1970270 |      4250329 |      4250329 |      4250329 |      4250329 |      9135609 |      9135609 |      9135609 |      9135609 |     19544964 |     19544964 |     19544964 |     19544964 |     41637893 |     41637893 |     41637893 |     41637893 |     88382681 |     88382681 |     88382681 |     88382681 |    186983261 |    186983261 |    186983261 |    186983261 |    394395529 |    394395529 |    394395529 |    394395529 |    829698691 |    829698691 |    829698691 |    829698691 |   1741211768 |   1741211768 |   1741211768 |   1741211768 |
itlb.hits                                   907391 |       907391 |       907391 |       907391 |      1970260 |      1970260 |      1970260 |      1970260 |      4250319 |      4250319 |      4250319 |      4250319 |      9135599 |      9135599 |      9135599 |      9135599 |     19544954 |     19544954 |     19544954 |     19544954 |     41637883 |     41637883 |     41637883 |     41637883 |     88382671 |     88382671 |     88382671 |     88382671 |    186983251 |    186983251 |    186983251 |    186983251 |    394395519 |    394395519 |    394395519 |    394395519 |    829698681 |    829698681 |    829698681 |    829698681 |   1741211758 |   1741211758 |   1741211758 |   1741211758 |
itlb.misses                                     10 |           10 |           10 |           10 |           10 |           10 |           10 |           10 |           10 |           10 |           10 |           10 |           10 |           10 |           10 |           10 |           10 |           10 |           10 |           10 |           10 |           10 |           10 |           10 |           10 |           10 |           10 |           10 |           10 |           10 |           10 |           10 |           10 |           10 |           10 |           10 |           10 |           10 |           10 |           10 |           10 |           10 |           10 |           10 |
itlb.replacements                                0 |            0 |            0 |            0 |            0 |            0 |            0 |            0 |            0 |            0 |            0 |            0 |            0 |            0 |            0 |            0 |            0 |            0 |            0 |            0 |            0 |            0 |            0 |            0 |            0 |            0 |            0 |            0 |            0 |            0 |            0 |            0 |            0 |            0 |            0 |            0 |            0 |            0 |            0 |            0 |            0 |            0 |            0 |            0 |
itlb.writebacks                                  0 |            0 |            0 |            0 |            0 |            0 |            0 |            0 |            0 |            0 |            0 |            0 |            0 |            0 |            0 |            0 |            0 |            0 |            0 |            0 |            0 |            0 |            0 |            0 |            0 |            0 |            0 |            0 |            0 |            0 |            0 |            0 |            0 |            0 |            0 |            0 |            0 |            0 |            0 |            0 |            0 |            0 |            0 |            0 |
itlb.invalidations                               0 |            0 |            0 |            0 |            0 |            0 |            0 |            0 |            0 |            0 |            0 |            0 |            0 |            0 |            0 |            0 |            0 |            0 |            0 |            0 |            0 |            0 |            0 |            0 |            0 |            0 |            0 |            0 |            0 |            0 |            0 |            0 |            0 |            0 |            0 |            0 |            0 |            0 |            0 |            0 |            0 |            0 |            0 |            0 |
itlb.miss_rate                              0.0000 |       0.0000 |       0.0000 |       0.0000 |       0.0000 |       0.0000 |       0.0000 |       0.0000 |       0.0000 |       0.0000 |       0.0000 |       0.0000 |       0.0000 |       0.0000 |       0.0000 |       0.0000 |       0.0000 |       0.0000 |       0.0000 |       0.0000 |       0.0000 |       0.0000 |       0.0000 |       0.0000 |       0.0000 |       0.0000 |       0.0000 |       0.0000 |       0.0000 |       0.0000 |       0.0000 |       0.0000 |       0.0000 |       0.0000 |       0.0000 |       0.0000 |       0.0000 |       0.0000 |       0.0000 |       0.0000 |       0.0000 |       0.0000 |       0.0000 |       0.0000 |
itlb.repl_rate                              0.0000 |       0.0000 |       0.0000 |       0.0000 |       0.0000 |       0.0000 |       0.0000 |       0.0000 |       0.0000 |       0.0000 |       0.0000 |       0.0000 |       0.0000 |       0.0000 |       0.0000 |       0.0000 |       0.0000 |       0.0000 |       0.0000 |       0.0000 |       0.0000 |       0.0000 |       0.0000 |       0.0000 |       0.0000 |       0.0000 |       0.0000 |       0.0000 |       0.0000 |       0.0000 |       0.0000 |       0.0000 |       0.0000 |       0.0000 |       0.0000 |       0.0000 |       0.0000 |       0.0000 |       0.0000 |       0.0000 |       0.0000 |       0.0000 |       0.0000 |       0.0000 |
itlb.wb_rate                                0.0000 |       0.0000 |       0.0000 |       0.0000 |       0.0000 |       0.0000 |       0.0000 |       0.0000 |       0.0000 |       0.0000 |       0.0000 |       0.0000 |       0.0000 |       0.0000 |       0.0000 |       0.0000 |       0.0000 |       0.0000 |       0.0000 |       0.0000 |       0.0000 |       0.0000 |       0.0000 |       0.0000 |       0.0000 |       0.0000 |       0.0000 |       0.0000 |       0.0000 |       0.0000 |       0.0000 |       0.0000 |       0.0000 |       0.0000 |       0.0000 |       0.0000 |       0.0000 |       0.0000 |       0.0000 |       0.0000 |       0.0000 |       0.0000 |       0.0000 |       0.0000 |
itlb.inv_rate                               0.0000 |       0.0000 |       0.0000 |       0.0000 |       0.0000 |       0.0000 |       0.0000 |       0.0000 |       0.0000 |       0.0000 |       0.0000 |       0.0000 |       0.0000 |       0.0000 |       0.0000 |       0.0000 |       0.0000 |       0.0000 |       0.0000 |       0.0000 |       0.0000 |       0.0000 |       0.0000 |       0.0000 |       0.0000 |       0.0000 |       0.0000 |       0.0000 |       0.0000 |       0.0000 |       0.0000 |       0.0000 |       0.0000 |       0.0000 |       0.0000 |       0.0000 |       0.0000 |       0.0000 |       0.0000 |       0.0000 |       0.0000 |       0.0000 |       0.0000 |       0.0000 |
dtlb.accesses                               214486 |       214486 |       214486 |       214486 |       458350 |       458350 |       458350 |       458350 |       977941 |       977941 |       977941 |       977941 |      2083581 |      2083581 |      2083581 |      2083581 |      4425922 |      4425922 |      4425922 |      4425922 |      9372167 |      9372167 |      9372167 |      9372167 |     19789442 |     19789442 |     19789442 |     19789442 |     41672673 |     41672673 |     41672673 |     41672673 |     87533915 |     87533915 |     87533915 |     87533915 |    183455847 |    183455847 |    183455847 |    183455847 |    383691710 |    383691710 |    383691710 |    383691710 |
dtlb.hits                                   214475 |       214475 |       214475 |       214475 |       458335 |       458335 |       458335 |       458335 |       977918 |       977918 |       977918 |       977918 |      2083542 |      2083542 |      2083542 |      2083542 |      4425851 |      4425851 |      4425851 |      4425851 |      9371999 |      9371999 |      9371999 |      9371999 |     19682358 |     19682358 |     19682358 |     19682358 |     40972230 |     40972230 |     40972230 |     40972230 |     84932128 |     84932128 |     84932128 |     84932128 |    175690919 |    175690919 |    175690919 |    175690919 |    362979293 |    362979293 |    362979293 |    362979293 |
dtlb.misses                                     11 |           11 |           11 |           11 |           15 |           15 |           15 |           15 |           23 |           23 |           23 |           23 |           39 |           39 |           39 |           39 |           71 |           71 |           71 |           71 |          168 |          168 |          168 |          168 |       107084 |       107084 |       107084 |       107084 |       700443 |       700443 |       700443 |       700443 |      2601787 |      2601787 |      2601787 |      2601787 |      7764928 |      7764928 |      7764928 |      7764928 |     20712417 |     20712417 |     20712417 |     20712417 |
dtlb.replacements                                0 |            0 |            0 |            0 |            0 |            0 |            0 |            0 |            0 |            0 |            0 |            0 |            0 |            0 |            0 |            0 |            0 |            0 |            0 |            0 |           40 |           40 |           40 |           40 |       106956 |       106956 |       106956 |       106956 |       700315 |       700315 |       700315 |       700315 |      2601659 |      2601659 |      2601659 |      2601659 |      7764800 |      7764800 |      7764800 |      7764800 |     20712289 |     20712289 |     20712289 |     20712289 |
dtlb.writebacks                                  0 |            0 |            0 |            0 |            0 |            0 |            0 |            0 |            0 |            0 |            0 |            0 |            0 |            0 |            0 |            0 |            0 |            0 |            0 |            0 |           35 |           35 |           35 |           35 |       100271 |       100271 |       100271 |       100271 |       663682 |       663682 |       663682 |       663682 |      2490996 |      2490996 |      2490996 |      2490996 |      7494025 |      7494025 |      7494025 |      7494025 |     20107339 |     20107339 |     20107339 |     20107339 |
dtlb.invalidations                               0 |            0 |            0 |            0 |            0 |            0 |            0 |            0 |            0 |            0 |            0 |            0 |            0 |            0 |            0 |            0 |            0 |            0 |            0 |            0 |            0 |            0 |            0 |            0 |            0 |            0 |            0 |            0 |            0 |            0 |            0 |            0 |            0 |            0 |            0 |            0 |            0 |            0 |            0 |            0 |            0 |            0 |            0 |            0 |
dtlb.miss_rate                              0.0001 |       0.0001 |       0.0001 |       0.0001 |       0.0000 |       0.0000 |       0.0000 |       0.0000 |       0.0000 |       0.0000 |       0.0000 |       0.0000 |       0.0000 |       0.0000 |       0.0000 |       0.0000 |       0.0000 |       0.0000 |       0.0000 |       0.0000 |       0.0000 |       0.0000 |       0.0000 |       0.0000 |       0.0054 |       0.0054 |       0.0054 |       0.0054 |       0.0168 |       0.0168 |       0.0168 |       0.0168 |       0.0297 |       0.0297 |       0.0297 |       0.0297 |       0.0423 |       0.0423 |       0.0423 |       0.0423 |       0.0540 |       0.0540 |       0.0540 |       0.0540 |
dtlb.repl_rate                              0.0000 |       0.0000 |       0.0000 |       0.0000 |       0.0000 |       0.0000 |       0.0000 |       0.0000 |       0.0000 |       0.0000 |       0.0000 |       0.0000 |       0.0000 |       0.0000 |       0.0000 |       0.0000 |       0.0000 |       0.0000 |       0.0000 |       0.0000 |       0.0000 |       0.0000 |       0.0000 |       0.0000 |       0.0054 |       0.0054 |       0.0054 |       0.0054 |       0.0168 |       0.0168 |       0.0168 |       0.0168 |       0.0297 |       0.0297 |       0.0297 |       0.0297 |       0.0423 |       0.0423 |       0.0423 |       0.0423 |       0.0540 |       0.0540 |       0.0540 |       0.0540 |
dtlb.wb_rate                                0.0000 |       0.0000 |       0.0000 |       0.0000 |       0.0000 |       0.0000 |       0.0000 |       0.0000 |       0.0000 |       0.0000 |       0.0000 |       0.0000 |       0.0000 |       0.0000 |       0.0000 |       0.0000 |       0.0000 |       0.0000 |       0.0000 |       0.0000 |       0.0000 |       0.0000 |       0.0000 |       0.0000 |       0.0051 |       0.0051 |       0.0051 |       0.0051 |       0.0159 |       0.0159 |       0.0159 |       0.0159 |       0.0285 |       0.0285 |       0.0285 |       0.0285 |       0.0408 |       0.0408 |       0.0408 |       0.0408 |       0.0524 |       0.0524 |       0.0524 |       0.0524 |
dtlb.inv_rate                               0.0000 |       0.0000 |       0.0000 |       0.0000 |       0.0000 |       0.0000 |       0.0000 |       0.0000 |       0.0000 |       0.0000 |       0.0000 |       0.0000 |       0.0000 |       0.0000 |       0.0000 |       0.0000 |       0.0000 |       0.0000 |       0.0000 |       0.0000 |       0.0000 |       0.0000 |       0.0000 |       0.0000 |       0.0000 |       0.0000 |       0.0000 |       0.0000 |       0.0000 |       0.0000 |       0.0000 |       0.0000 |       0.0000 |       0.0000 |       0.0000 |       0.0000 |       0.0000 |       0.0000 |       0.0000 |       0.0000 |       0.0000 |       0.0000 |       0.0000 |       0.0000 |
ld_text_base                            0x00400000 |   0x00400000 |   0x00400000 |   0x00400000 |   0x00400000 |   0x00400000 |   0x00400000 |   0x00400000 |   0x00400000 |   0x00400000 |   0x00400000 |   0x00400000 |   0x00400000 |   0x00400000 |   0x00400000 |   0x00400000 |   0x00400000 |   0x00400000 |   0x00400000 |   0x00400000 |   0x00400000 |   0x00400000 |   0x00400000 |   0x00400000 |   0x00400000 |   0x00400000 |   0x00400000 |   0x00400000 |   0x00400000 |   0x00400000 |   0x00400000 |   0x00400000 |   0x00400000 |   0x00400000 |   0x00400000 |   0x00400000 |   0x00400000 |   0x00400000 |   0x00400000 |   0x00400000 |   0x00400000 |   0x00400000 |   0x00400000 |   0x00400000 |
ld_text_size                                 74720 |        74720 |        74720 |        74720 |        74752 |        74752 |        74752 |        74752 |        74768 |        74768 |        74768 |        74768 |        74784 |        74784 |        74784 |        74784 |        74784 |        74784 |        74784 |        74784 |        74784 |        74784 |        74784 |        74784 |        74784 |        74784 |        74784 |        74784 |        74784 |        74784 |        74784 |        74784 |        74784 |        74784 |        74784 |        74784 |        74784 |        74784 |        74784 |        74784 |        74784 |        74784 |        74784 |        74784 |
ld_data_base                            0x10000000 |   0x10000000 |   0x10000000 |   0x10000000 |   0x10000000 |   0x10000000 |   0x10000000 |   0x10000000 |   0x10000000 |   0x10000000 |   0x10000000 |   0x10000000 |   0x10000000 |   0x10000000 |   0x10000000 |   0x10000000 |   0x10000000 |   0x10000000 |   0x10000000 |   0x10000000 |   0x10000000 |   0x10000000 |   0x10000000 |   0x10000000 |   0x10000000 |   0x10000000 |   0x10000000 |   0x10000000 |   0x10000000 |   0x10000000 |   0x10000000 |   0x10000000 |   0x10000000 |   0x10000000 |   0x10000000 |   0x10000000 |   0x10000000 |   0x10000000 |   0x10000000 |   0x10000000 |   0x10000000 |   0x10000000 |   0x10000000 |   0x10000000 |
ld_data_size                                  8192 |         8192 |         8192 |         8192 |         8192 |         8192 |         8192 |         8192 |         8192 |         8192 |         8192 |         8192 |         8192 |         8192 |         8192 |         8192 |         8192 |         8192 |         8192 |         8192 |         8192 |         8192 |         8192 |         8192 |         8192 |         8192 |         8192 |         8192 |         8192 |         8192 |         8192 |         8192 |         8192 |         8192 |         8192 |         8192 |         8192 |         8192 |         8192 |         8192 |         8192 |         8192 |         8192 |         8192 |
ld_stack_base                           0x7fffc000 |   0x7fffc000 |   0x7fffc000 |   0x7fffc000 |   0x7fffc000 |   0x7fffc000 |   0x7fffc000 |   0x7fffc000 |   0x7fffc000 |   0x7fffc000 |   0x7fffc000 |   0x7fffc000 |   0x7fffc000 |   0x7fffc000 |   0x7fffc000 |   0x7fffc000 |   0x7fffc000 |   0x7fffc000 |   0x7fffc000 |   0x7fffc000 |   0x7fffc000 |   0x7fffc000 |   0x7fffc000 |   0x7fffc000 |   0x7fffc000 |   0x7fffc000 |   0x7fffc000 |   0x7fffc000 |   0x7fffc000 |   0x7fffc000 |   0x7fffc000 |   0x7fffc000 |   0x7fffc000 |   0x7fffc000 |   0x7fffc000 |   0x7fffc000 |   0x7fffc000 |   0x7fffc000 |   0x7fffc000 |   0x7fffc000 |   0x7fffc000 |   0x7fffc000 |   0x7fffc000 |   0x7fffc000 |
ld_stack_size                                16384 |        16384 |        16384 |        16384 |        16384 |        16384 |        16384 |        16384 |        16384 |        16384 |        16384 |        16384 |        16384 |        16384 |        16384 |        16384 |        16384 |        16384 |        16384 |        16384 |        16384 |        16384 |        16384 |        16384 |        16384 |        16384 |        16384 |        16384 |        16384 |        16384 |        16384 |        16384 |        16384 |        16384 |        16384 |        16384 |        16384 |        16384 |        16384 |        16384 |        16384 |        16384 |        16384 |        16384 |
ld_prog_entry                           0x00400140 |   0x00400140 |   0x00400140 |   0x00400140 |   0x00400140 |   0x00400140 |   0x00400140 |   0x00400140 |   0x00400140 |   0x00400140 |   0x00400140 |   0x00400140 |   0x00400140 |   0x00400140 |   0x00400140 |   0x00400140 |   0x00400140 |   0x00400140 |   0x00400140 |   0x00400140 |   0x00400140 |   0x00400140 |   0x00400140 |   0x00400140 |   0x00400140 |   0x00400140 |   0x00400140 |   0x00400140 |   0x00400140 |   0x00400140 |   0x00400140 |   0x00400140 |   0x00400140 |   0x00400140 |   0x00400140 |   0x00400140 |   0x00400140 |   0x00400140 |   0x00400140 |   0x00400140 |   0x00400140 |   0x00400140 |   0x00400140 |   0x00400140 |
ld_environ_base                         0x7fff8000 |   0x7fff8000 |   0x7fff8000 |   0x7fff8000 |   0x7fff8000 |   0x7fff8000 |   0x7fff8000 |   0x7fff8000 |   0x7fff8000 |   0x7fff8000 |   0x7fff8000 |   0x7fff8000 |   0x7fff8000 |   0x7fff8000 |   0x7fff8000 |   0x7fff8000 |   0x7fff8000 |   0x7fff8000 |   0x7fff8000 |   0x7fff8000 |   0x7fff8000 |   0x7fff8000 |   0x7fff8000 |   0x7fff8000 |   0x7fff8000 |   0x7fff8000 |   0x7fff8000 |   0x7fff8000 |   0x7fff8000 |   0x7fff8000 |   0x7fff8000 |   0x7fff8000 |   0x7fff8000 |   0x7fff8000 |   0x7fff8000 |   0x7fff8000 |   0x7fff8000 |   0x7fff8000 |   0x7fff8000 |   0x7fff8000 |   0x7fff8000 |   0x7fff8000 |   0x7fff8000 |   0x7fff8000 |
ld_target_big_endian                             0 |            0 |            0 |            0 |            0 |            0 |            0 |            0 |            0 |            0 |            0 |            0 |            0 |            0 |            0 |            0 |            0 |            0 |            0 |            0 |            0 |            0 |            0 |            0 |            0 |            0 |            0 |            0 |            0 |            0 |            0 |            0 |            0 |            0 |            0 |            0 |            0 |            0 |            0 |            0 |            0 |            0 |            0 |            0 |
mem.page_count                                  30 |           30 |           30 |           30 |           34 |           34 |           34 |           34 |           42 |           42 |           42 |           42 |           58 |           58 |           58 |           58 |           90 |           90 |           90 |           90 |          154 |          154 |          154 |          154 |          282 |          282 |          282 |          282 |          538 |          538 |          538 |          538 |         1050 |         1050 |         1050 |         1050 |         2074 |         2074 |         2074 |         2074 |         4122 |         4122 |         4122 |         4122 |
mem.page_mem                                  120k |         120k |         120k |         120k |         136k |         136k |         136k |         136k |         168k |         168k |         168k |         168k |         232k |         232k |         232k |         232k |         360k |         360k |         360k |         360k |         616k |         616k |         616k |         616k |        1128k |        1128k |        1128k |        1128k |        2152k |        2152k |        2152k |        2152k |        4200k |        4200k |        4200k |        4200k |        8296k |        8296k |        8296k |        8296k |       16488k |       16488k |       16488k |       16488k |
mem.ptab_misses                                 30 |           30 |           30 |           30 |           34 |           34 |           34 |           34 |           42 |           42 |           42 |           42 |           58 |           58 |           58 |           58 |           90 |           90 |           90 |           90 |          154 |          154 |          154 |          154 |          282 |          282 |          282 |          282 |          538 |          538 |          538 |          538 |         1050 |         1050 |         1050 |         1050 |         2074 |         2074 |         2074 |         2074 |         4122 |         4122 |         4122 |         4122 |
mem.ptab_accesses                          4521504 |      4521504 |      4521504 |      4521504 |      9260900 |      9260900 |      9260900 |      9260900 |     19420414 |     19420414 |     19420414 |     19420414 |     41172910 |     41172910 |     41172910 |     41172910 |     87495012 |     87495012 |     87495012 |     87495012 |    185759218 |    185759218 |    185759218 |    185759218 |    393572920 |    393572920 |    393572920 |    393572920 |    831741702 |    831741702 |    831741702 |    831741702 |   1753113258 |   1753113258 |   1753113258 |   1753113258 |   3686169770 |   3686169770 |   3686169770 |   3686169770 |   7732693804 |   7732693804 |   7732693804 |   7732693804 |
mem.ptab_miss_rate                          0.0000 |       0.0000 |       0.0000 |       0.0000 |       0.0000 |       0.0000 |       0.0000 |       0.0000 |       0.0000 |       0.0000 |       0.0000 |       0.0000 |       0.0000 |       0.0000 |       0.0000 |       0.0000 |       0.0000 |       0.0000 |       0.0000 |       0.0000 |       0.0000 |       0.0000 |       0.0000 |       0.0000 |       0.0000 |       0.0000 |       0.0000 |       0.0000 |       0.0000 |       0.0000 |       0.0000 |       0.0000 |       0.0000 |       0.0000 |       0.0000 |       0.0000 |       0.0000 |       0.0000 |       0.0000 |       0.0000 |       0.0000 |       0.0000 |       0.0000 |       0.0000 |
-------------------------------------------------------------------------------------------------
sim-bpred                                     4096 |         4096 |         4096 |         4096 |         4096 |         4096 |         4096 |         8192 |         8192 |         8192 |         8192 |         8192 |         8192 |         8192 |        16384 |        16384 |        16384 |        16384 |        16384 |        16384 |        16384 |        32768 |        32768 |        32768 |        32768 |        32768 |        32768 |        32768 |        65536 |        65536 |        65536 |        65536 |        65536 |        65536 |        65536 |       131072 |       131072 |       131072 |       131072 |       131072 |       131072 |       131072 |       262144 |       262144 |       262144 |       262144 |       262144 |       262144 |       262144 |       524288 |       524288 |       524288 |       524288 |       524288 |       524288 |       524288 |      1048576 |      1048576 |      1048576 |      1048576 |      1048576 |      1048576 |      1048576 |      2097152 |      2097152 |      2097152 |      2097152 |      2097152 |      2097152 |      2097152 |      4194304 |      4194304 |      4194304 |      4194304 |      4194304 |      4194304 |      4194304 |
-bpred bimod -bpred:bimod 512
-bpred bimod -bpred:bimod 1024
-bpred bimod -bpred:bimod 2048
-bpred 2lev -bpred:2lev 1 512 10 1
-bpred 2lev -bpred:2lev 1 1024 10 1
-bpred 2lev -bpred:2lev 1 2048 10 1
-bpred 2lev -bpred:2lev 1 4096 10 1
-------------------------------------------------------------------------------------------------
sim_num_insn                                907401 |       907401 |       907401 |       907401 |       907401 |       907401 |       907401 |      1970270 |      1970270 |      1970270 |      1970270 |      1970270 |      1970270 |      1970270 |      4250329 |      4250329 |      4250329 |      4250329 |      4250329 |      4250329 |      4250329 |      9135609 |      9135609 |      9135609 |      9135609 |      9135609 |      9135609 |      9135609 |     19544964 |     19544964 |     19544964 |     19544964 |     19544964 |     19544964 |     19544964 |     41637893 |     41637893 |     41637893 |     41637893 |     41637893 |     41637893 |     41637893 |     88382681 |     88382681 |     88382681 |     88382681 |     88382681 |     88382681 |     88382681 |    186983261 |    186983261 |    186983261 |    186983261 |    186983261 |    186983261 |    186983261 |    394395529 |    394395529 |    394395529 |    394395529 |    394395529 |    394395529 |    394395529 |    829698691 |    829698691 |    829698691 |    829698691 |    829698691 |    829698691 |    829698691 |   1741211768 |   1741211768 |   1741211768 |   1741211768 |   1741211768 |   1741211768 |   1741211768 |
sim_num_refs                                198028 |       198028 |       198028 |       198028 |       198028 |       198028 |       198028 |       425508 |       425508 |       425508 |       425508 |       425508 |       425508 |       425508 |       912331 |       912331 |       912331 |       912331 |       912331 |       912331 |       912331 |      1952435 |      1952435 |      1952435 |      1952435 |      1952435 |      1952435 |      1952435 |      4163704 |      4163704 |      4163704 |      4163704 |      4163704 |      4163704 |      4163704 |      8847805 |      8847805 |      8847805 |      8847805 |      8847805 |      8847805 |      8847805 |     18740792 |     18740792 |     18740792 |     18740792 |     18740792 |     18740792 |     18740792 |     39575447 |     39575447 |     39575447 |     39575447 |     39575447 |     39575447 |     39575447 |     83339537 |     83339537 |     83339537 |     83339537 |     83339537 |     83339537 |     83339537 |    175067165 |    175067165 |    175067165 |    175067165 |    175067165 |    175067165 |    175067165 |    366914420 |    366914420 |    366914420 |    366914420 |    366914420 |    366914420 |    366914420 |
sim_elapsed_time                                 1 |            1 |            1 |            1 |            1 |            1 |            1 |            1 |            1 |            1 |            1 |            1 |            1 |            1 |            1 |            1 |            1 |            1 |            1 |            1 |            1 |            1 |            2 |            1 |            1 |            1 |            1 |            1 |            3 |            2 |            3 |            2 |            3 |            2 |            3 |            6 |            5 |            5 |            5 |            5 |            6 |            5 |           11 |           11 |           11 |           11 |           11 |           11 |           11 |           23 |           23 |           24 |           23 |           24 |           23 |           24 |           50 |           49 |           50 |           49 |           50 |           50 |           50 |          105 |          105 |          106 |          106 |          106 |          106 |          105 |          222 |          221 |          223 |          223 |          222 |          224 |          224 |
sim_inst_rate                          907401.0000 |  907401.0000 |  907401.0000 |  907401.0000 |  907401.0000 |  907401.0000 |  907401.0000 | 1970270.0000 | 1970270.0000 | 1970270.0000 | 1970270.0000 | 1970270.0000 | 1970270.0000 | 1970270.0000 | 4250329.0000 | 4250329.0000 | 4250329.0000 | 4250329.0000 | 4250329.0000 | 4250329.0000 | 4250329.0000 | 9135609.0000 | 4567804.5000 | 9135609.0000 | 9135609.0000 | 9135609.0000 | 9135609.0000 | 9135609.0000 | 6514988.0000 | 9772482.0000 | 6514988.0000 | 9772482.0000 | 6514988.0000 | 9772482.0000 | 6514988.0000 | 6939648.8333 | 8327578.6000 | 8327578.6000 | 8327578.6000 | 8327578.6000 | 6939648.8333 | 8327578.6000 | 8034789.1818 | 8034789.1818 | 8034789.1818 | 8034789.1818 | 8034789.1818 | 8034789.1818 | 8034789.1818 | 8129707.0000 | 8129707.0000 | 7790969.2083 | 8129707.0000 | 7790969.2083 | 8129707.0000 | 7790969.2083 | 7887910.5800 | 8048888.3469 | 7887910.5800 | 8048888.3469 | 7887910.5800 | 7887910.5800 | 7887910.5800 | 7901892.2952 | 7901892.2952 | 7827346.1415 | 7827346.1415 | 7827346.1415 | 7827346.1415 | 7901892.2952 | 7843296.2523 | 7878786.2805 | 7808124.5202 | 7808124.5202 | 7843296.2523 | 7773266.8214 | 7773266.8214 |
sim_num_branches                            176843 |       176843 |       176843 |       176843 |       176843 |       176843 |       176843 |       386079 |       386079 |       386079 |       386079 |       386079 |       386079 |       386079 |       836081 |       836081 |       836081 |       836081 |       836081 |       836081 |       836081 |      1802921 |      1802921 |      1802921 |      1802921 |      1802921 |      1802921 |      1802921 |      3867799 |      3867799 |      3867799 |      3867799 |      3867799 |      3867799 |      3867799 |      8258597 |      8258597 |      8258597 |      8258597 |      8258597 |      8258597 |      8258597 |     17565427 |     17565427 |     17565427 |     17565427 |     17565427 |     17565427 |     17565427 |     37227121 |     37227121 |     37227121 |     37227121 |     37227121 |     37227121 |     37227121 |     78645293 |     78645293 |     78645293 |     78645293 |     78645293 |     78645293 |     78645293 |    165682893 |    165682893 |    165682893 |    165682893 |    165682893 |    165682893 |    165682893 |    348149887 |    348149887 |    348149887 |    348149887 |    348149887 |    348149887 |    348149887 |
sim_IPB                                     5.1311 |       5.1311 |       5.1311 |       5.1311 |       5.1311 |       5.1311 |       5.1311 |       5.1033 |       5.1033 |       5.1033 |       5.1033 |       5.1033 |       5.1033 |       5.1033 |       5.0836 |       5.0836 |       5.0836 |       5.0836 |       5.0836 |       5.0836 |       5.0836 |       5.0671 |       5.0671 |       5.0671 |       5.0671 |       5.0671 |       5.0671 |       5.0671 |       5.0533 |       5.0533 |       5.0533 |       5.0533 |       5.0533 |       5.0533 |       5.0533 |       5.0418 |       5.0418 |       5.0418 |       5.0418 |       5.0418 |       5.0418 |       5.0418 |       5.0316 |       5.0316 |       5.0316 |       5.0316 |       5.0316 |       5.0316 |       5.0316 |       5.0228 |       5.0228 |       5.0228 |       5.0228 |       5.0228 |       5.0228 |       5.0228 |       5.0149 |       5.0149 |       5.0149 |       5.0149 |       5.0149 |       5.0149 |       5.0149 |       5.0078 |       5.0078 |       5.0078 |       5.0078 |       5.0078 |       5.0078 |       5.0078 |       5.0013 |       5.0013 |       5.0013 |       5.0013 |       5.0013 |       5.0013 |       5.0013 |
bpred_bimod.lookups                         176843 |       176843 |       176843 |xxxxxxxxxxxxx |xxxxxxxxxxxxx |xxxxxxxxxxxxx |xxxxxxxxxxxxx |       386079 |       386079 |       386079 |xxxxxxxxxxxxx |xxxxxxxxxxxxx |xxxxxxxxxxxxx |xxxxxxxxxxxxx |       836081 |       836081 |       836081 |xxxxxxxxxxxxx |xxxxxxxxxxxxx |xxxxxxxxxxxxx |xxxxxxxxxxxxx |      1802921 |      1802921 |      1802921 |xxxxxxxxxxxxx |xxxxxxxxxxxxx |xxxxxxxxxxxxx |xxxxxxxxxxxxx |      3867799 |      3867799 |      3867799 |xxxxxxxxxxxxx |xxxxxxxxxxxxx |xxxxxxxxxxxxx |xxxxxxxxxxxxx |      8258597 |      8258597 |      8258597 |xxxxxxxxxxxxx |xxxxxxxxxxxxx |xxxxxxxxxxxxx |xxxxxxxxxxxxx |     17565427 |     17565427 |     17565427 |xxxxxxxxxxxxx |xxxxxxxxxxxxx |xxxxxxxxxxxxx |xxxxxxxxxxxxx |     37227121 |     37227121 |     37227121 |xxxxxxxxxxxxx |xxxxxxxxxxxxx |xxxxxxxxxxxxx |xxxxxxxxxxxxx |     78645293 |     78645293 |     78645293 |xxxxxxxxxxxxx |xxxxxxxxxxxxx |xxxxxxxxxxxxx |xxxxxxxxxxxxx |    165682893 |    165682893 |    165682893 |xxxxxxxxxxxxx |xxxxxxxxxxxxx |xxxxxxxxxxxxx |xxxxxxxxxxxxx |    348149887 |    348149887 |    348149887 |
bpred_bimod.updates                         176843 |       176843 |       176843 |xxxxxxxxxxxxx |xxxxxxxxxxxxx |xxxxxxxxxxxxx |xxxxxxxxxxxxx |       386079 |       386079 |       386079 |xxxxxxxxxxxxx |xxxxxxxxxxxxx |xxxxxxxxxxxxx |xxxxxxxxxxxxx |       836081 |       836081 |       836081 |xxxxxxxxxxxxx |xxxxxxxxxxxxx |xxxxxxxxxxxxx |xxxxxxxxxxxxx |      1802921 |      1802921 |      1802921 |xxxxxxxxxxxxx |xxxxxxxxxxxxx |xxxxxxxxxxxxx |xxxxxxxxxxxxx |      3867799 |      3867799 |      3867799 |xxxxxxxxxxxxx |xxxxxxxxxxxxx |xxxxxxxxxxxxx |xxxxxxxxxxxxx |      8258597 |      8258597 |      8258597 |xxxxxxxxxxxxx |xxxxxxxxxxxxx |xxxxxxxxxxxxx |xxxxxxxxxxxxx |     17565427 |     17565427 |     17565427 |xxxxxxxxxxxxx |xxxxxxxxxxxxx |xxxxxxxxxxxxx |xxxxxxxxxxxxx |     37227121 |     37227121 |     37227121 |xxxxxxxxxxxxx |xxxxxxxxxxxxx |xxxxxxxxxxxxx |xxxxxxxxxxxxx |     78645293 |     78645293 |     78645293 |xxxxxxxxxxxxx |xxxxxxxxxxxxx |xxxxxxxxxxxxx |xxxxxxxxxxxxx |    165682893 |    165682893 |    165682893 |xxxxxxxxxxxxx |xxxxxxxxxxxxx |xxxxxxxxxxxxx |xxxxxxxxxxxxx |    348149887 |    348149887 |    348149887 |
bpred_bimod.addr_hits                       148961 |       148963 |       148964 |xxxxxxxxxxxxx |xxxxxxxxxxxxx |xxxxxxxxxxxxx |xxxxxxxxxxxxx |       326454 |       326458 |       326460 |xxxxxxxxxxxxx |xxxxxxxxxxxxx |xxxxxxxxxxxxx |xxxxxxxxxxxxx |       708790 |       708792 |       708793 |xxxxxxxxxxxxx |xxxxxxxxxxxxx |xxxxxxxxxxxxx |xxxxxxxxxxxxx |      1532512 |      1532513 |      1532513 |xxxxxxxxxxxxx |xxxxxxxxxxxxx |xxxxxxxxxxxxx |xxxxxxxxxxxxx |      3293351 |      3293352 |      3293352 |xxxxxxxxxxxxx |xxxxxxxxxxxxx |xxxxxxxxxxxxx |xxxxxxxxxxxxx |      7045318 |      7045319 |      7045319 |xxxxxxxxxxxxx |xxxxxxxxxxxxx |xxxxxxxxxxxxx |xxxxxxxxxxxxx |     15009094 |     15009095 |     15009095 |xxxxxxxxxxxxx |xxxxxxxxxxxxx |xxxxxxxxxxxxx |xxxxxxxxxxxxx |     31851032 |     31851034 |     31851034 |xxxxxxxxxxxxx |xxxxxxxxxxxxx |xxxxxxxxxxxxx |xxxxxxxxxxxxx |     67372630 |     67372631 |     67372631 |xxxxxxxxxxxxx |xxxxxxxxxxxxx |xxxxxxxxxxxxx |xxxxxxxxxxxxx |    142084794 |    142084796 |    142084796 |xxxxxxxxxxxxx |xxxxxxxxxxxxx |xxxxxxxxxxxxx |xxxxxxxxxxxxx |    298857047 |    298857048 |    298857048 |
bpred_bimod.dir_hits                        149070 |       149072 |       149074 |xxxxxxxxxxxxx |xxxxxxxxxxxxx |xxxxxxxxxxxxx |xxxxxxxxxxxxx |       326565 |       326568 |       326570 |xxxxxxxxxxxxx |xxxxxxxxxxxxx |xxxxxxxxxxxxx |xxxxxxxxxxxxx |       708904 |       708906 |       708907 |xxxxxxxxxxxxx |xxxxxxxxxxxxx |xxxxxxxxxxxxx |xxxxxxxxxxxxx |      1532622 |      1532622 |      1532622 |xxxxxxxxxxxxx |xxxxxxxxxxxxx |xxxxxxxxxxxxx |xxxxxxxxxxxxx |      3293460 |      3293459 |      3293459 |xxxxxxxxxxxxx |xxxxxxxxxxxxx |xxxxxxxxxxxxx |xxxxxxxxxxxxx |      7045430 |      7045429 |      7045429 |xxxxxxxxxxxxx |xxxxxxxxxxxxx |xxxxxxxxxxxxx |xxxxxxxxxxxxx |     15009209 |     15009208 |     15009208 |xxxxxxxxxxxxx |xxxxxxxxxxxxx |xxxxxxxxxxxxx |xxxxxxxxxxxxx |     31851140 |     31851142 |     31851142 |xxxxxxxxxxxxx |xxxxxxxxxxxxx |xxxxxxxxxxxxx |xxxxxxxxxxxxx |     67372742 |     67372741 |     67372741 |xxxxxxxxxxxxx |xxxxxxxxxxxxx |xxxxxxxxxxxxx |xxxxxxxxxxxxx |    142084904 |    142084905 |    142084905 |xxxxxxxxxxxxx |xxxxxxxxxxxxx |xxxxxxxxxxxxx |xxxxxxxxxxxxx |    298857159 |    298857159 |    298857159 |
bpred_bimod.misses                           27773 |        27771 |        27769 |xxxxxxxxxxxxx |xxxxxxxxxxxxx |xxxxxxxxxxxxx |xxxxxxxxxxxxx |        59514 |        59511 |        59509 |xxxxxxxxxxxxx |xxxxxxxxxxxxx |xxxxxxxxxxxxx |xxxxxxxxxxxxx |       127177 |       127175 |       127174 |xxxxxxxxxxxxx |xxxxxxxxxxxxx |xxxxxxxxxxxxx |xxxxxxxxxxxxx |       270299 |       270299 |       270299 |xxxxxxxxxxxxx |xxxxxxxxxxxxx |xxxxxxxxxxxxx |xxxxxxxxxxxxx |       574339 |       574340 |       574340 |xxxxxxxxxxxxx |xxxxxxxxxxxxx |xxxxxxxxxxxxx |xxxxxxxxxxxxx |      1213167 |      1213168 |      1213168 |xxxxxxxxxxxxx |xxxxxxxxxxxxx |xxxxxxxxxxxxx |xxxxxxxxxxxxx |      2556218 |      2556219 |      2556219 |xxxxxxxxxxxxx |xxxxxxxxxxxxx |xxxxxxxxxxxxx |xxxxxxxxxxxxx |      5375981 |      5375979 |      5375979 |xxxxxxxxxxxxx |xxxxxxxxxxxxx |xxxxxxxxxxxxx |xxxxxxxxxxxxx |     11272551 |     11272552 |     11272552 |xxxxxxxxxxxxx |xxxxxxxxxxxxx |xxxxxxxxxxxxx |xxxxxxxxxxxxx |     23597989 |     23597988 |     23597988 |xxxxxxxxxxxxx |xxxxxxxxxxxxx |xxxxxxxxxxxxx |xxxxxxxxxxxxx |     49292728 |     49292728 |     49292728 |
bpred_bimod.jr_hits                             57 |           57 |           57 |xxxxxxxxxxxxx |xxxxxxxxxxxxx |xxxxxxxxxxxxx |xxxxxxxxxxxxx |           57 |           57 |           57 |xxxxxxxxxxxxx |xxxxxxxxxxxxx |xxxxxxxxxxxxx |xxxxxxxxxxxxx |           57 |           57 |           57 |xxxxxxxxxxxxx |xxxxxxxxxxxxx |xxxxxxxxxxxxx |xxxxxxxxxxxxx |           57 |           57 |           57 |xxxxxxxxxxxxx |xxxxxxxxxxxxx |xxxxxxxxxxxxx |xxxxxxxxxxxxx |           57 |           57 |           57 |xxxxxxxxxxxxx |xxxxxxxxxxxxx |xxxxxxxxxxxxx |xxxxxxxxxxxxx |           57 |           57 |           57 |xxxxxxxxxxxxx |xxxxxxxxxxxxx |xxxxxxxxxxxxx |xxxxxxxxxxxxx |           57 |           57 |           57 |xxxxxxxxxxxxx |xxxxxxxxxxxxx |xxxxxxxxxxxxx |xxxxxxxxxxxxx |           57 |           57 |           57 |xxxxxxxxxxxxx |xxxxxxxxxxxxx |xxxxxxxxxxxxx |xxxxxxxxxxxxx |           57 |           57 |           57 |xxxxxxxxxxxxx |xxxxxxxxxxxxx |xxxxxxxxxxxxx |xxxxxxxxxxxxx |           57 |           57 |           57 |xxxxxxxxxxxxx |xxxxxxxxxxxxx |xxxxxxxxxxxxx |xxxxxxxxxxxxx |           57 |           57 |           57 |
bpred_bimod.jr_seen                             58 |           58 |           58 |xxxxxxxxxxxxx |xxxxxxxxxxxxx |xxxxxxxxxxxxx |xxxxxxxxxxxxx |           58 |           58 |           58 |xxxxxxxxxxxxx |xxxxxxxxxxxxx |xxxxxxxxxxxxx |xxxxxxxxxxxxx |           58 |           58 |           58 |xxxxxxxxxxxxx |xxxxxxxxxxxxx |xxxxxxxxxxxxx |xxxxxxxxxxxxx |           58 |           58 |           58 |xxxxxxxxxxxxx |xxxxxxxxxxxxx |xxxxxxxxxxxxx |xxxxxxxxxxxxx |           58 |           58 |           58 |xxxxxxxxxxxxx |xxxxxxxxxxxxx |xxxxxxxxxxxxx |xxxxxxxxxxxxx |           58 |           58 |           58 |xxxxxxxxxxxxx |xxxxxxxxxxxxx |xxxxxxxxxxxxx |xxxxxxxxxxxxx |           58 |           58 |           58 |xxxxxxxxxxxxx |xxxxxxxxxxxxx |xxxxxxxxxxxxx |xxxxxxxxxxxxx |           58 |           58 |           58 |xxxxxxxxxxxxx |xxxxxxxxxxxxx |xxxxxxxxxxxxx |xxxxxxxxxxxxx |           58 |           58 |           58 |xxxxxxxxxxxxx |xxxxxxxxxxxxx |xxxxxxxxxxxxx |xxxxxxxxxxxxx |           58 |           58 |           58 |xxxxxxxxxxxxx |xxxxxxxxxxxxx |xxxxxxxxxxxxx |xxxxxxxxxxxxx |           58 |           58 |           58 |
bpred_bimod.jr_non_ras_hits.PP                   0 |            0 |            0 |xxxxxxxxxxxxx |xxxxxxxxxxxxx |xxxxxxxxxxxxx |xxxxxxxxxxxxx |            0 |            0 |            0 |xxxxxxxxxxxxx |xxxxxxxxxxxxx |xxxxxxxxxxxxx |xxxxxxxxxxxxx |            0 |            0 |            0 |xxxxxxxxxxxxx |xxxxxxxxxxxxx |xxxxxxxxxxxxx |xxxxxxxxxxxxx |            0 |            0 |            0 |xxxxxxxxxxxxx |xxxxxxxxxxxxx |xxxxxxxxxxxxx |xxxxxxxxxxxxx |            0 |            0 |            0 |xxxxxxxxxxxxx |xxxxxxxxxxxxx |xxxxxxxxxxxxx |xxxxxxxxxxxxx |            0 |            0 |            0 |xxxxxxxxxxxxx |xxxxxxxxxxxxx |xxxxxxxxxxxxx |xxxxxxxxxxxxx |            0 |            0 |            0 |xxxxxxxxxxxxx |xxxxxxxxxxxxx |xxxxxxxxxxxxx |xxxxxxxxxxxxx |            0 |            0 |            0 |xxxxxxxxxxxxx |xxxxxxxxxxxxx |xxxxxxxxxxxxx |xxxxxxxxxxxxx |            0 |            0 |            0 |xxxxxxxxxxxxx |xxxxxxxxxxxxx |xxxxxxxxxxxxx |xxxxxxxxxxxxx |            0 |            0 |            0 |xxxxxxxxxxxxx |xxxxxxxxxxxxx |xxxxxxxxxxxxx |xxxxxxxxxxxxx |            0 |            0 |            0 |
bpred_bimod.jr_non_ras_seen.PP                   0 |            0 |            0 |xxxxxxxxxxxxx |xxxxxxxxxxxxx |xxxxxxxxxxxxx |xxxxxxxxxxxxx |            0 |            0 |            0 |xxxxxxxxxxxxx |xxxxxxxxxxxxx |xxxxxxxxxxxxx |xxxxxxxxxxxxx |            0 |            0 |            0 |xxxxxxxxxxxxx |xxxxxxxxxxxxx |xxxxxxxxxxxxx |xxxxxxxxxxxxx |            0 |            0 |            0 |xxxxxxxxxxxxx |xxxxxxxxxxxxx |xxxxxxxxxxxxx |xxxxxxxxxxxxx |            0 |            0 |            0 |xxxxxxxxxxxxx |xxxxxxxxxxxxx |xxxxxxxxxxxxx |xxxxxxxxxxxxx |            0 |            0 |            0 |xxxxxxxxxxxxx |xxxxxxxxxxxxx |xxxxxxxxxxxxx |xxxxxxxxxxxxx |            0 |            0 |            0 |xxxxxxxxxxxxx |xxxxxxxxxxxxx |xxxxxxxxxxxxx |xxxxxxxxxxxxx |            0 |            0 |            0 |xxxxxxxxxxxxx |xxxxxxxxxxxxx |xxxxxxxxxxxxx |xxxxxxxxxxxxx |            0 |            0 |            0 |xxxxxxxxxxxxx |xxxxxxxxxxxxx |xxxxxxxxxxxxx |xxxxxxxxxxxxx |            0 |            0 |            0 |xxxxxxxxxxxxx |xxxxxxxxxxxxx |xxxxxxxxxxxxx |xxxxxxxxxxxxx |            0 |            0 |            0 |
bpred_bimod.bpred_addr_rate                 0.8423 |       0.8423 |       0.8424 |xxxxxxxxxxxxx |xxxxxxxxxxxxx |xxxxxxxxxxxxx |xxxxxxxxxxxxx |       0.8456 |       0.8456 |       0.8456 |xxxxxxxxxxxxx |xxxxxxxxxxxxx |xxxxxxxxxxxxx |xxxxxxxxxxxxx |       0.8478 |       0.8478 |       0.8478 |xxxxxxxxxxxxx |xxxxxxxxxxxxx |xxxxxxxxxxxxx |xxxxxxxxxxxxx |       0.8500 |       0.8500 |       0.8500 |xxxxxxxxxxxxx |xxxxxxxxxxxxx |xxxxxxxxxxxxx |xxxxxxxxxxxxx |       0.8515 |       0.8515 |       0.8515 |xxxxxxxxxxxxx |xxxxxxxxxxxxx |xxxxxxxxxxxxx |xxxxxxxxxxxxx |       0.8531 |       0.8531 |       0.8531 |xxxxxxxxxxxxx |xxxxxxxxxxxxx |xxxxxxxxxxxxx |xxxxxxxxxxxxx |       0.8545 |       0.8545 |       0.8545 |xxxxxxxxxxxxx |xxxxxxxxxxxxx |xxxxxxxxxxxxx |xxxxxxxxxxxxx |       0.8556 |       0.8556 |       0.8556 |xxxxxxxxxxxxx |xxxxxxxxxxxxx |xxxxxxxxxxxxx |xxxxxxxxxxxxx |       0.8567 |       0.8567 |       0.8567 |xxxxxxxxxxxxx |xxxxxxxxxxxxx |xxxxxxxxxxxxx |xxxxxxxxxxxxx |       0.8576 |       0.8576 |       0.8576 |xxxxxxxxxxxxx |xxxxxxxxxxxxx |xxxxxxxxxxxxx |xxxxxxxxxxxxx |       0.8584 |       0.8584 |       0.8584 |
bpred_bimod.bpred_dir_rate                  0.8430 |       0.8430 |       0.8430 |xxxxxxxxxxxxx |xxxxxxxxxxxxx |xxxxxxxxxxxxx |xxxxxxxxxxxxx |       0.8459 |       0.8459 |       0.8459 |xxxxxxxxxxxxx |xxxxxxxxxxxxx |xxxxxxxxxxxxx |xxxxxxxxxxxxx |       0.8479 |       0.8479 |       0.8479 |xxxxxxxxxxxxx |xxxxxxxxxxxxx |xxxxxxxxxxxxx |xxxxxxxxxxxxx |       0.8501 |       0.8501 |       0.8501 |xxxxxxxxxxxxx |xxxxxxxxxxxxx |xxxxxxxxxxxxx |xxxxxxxxxxxxx |       0.8515 |       0.8515 |       0.8515 |xxxxxxxxxxxxx |xxxxxxxxxxxxx |xxxxxxxxxxxxx |xxxxxxxxxxxxx |       0.8531 |       0.8531 |       0.8531 |xxxxxxxxxxxxx |xxxxxxxxxxxxx |xxxxxxxxxxxxx |xxxxxxxxxxxxx |       0.8545 |       0.8545 |       0.8545 |xxxxxxxxxxxxx |xxxxxxxxxxxxx |xxxxxxxxxxxxx |xxxxxxxxxxxxx |       0.8556 |       0.8556 |       0.8556 |xxxxxxxxxxxxx |xxxxxxxxxxxxx |xxxxxxxxxxxxx |xxxxxxxxxxxxx |       0.8567 |       0.8567 |       0.8567 |xxxxxxxxxxxxx |xxxxxxxxxxxxx |xxxxxxxxxxxxx |xxxxxxxxxxxxx |       0.8576 |       0.8576 |       0.8576 |xxxxxxxxxxxxx |xxxxxxxxxxxxx |xxxxxxxxxxxxx |xxxxxxxxxxxxx |       0.8584 |       0.8584 |       0.8584 |
bpred_bimod.bpred_jr_rate                   0.9828 |       0.9828 |       0.9828 |xxxxxxxxxxxxx |xxxxxxxxxxxxx |xxxxxxxxxxxxx |xxxxxxxxxxxxx |       0.9828 |       0.9828 |       0.9828 |xxxxxxxxxxxxx |xxxxxxxxxxxxx |xxxxxxxxxxxxx |xxxxxxxxxxxxx |       0.9828 |       0.9828 |       0.9828 |xxxxxxxxxxxxx |xxxxxxxxxxxxx |xxxxxxxxxxxxx |xxxxxxxxxxxxx |       0.9828 |       0.9828 |       0.9828 |xxxxxxxxxxxxx |xxxxxxxxxxxxx |xxxxxxxxxxxxx |xxxxxxxxxxxxx |       0.9828 |       0.9828 |       0.9828 |xxxxxxxxxxxxx |xxxxxxxxxxxxx |xxxxxxxxxxxxx |xxxxxxxxxxxxx |       0.9828 |       0.9828 |       0.9828 |xxxxxxxxxxxxx |xxxxxxxxxxxxx |xxxxxxxxxxxxx |xxxxxxxxxxxxx |       0.9828 |       0.9828 |       0.9828 |xxxxxxxxxxxxx |xxxxxxxxxxxxx |xxxxxxxxxxxxx |xxxxxxxxxxxxx |       0.9828 |       0.9828 |       0.9828 |xxxxxxxxxxxxx |xxxxxxxxxxxxx |xxxxxxxxxxxxx |xxxxxxxxxxxxx |       0.9828 |       0.9828 |       0.9828 |xxxxxxxxxxxxx |xxxxxxxxxxxxx |xxxxxxxxxxxxx |xxxxxxxxxxxxx |       0.9828 |       0.9828 |       0.9828 |xxxxxxxxxxxxx |xxxxxxxxxxxxx |xxxxxxxxxxxxx |xxxxxxxxxxxxx |       0.9828 |       0.9828 |       0.9828 |
bpred_bimod.bpred_jr_non_ras_rate.PP       <error: |      <error: |      <error: |xxxxxxxxxxxxx |xxxxxxxxxxxxx |xxxxxxxxxxxxx |xxxxxxxxxxxxx |      <error: |      <error: |      <error: |xxxxxxxxxxxxx |xxxxxxxxxxxxx |xxxxxxxxxxxxx |xxxxxxxxxxxxx |      <error: |      <error: |      <error: |xxxxxxxxxxxxx |xxxxxxxxxxxxx |xxxxxxxxxxxxx |xxxxxxxxxxxxx |      <error: |      <error: |      <error: |xxxxxxxxxxxxx |xxxxxxxxxxxxx |xxxxxxxxxxxxx |xxxxxxxxxxxxx |      <error: |      <error: |      <error: |xxxxxxxxxxxxx |xxxxxxxxxxxxx |xxxxxxxxxxxxx |xxxxxxxxxxxxx |      <error: |      <error: |      <error: |xxxxxxxxxxxxx |xxxxxxxxxxxxx |xxxxxxxxxxxxx |xxxxxxxxxxxxx |      <error: |      <error: |      <error: |xxxxxxxxxxxxx |xxxxxxxxxxxxx |xxxxxxxxxxxxx |xxxxxxxxxxxxx |      <error: |      <error: |      <error: |xxxxxxxxxxxxx |xxxxxxxxxxxxx |xxxxxxxxxxxxx |xxxxxxxxxxxxx |      <error: |      <error: |      <error: |xxxxxxxxxxxxx |xxxxxxxxxxxxx |xxxxxxxxxxxxx |xxxxxxxxxxxxx |      <error: |      <error: |      <error: |xxxxxxxxxxxxx |xxxxxxxxxxxxx |xxxxxxxxxxxxx |xxxxxxxxxxxxx |      <error: |      <error: |      <error: |
bpred_bimod.retstack_pushes                     60 |           60 |           60 |xxxxxxxxxxxxx |xxxxxxxxxxxxx |xxxxxxxxxxxxx |xxxxxxxxxxxxx |           60 |           60 |           60 |xxxxxxxxxxxxx |xxxxxxxxxxxxx |xxxxxxxxxxxxx |xxxxxxxxxxxxx |           60 |           60 |           60 |xxxxxxxxxxxxx |xxxxxxxxxxxxx |xxxxxxxxxxxxx |xxxxxxxxxxxxx |           60 |           60 |           60 |xxxxxxxxxxxxx |xxxxxxxxxxxxx |xxxxxxxxxxxxx |xxxxxxxxxxxxx |           60 |           60 |           60 |xxxxxxxxxxxxx |xxxxxxxxxxxxx |xxxxxxxxxxxxx |xxxxxxxxxxxxx |           60 |           60 |           60 |xxxxxxxxxxxxx |xxxxxxxxxxxxx |xxxxxxxxxxxxx |xxxxxxxxxxxxx |           60 |           60 |           60 |xxxxxxxxxxxxx |xxxxxxxxxxxxx |xxxxxxxxxxxxx |xxxxxxxxxxxxx |           60 |           60 |           60 |xxxxxxxxxxxxx |xxxxxxxxxxxxx |xxxxxxxxxxxxx |xxxxxxxxxxxxx |           60 |           60 |           60 |xxxxxxxxxxxxx |xxxxxxxxxxxxx |xxxxxxxxxxxxx |xxxxxxxxxxxxx |           60 |           60 |           60 |xxxxxxxxxxxxx |xxxxxxxxxxxxx |xxxxxxxxxxxxx |xxxxxxxxxxxxx |           60 |           60 |           60 |
bpred_bimod.retstack_pops                       58 |           58 |           58 |xxxxxxxxxxxxx |xxxxxxxxxxxxx |xxxxxxxxxxxxx |xxxxxxxxxxxxx |           58 |           58 |           58 |xxxxxxxxxxxxx |xxxxxxxxxxxxx |xxxxxxxxxxxxx |xxxxxxxxxxxxx |           58 |           58 |           58 |xxxxxxxxxxxxx |xxxxxxxxxxxxx |xxxxxxxxxxxxx |xxxxxxxxxxxxx |           58 |           58 |           58 |xxxxxxxxxxxxx |xxxxxxxxxxxxx |xxxxxxxxxxxxx |xxxxxxxxxxxxx |           58 |           58 |           58 |xxxxxxxxxxxxx |xxxxxxxxxxxxx |xxxxxxxxxxxxx |xxxxxxxxxxxxx |           58 |           58 |           58 |xxxxxxxxxxxxx |xxxxxxxxxxxxx |xxxxxxxxxxxxx |xxxxxxxxxxxxx |           58 |           58 |           58 |xxxxxxxxxxxxx |xxxxxxxxxxxxx |xxxxxxxxxxxxx |xxxxxxxxxxxxx |           58 |           58 |           58 |xxxxxxxxxxxxx |xxxxxxxxxxxxx |xxxxxxxxxxxxx |xxxxxxxxxxxxx |           58 |           58 |           58 |xxxxxxxxxxxxx |xxxxxxxxxxxxx |xxxxxxxxxxxxx |xxxxxxxxxxxxx |           58 |           58 |           58 |xxxxxxxxxxxxx |xxxxxxxxxxxxx |xxxxxxxxxxxxx |xxxxxxxxxxxxx |           58 |           58 |           58 |
bpred_bimod.used_ras.PP                         58 |           58 |           58 |xxxxxxxxxxxxx |xxxxxxxxxxxxx |xxxxxxxxxxxxx |xxxxxxxxxxxxx |           58 |           58 |           58 |xxxxxxxxxxxxx |xxxxxxxxxxxxx |xxxxxxxxxxxxx |xxxxxxxxxxxxx |           58 |           58 |           58 |xxxxxxxxxxxxx |xxxxxxxxxxxxx |xxxxxxxxxxxxx |xxxxxxxxxxxxx |           58 |           58 |           58 |xxxxxxxxxxxxx |xxxxxxxxxxxxx |xxxxxxxxxxxxx |xxxxxxxxxxxxx |           58 |           58 |           58 |xxxxxxxxxxxxx |xxxxxxxxxxxxx |xxxxxxxxxxxxx |xxxxxxxxxxxxx |           58 |           58 |           58 |xxxxxxxxxxxxx |xxxxxxxxxxxxx |xxxxxxxxxxxxx |xxxxxxxxxxxxx |           58 |           58 |           58 |xxxxxxxxxxxxx |xxxxxxxxxxxxx |xxxxxxxxxxxxx |xxxxxxxxxxxxx |           58 |           58 |           58 |xxxxxxxxxxxxx |xxxxxxxxxxxxx |xxxxxxxxxxxxx |xxxxxxxxxxxxx |           58 |           58 |           58 |xxxxxxxxxxxxx |xxxxxxxxxxxxx |xxxxxxxxxxxxx |xxxxxxxxxxxxx |           58 |           58 |           58 |xxxxxxxxxxxxx |xxxxxxxxxxxxx |xxxxxxxxxxxxx |xxxxxxxxxxxxx |           58 |           58 |           58 |
bpred_bimod.ras_hits.PP                         57 |           57 |           57 |xxxxxxxxxxxxx |xxxxxxxxxxxxx |xxxxxxxxxxxxx |xxxxxxxxxxxxx |           57 |           57 |           57 |xxxxxxxxxxxxx |xxxxxxxxxxxxx |xxxxxxxxxxxxx |xxxxxxxxxxxxx |           57 |           57 |           57 |xxxxxxxxxxxxx |xxxxxxxxxxxxx |xxxxxxxxxxxxx |xxxxxxxxxxxxx |           57 |           57 |           57 |xxxxxxxxxxxxx |xxxxxxxxxxxxx |xxxxxxxxxxxxx |xxxxxxxxxxxxx |           57 |           57 |           57 |xxxxxxxxxxxxx |xxxxxxxxxxxxx |xxxxxxxxxxxxx |xxxxxxxxxxxxx |           57 |           57 |           57 |xxxxxxxxxxxxx |xxxxxxxxxxxxx |xxxxxxxxxxxxx |xxxxxxxxxxxxx |           57 |           57 |           57 |xxxxxxxxxxxxx |xxxxxxxxxxxxx |xxxxxxxxxxxxx |xxxxxxxxxxxxx |           57 |           57 |           57 |xxxxxxxxxxxxx |xxxxxxxxxxxxx |xxxxxxxxxxxxx |xxxxxxxxxxxxx |           57 |           57 |           57 |xxxxxxxxxxxxx |xxxxxxxxxxxxx |xxxxxxxxxxxxx |xxxxxxxxxxxxx |           57 |           57 |           57 |xxxxxxxxxxxxx |xxxxxxxxxxxxx |xxxxxxxxxxxxx |xxxxxxxxxxxxx |           57 |           57 |           57 |
bpred_bimod.ras_rate.PP                     0.9828 |       0.9828 |       0.9828 |xxxxxxxxxxxxx |xxxxxxxxxxxxx |xxxxxxxxxxxxx |xxxxxxxxxxxxx |       0.9828 |       0.9828 |       0.9828 |xxxxxxxxxxxxx |xxxxxxxxxxxxx |xxxxxxxxxxxxx |xxxxxxxxxxxxx |       0.9828 |       0.9828 |       0.9828 |xxxxxxxxxxxxx |xxxxxxxxxxxxx |xxxxxxxxxxxxx |xxxxxxxxxxxxx |       0.9828 |       0.9828 |       0.9828 |xxxxxxxxxxxxx |xxxxxxxxxxxxx |xxxxxxxxxxxxx |xxxxxxxxxxxxx |       0.9828 |       0.9828 |       0.9828 |xxxxxxxxxxxxx |xxxxxxxxxxxxx |xxxxxxxxxxxxx |xxxxxxxxxxxxx |       0.9828 |       0.9828 |       0.9828 |xxxxxxxxxxxxx |xxxxxxxxxxxxx |xxxxxxxxxxxxx |xxxxxxxxxxxxx |       0.9828 |       0.9828 |       0.9828 |xxxxxxxxxxxxx |xxxxxxxxxxxxx |xxxxxxxxxxxxx |xxxxxxxxxxxxx |       0.9828 |       0.9828 |       0.9828 |xxxxxxxxxxxxx |xxxxxxxxxxxxx |xxxxxxxxxxxxx |xxxxxxxxxxxxx |       0.9828 |       0.9828 |       0.9828 |xxxxxxxxxxxxx |xxxxxxxxxxxxx |xxxxxxxxxxxxx |xxxxxxxxxxxxx |       0.9828 |       0.9828 |       0.9828 |xxxxxxxxxxxxx |xxxxxxxxxxxxx |xxxxxxxxxxxxx |xxxxxxxxxxxxx |       0.9828 |       0.9828 |       0.9828 |
bpred_2lev.lookups                   xxxxxxxxxxxxx |xxxxxxxxxxxxx |xxxxxxxxxxxxx |       176843 |       176843 |       176843 |       176843 |xxxxxxxxxxxxx |xxxxxxxxxxxxx |xxxxxxxxxxxxx |       386079 |       386079 |       386079 |       386079 |xxxxxxxxxxxxx |xxxxxxxxxxxxx |xxxxxxxxxxxxx |       836081 |       836081 |       836081 |       836081 |xxxxxxxxxxxxx |xxxxxxxxxxxxx |xxxxxxxxxxxxx |      1802921 |      1802921 |      1802921 |      1802921 |xxxxxxxxxxxxx |xxxxxxxxxxxxx |xxxxxxxxxxxxx |      3867799 |      3867799 |      3867799 |      3867799 |xxxxxxxxxxxxx |xxxxxxxxxxxxx |xxxxxxxxxxxxx |      8258597 |      8258597 |      8258597 |      8258597 |xxxxxxxxxxxxx |xxxxxxxxxxxxx |xxxxxxxxxxxxx |     17565427 |     17565427 |     17565427 |     17565427 |xxxxxxxxxxxxx |xxxxxxxxxxxxx |xxxxxxxxxxxxx |     37227121 |     37227121 |     37227121 |     37227121 |xxxxxxxxxxxxx |xxxxxxxxxxxxx |xxxxxxxxxxxxx |     78645293 |     78645293 |     78645293 |     78645293 |xxxxxxxxxxxxx |xxxxxxxxxxxxx |xxxxxxxxxxxxx |    165682893 |    165682893 |    165682893 |    165682893 |xxxxxxxxxxxxx |xxxxxxxxxxxxx |xxxxxxxxxxxxx |    348149887 |    348149887 |    348149887 |    348149887 |
[...]
bpred_2lev.retstack_pushes           xxxxxxxxxxxxx |xxxxxxxxxxxxx |xxxxxxxxxxxxx |           60 |           60 |           60 |           60 |xxxxxxxxxxxxx |xxxxxxxxxxxxx |xxxxxxxxxxxxx |           60 |           60 |           60 |           60 |xxxxxxxxxxxxx |xxxxxxxxxxxxx |xxxxxxxxxxxxx |           60 |           60 |           60 |           60 |xxxxxxxxxxxxx |xxxxxxxxxxxxx |xxxxxxxxxxxxx |           60 |           60 |           60 |           60 |xxxxxxxxxxxxx |xxxxxxxxxxxxx |xxxxxxxxxxxxx |           60 |           60 |           60 |           60 |xxxxxxxxxxxxx |xxxxxxxxxxxxx |xxxxxxxxxxxxx |           60 |           60 |           60 |           60 |xxxxxxxxxxxxx |xxxxxxxxxxxxx |xxxxxxxxxxxxx |           60 |           60 |           60 |           60 |xxxxxxxxxxxxx |xxxxxxxxxxxxx |xxxxxxxxxxxxx |           60 |           60 |           60 |           60 |xxxxxxxxxxxxx |xxxxxxxxxxxxx |xxxxxxxxxxxxx |           60 |           60 |           60 |           60 |xxxxxxxxxxxxx |xxxxxxxxxxxxx |xxxxxxxxxxxxx |           60 |           60 |           60 |           60 |xxxxxxxxxxxxx |xxxxxxxxxxxxx |xxxxxxxxxxxxx |           60 |           60 |           60 |           60 |
bpred_2lev.retstack_pops             xxxxxxxxxxxxx |xxxxxxxxxxxxx |xxxxxxxxxxxxx |           58 |           58 |           58 |           58 |xxxxxxxxxxxxx |xxxxxxxxxxxxx |xxxxxxxxxxxxx |           58 |           58 |           58 |           58 |xxxxxxxxxxxxx |xxxxxxxxxxxxx |xxxxxxxxxxxxx |           58 |           58 |           58 |           58 |xxxxxxxxxxxxx |xxxxxxxxxxxxx |xxxxxxxxxxxxx |           58 |           58 |           58 |           58 |xxxxxxxxxxxxx |xxxxxxxxxxxxx |xxxxxxxxxxxxx |           58 |           58 |           58 |           58 |xxxxxxxxxxxxx |xxxxxxxxxxxxx |xxxxxxxxxxxxx |           58 |           58 |           58 |           58 |xxxxxxxxxxxxx |xxxxxxxxxxxxx |xxxxxxxxxxxxx |           58 |           58 |           58 |           58 |xxxxxxxxxxxxx |xxxxxxxxxxxxx |xxxxxxxxxxxxx |           58 |           58 |           58 |           58 |xxxxxxxxxxxxx |xxxxxxxxxxxxx |xxxxxxxxxxxxx |           58 |           58 |           58 |           58 |xxxxxxxxxxxxx |xxxxxxxxxxxxx |xxxxxxxxxxxxx |           58 |           58 |           58 |           58 |xxxxxxxxxxxxx |xxxxxxxxxxxxx |xxxxxxxxxxxxx |           58 |           58 |           58 |           58 |
bpred_2lev.used_ras.PP               xxxxxxxxxxxxx |xxxxxxxxxxxxx |xxxxxxxxxxxxx |           58 |           58 |           58 |           58 |xxxxxxxxxxxxx |xxxxxxxxxxxxx |xxxxxxxxxxxxx |           58 |           58 |           58 |           58 |xxxxxxxxxxxxx |xxxxxxxxxxxxx |xxxxxxxxxxxxx |           58 |           58 |           58 |           58 |xxxxxxxxxxxxx |xxxxxxxxxxxxx |xxxxxxxxxxxxx |           58 |           58 |           58 |           58 |xxxxxxxxxxxxx |xxxxxxxxxxxxx |xxxxxxxxxxxxx |           58 |           58 |           58 |           58 |xxxxxxxxxxxxx |xxxxxxxxxxxxx |xxxxxxxxxxxxx |           58 |           58 |           58 |           58 |xxxxxxxxxxxxx |xxxxxxxxxxxxx |xxxxxxxxxxxxx |           58 |           58 |           58 |           58 |xxxxxxxxxxxxx |xxxxxxxxxxxxx |xxxxxxxxxxxxx |           58 |           58 |           58 |           58 |xxxxxxxxxxxxx |xxxxxxxxxxxxx |xxxxxxxxxxxxx |           58 |           58 |           58 |           58 |xxxxxxxxxxxxx |xxxxxxxxxxxxx |xxxxxxxxxxxxx |           58 |           58 |           58 |           58 |xxxxxxxxxxxxx |xxxxxxxxxxxxx |xxxxxxxxxxxxx |           58 |           58 |           58 |           58 |
bpred_2lev.ras_hits.PP               xxxxxxxxxxxxx |xxxxxxxxxxxxx |xxxxxxxxxxxxx |           57 |           57 |           57 |           57 |xxxxxxxxxxxxx |xxxxxxxxxxxxx |xxxxxxxxxxxxx |           57 |           57 |           57 |           57 |xxxxxxxxxxxxx |xxxxxxxxxxxxx |xxxxxxxxxxxxx |           57 |           57 |           57 |           57 |xxxxxxxxxxxxx |xxxxxxxxxxxxx |xxxxxxxxxxxxx |           57 |           57 |           57 |           57 |xxxxxxxxxxxxx |xxxxxxxxxxxxx |xxxxxxxxxxxxx |           57 |           57 |           57 |           57 |xxxxxxxxxxxxx |xxxxxxxxxxxxx |xxxxxxxxxxxxx |           57 |           57 |           57 |           57 |xxxxxxxxxxxxx |xxxxxxxxxxxxx |xxxxxxxxxxxxx |           57 |           57 |           57 |           57 |xxxxxxxxxxxxx |xxxxxxxxxxxxx |xxxxxxxxxxxxx |           57 |           57 |           57 |           57 |xxxxxxxxxxxxx |xxxxxxxxxxxxx |xxxxxxxxxxxxx |           57 |           57 |           57 |           57 |xxxxxxxxxxxxx |xxxxxxxxxxxxx |xxxxxxxxxxxxx |           57 |           57 |           57 |           57 |xxxxxxxxxxxxx |xxxxxxxxxxxxx |xxxxxxxxxxxxx |           57 |           57 |           57 |           57 |
bpred_2lev.ras_rate.PP               xxxxxxxxxxxxx |xxxxxxxxxxxxx |xxxxxxxxxxxxx |       0.9828 |       0.9828 |       0.9828 |       0.9828 |xxxxxxxxxxxxx |xxxxxxxxxxxxx |xxxxxxxxxxxxx |       0.9828 |       0.9828 |       0.9828 |       0.9828 |xxxxxxxxxxxxx |xxxxxxxxxxxxx |xxxxxxxxxxxxx |       0.9828 |       0.9828 |       0.9828 |       0.9828 |xxxxxxxxxxxxx |xxxxxxxxxxxxx |xxxxxxxxxxxxx |       0.9828 |       0.9828 |       0.9828 |       0.9828 |xxxxxxxxxxxxx |xxxxxxxxxxxxx |xxxxxxxxxxxxx |       0.9828 |       0.9828 |       0.9828 |       0.9828 |xxxxxxxxxxxxx |xxxxxxxxxxxxx |xxxxxxxxxxxxx |       0.9828 |       0.9828 |       0.9828 |       0.9828 |xxxxxxxxxxxxx |xxxxxxxxxxxxx |xxxxxxxxxxxxx |       0.9828 |       0.9828 |       0.9828 |       0.9828 |xxxxxxxxxxxxx |xxxxxxxxxxxxx |xxxxxxxxxxxxx |       0.9828 |       0.9828 |       0.9828 |       0.9828 |xxxxxxxxxxxxx |xxxxxxxxxxxxx |xxxxxxxxxxxxx |       0.9828 |       0.9828 |       0.9828 |       0.9828 |xxxxxxxxxxxxx |xxxxxxxxxxxxx |xxxxxxxxxxxxx |       0.9828 |       0.9828 |       0.9828 |       0.9828 |xxxxxxxxxxxxx |xxxxxxxxxxxxx |xxxxxxxxxxxxx |       0.9828 |       0.9828 |       0.9828 |       0.9828 |

Command list: 
	sslittle-na-sstrix-gcc -Wall -O3 -funroll-loops -finline-functions  -DRANDOM_SIZE=4096 -DOFFSET=0 -DSORT=base_heapsort base_heapsort1160891783.c simpleMain.c -o base_heapsort479046044
	sim-cache -cache:dl1 dl1:256:32:1:l -cache:dl2 dl2:131072:32:1:l -cache:il1 il1:256:32:1:l -cache:il2 dl2 base_heapsort479046044
	sim-cache -cache:dl1 dl1:256:32:1:l -cache:dl2 dl2:65536:32:1:l -cache:il1 il1:256:32:1:l -cache:il2 dl2 base_heapsort479046044
	sim-cache -cache:dl1 dl1:1:32:256:l -cache:dl2 dl2:1:32:131072:l -cache:il1 il1:1:32:256:l -cache:il2 dl2 base_heapsort479046044
	sim-cache -cache:dl1 dl1:1:32:256:l -cache:dl2 dl2:1:32:65536:l -cache:il1 il1:1:32:256:l -cache:il2 dl2 base_heapsort479046044
	sim-bpred -bpred bimod -bpred:bimod 512 base_heapsort479046044
	sim-bpred -bpred bimod -bpred:bimod 1024 base_heapsort479046044
	sim-bpred -bpred bimod -bpred:bimod 2048 base_heapsort479046044
	sim-bpred -bpred 2lev -bpred:2lev 1 512 10 1 base_heapsort479046044
	sim-bpred -bpred 2lev -bpred:2lev 1 1024 10 1 base_heapsort479046044
	sim-bpred -bpred 2lev -bpred:2lev 1 2048 10 1 base_heapsort479046044
	sim-bpred -bpred 2lev -bpred:2lev 1 4096 10 1 base_heapsort479046044
	sslittle-na-sstrix-gcc -Wall -O3 -funroll-loops -finline-functions  -DRANDOM_SIZE=8192 -DOFFSET=0 -DSORT=base_heapsort base_heapsort1160891783.c simpleMain.c -o base_heapsort479046044
	sim-cache -cache:dl1 dl1:256:32:1:l -cache:dl2 dl2:131072:32:1:l -cache:il1 il1:256:32:1:l -cache:il2 dl2 base_heapsort479046044
	sim-cache -cache:dl1 dl1:256:32:1:l -cache:dl2 dl2:65536:32:1:l -cache:il1 il1:256:32:1:l -cache:il2 dl2 base_heapsort479046044
	sim-cache -cache:dl1 dl1:1:32:256:l -cache:dl2 dl2:1:32:131072:l -cache:il1 il1:1:32:256:l -cache:il2 dl2 base_heapsort479046044
	sim-cache -cache:dl1 dl1:1:32:256:l -cache:dl2 dl2:1:32:65536:l -cache:il1 il1:1:32:256:l -cache:il2 dl2 base_heapsort479046044
	sim-bpred -bpred bimod -bpred:bimod 512 base_heapsort479046044
	sim-bpred -bpred bimod -bpred:bimod 1024 base_heapsort479046044
	sim-bpred -bpred bimod -bpred:bimod 2048 base_heapsort479046044
	sim-bpred -bpred 2lev -bpred:2lev 1 512 10 1 base_heapsort479046044
	sim-bpred -bpred 2lev -bpred:2lev 1 1024 10 1 base_heapsort479046044
	sim-bpred -bpred 2lev -bpred:2lev 1 2048 10 1 base_heapsort479046044
	sim-bpred -bpred 2lev -bpred:2lev 1 4096 10 1 base_heapsort479046044
	sslittle-na-sstrix-gcc -Wall -O3 -funroll-loops -finline-functions  -DRANDOM_SIZE=16384 -DOFFSET=0 -DSORT=base_heapsort base_heapsort1160891783.c simpleMain.c -o base_heapsort479046044
	sim-cache -cache:dl1 dl1:256:32:1:l -cache:dl2 dl2:131072:32:1:l -cache:il1 il1:256:32:1:l -cache:il2 dl2 base_heapsort479046044
	sim-cache -cache:dl1 dl1:256:32:1:l -cache:dl2 dl2:65536:32:1:l -cache:il1 il1:256:32:1:l -cache:il2 dl2 base_heapsort479046044
	sim-cache -cache:dl1 dl1:1:32:256:l -cache:dl2 dl2:1:32:131072:l -cache:il1 il1:1:32:256:l -cache:il2 dl2 base_heapsort479046044
	sim-cache -cache:dl1 dl1:1:32:256:l -cache:dl2 dl2:1:32:65536:l -cache:il1 il1:1:32:256:l -cache:il2 dl2 base_heapsort479046044
	sim-bpred -bpred bimod -bpred:bimod 512 base_heapsort479046044
	sim-bpred -bpred bimod -bpred:bimod 1024 base_heapsort479046044
	sim-bpred -bpred bimod -bpred:bimod 2048 base_heapsort479046044
	sim-bpred -bpred 2lev -bpred:2lev 1 512 10 1 base_heapsort479046044
	sim-bpred -bpred 2lev -bpred:2lev 1 1024 10 1 base_heapsort479046044
	sim-bpred -bpred 2lev -bpred:2lev 1 2048 10 1 base_heapsort479046044
	sim-bpred -bpred 2lev -bpred:2lev 1 4096 10 1 base_heapsort479046044
	sslittle-na-sstrix-gcc -Wall -O3 -funroll-loops -finline-functions  -DRANDOM_SIZE=32768 -DOFFSET=0 -DSORT=base_heapsort base_heapsort1160891783.c simpleMain.c -o base_heapsort479046044
	sim-cache -cache:dl1 dl1:256:32:1:l -cache:dl2 dl2:131072:32:1:l -cache:il1 il1:256:32:1:l -cache:il2 dl2 base_heapsort479046044
	sim-cache -cache:dl1 dl1:256:32:1:l -cache:dl2 dl2:65536:32:1:l -cache:il1 il1:256:32:1:l -cache:il2 dl2 base_heapsort479046044
	sim-cache -cache:dl1 dl1:1:32:256:l -cache:dl2 dl2:1:32:131072:l -cache:il1 il1:1:32:256:l -cache:il2 dl2 base_heapsort479046044
	sim-cache -cache:dl1 dl1:1:32:256:l -cache:dl2 dl2:1:32:65536:l -cache:il1 il1:1:32:256:l -cache:il2 dl2 base_heapsort479046044
	sim-bpred -bpred bimod -bpred:bimod 512 base_heapsort479046044
	sim-bpred -bpred bimod -bpred:bimod 1024 base_heapsort479046044
	sim-bpred -bpred bimod -bpred:bimod 2048 base_heapsort479046044
	sim-bpred -bpred 2lev -bpred:2lev 1 512 10 1 base_heapsort479046044
	sim-bpred -bpred 2lev -bpred:2lev 1 1024 10 1 base_heapsort479046044
	sim-bpred -bpred 2lev -bpred:2lev 1 2048 10 1 base_heapsort479046044
	sim-bpred -bpred 2lev -bpred:2lev 1 4096 10 1 base_heapsort479046044
	sslittle-na-sstrix-gcc -Wall -O3 -funroll-loops -finline-functions  -DRANDOM_SIZE=65536 -DOFFSET=0 -DSORT=base_heapsort base_heapsort1160891783.c simpleMain.c -o base_heapsort479046044
	sim-cache -cache:dl1 dl1:256:32:1:l -cache:dl2 dl2:131072:32:1:l -cache:il1 il1:256:32:1:l -cache:il2 dl2 base_heapsort479046044
	sim-cache -cache:dl1 dl1:256:32:1:l -cache:dl2 dl2:65536:32:1:l -cache:il1 il1:256:32:1:l -cache:il2 dl2 base_heapsort479046044
	sim-cache -cache:dl1 dl1:1:32:256:l -cache:dl2 dl2:1:32:131072:l -cache:il1 il1:1:32:256:l -cache:il2 dl2 base_heapsort479046044
	sim-cache -cache:dl1 dl1:1:32:256:l -cache:dl2 dl2:1:32:65536:l -cache:il1 il1:1:32:256:l -cache:il2 dl2 base_heapsort479046044
	sim-bpred -bpred bimod -bpred:bimod 512 base_heapsort479046044
	sim-bpred -bpred bimod -bpred:bimod 1024 base_heapsort479046044
	sim-bpred -bpred bimod -bpred:bimod 2048 base_heapsort479046044
	sim-bpred -bpred 2lev -bpred:2lev 1 512 10 1 base_heapsort479046044
	sim-bpred -bpred 2lev -bpred:2lev 1 1024 10 1 base_heapsort479046044
	sim-bpred -bpred 2lev -bpred:2lev 1 2048 10 1 base_heapsort479046044
	sim-bpred -bpred 2lev -bpred:2lev 1 4096 10 1 base_heapsort479046044
	sslittle-na-sstrix-gcc -Wall -O3 -funroll-loops -finline-functions  -DRANDOM_SIZE=131072 -DOFFSET=0 -DSORT=base_heapsort base_heapsort1160891783.c simpleMain.c -o base_heapsort479046044
	sim-cache -cache:dl1 dl1:256:32:1:l -cache:dl2 dl2:131072:32:1:l -cache:il1 il1:256:32:1:l -cache:il2 dl2 base_heapsort479046044
	sim-cache -cache:dl1 dl1:256:32:1:l -cache:dl2 dl2:65536:32:1:l -cache:il1 il1:256:32:1:l -cache:il2 dl2 base_heapsort479046044
	sim-cache -cache:dl1 dl1:1:32:256:l -cache:dl2 dl2:1:32:131072:l -cache:il1 il1:1:32:256:l -cache:il2 dl2 base_heapsort479046044
	sim-cache -cache:dl1 dl1:1:32:256:l -cache:dl2 dl2:1:32:65536:l -cache:il1 il1:1:32:256:l -cache:il2 dl2 base_heapsort479046044
	sim-bpred -bpred bimod -bpred:bimod 512 base_heapsort479046044
	sim-bpred -bpred bimod -bpred:bimod 1024 base_heapsort479046044
	sim-bpred -bpred bimod -bpred:bimod 2048 base_heapsort479046044
	sim-bpred -bpred 2lev -bpred:2lev 1 512 10 1 base_heapsort479046044
	sim-bpred -bpred 2lev -bpred:2lev 1 1024 10 1 base_heapsort479046044
	sim-bpred -bpred 2lev -bpred:2lev 1 2048 10 1 base_heapsort479046044
	sim-bpred -bpred 2lev -bpred:2lev 1 4096 10 1 base_heapsort479046044
	sslittle-na-sstrix-gcc -Wall -O3 -funroll-loops -finline-functions  -DRANDOM_SIZE=262144 -DOFFSET=0 -DSORT=base_heapsort base_heapsort1160891783.c simpleMain.c -o base_heapsort479046044
	sim-cache -cache:dl1 dl1:256:32:1:l -cache:dl2 dl2:131072:32:1:l -cache:il1 il1:256:32:1:l -cache:il2 dl2 base_heapsort479046044
	sim-cache -cache:dl1 dl1:256:32:1:l -cache:dl2 dl2:65536:32:1:l -cache:il1 il1:256:32:1:l -cache:il2 dl2 base_heapsort479046044
	sim-cache -cache:dl1 dl1:1:32:256:l -cache:dl2 dl2:1:32:131072:l -cache:il1 il1:1:32:256:l -cache:il2 dl2 base_heapsort479046044
	sim-cache -cache:dl1 dl1:1:32:256:l -cache:dl2 dl2:1:32:65536:l -cache:il1 il1:1:32:256:l -cache:il2 dl2 base_heapsort479046044
	sim-bpred -bpred bimod -bpred:bimod 512 base_heapsort479046044
	sim-bpred -bpred bimod -bpred:bimod 1024 base_heapsort479046044
	sim-bpred -bpred bimod -bpred:bimod 2048 base_heapsort479046044
	sim-bpred -bpred 2lev -bpred:2lev 1 512 10 1 base_heapsort479046044
	sim-bpred -bpred 2lev -bpred:2lev 1 1024 10 1 base_heapsort479046044
	sim-bpred -bpred 2lev -bpred:2lev 1 2048 10 1 base_heapsort479046044
	sim-bpred -bpred 2lev -bpred:2lev 1 4096 10 1 base_heapsort479046044
	sslittle-na-sstrix-gcc -Wall -O3 -funroll-loops -finline-functions  -DRANDOM_SIZE=524288 -DOFFSET=0 -DSORT=base_heapsort base_heapsort1160891783.c simpleMain.c -o base_heapsort479046044
	sim-cache -cache:dl1 dl1:256:32:1:l -cache:dl2 dl2:131072:32:1:l -cache:il1 il1:256:32:1:l -cache:il2 dl2 base_heapsort479046044
	sim-cache -cache:dl1 dl1:256:32:1:l -cache:dl2 dl2:65536:32:1:l -cache:il1 il1:256:32:1:l -cache:il2 dl2 base_heapsort479046044
	sim-cache -cache:dl1 dl1:1:32:256:l -cache:dl2 dl2:1:32:131072:l -cache:il1 il1:1:32:256:l -cache:il2 dl2 base_heapsort479046044
	sim-cache -cache:dl1 dl1:1:32:256:l -cache:dl2 dl2:1:32:65536:l -cache:il1 il1:1:32:256:l -cache:il2 dl2 base_heapsort479046044
	sim-bpred -bpred bimod -bpred:bimod 512 base_heapsort479046044
	sim-bpred -bpred bimod -bpred:bimod 1024 base_heapsort479046044
	sim-bpred -bpred bimod -bpred:bimod 2048 base_heapsort479046044
	sim-bpred -bpred 2lev -bpred:2lev 1 512 10 1 base_heapsort479046044
	sim-bpred -bpred 2lev -bpred:2lev 1 1024 10 1 base_heapsort479046044
	sim-bpred -bpred 2lev -bpred:2lev 1 2048 10 1 base_heapsort479046044
	sim-bpred -bpred 2lev -bpred:2lev 1 4096 10 1 base_heapsort479046044
	sslittle-na-sstrix-gcc -Wall -O3 -funroll-loops -finline-functions  -DRANDOM_SIZE=1048576 -DOFFSET=0 -DSORT=base_heapsort base_heapsort1160891783.c simpleMain.c -o base_heapsort479046044
	sim-cache -cache:dl1 dl1:256:32:1:l -cache:dl2 dl2:131072:32:1:l -cache:il1 il1:256:32:1:l -cache:il2 dl2 base_heapsort479046044
	sim-cache -cache:dl1 dl1:256:32:1:l -cache:dl2 dl2:65536:32:1:l -cache:il1 il1:256:32:1:l -cache:il2 dl2 base_heapsort479046044
	sim-cache -cache:dl1 dl1:1:32:256:l -cache:dl2 dl2:1:32:131072:l -cache:il1 il1:1:32:256:l -cache:il2 dl2 base_heapsort479046044
	sim-cache -cache:dl1 dl1:1:32:256:l -cache:dl2 dl2:1:32:65536:l -cache:il1 il1:1:32:256:l -cache:il2 dl2 base_heapsort479046044
	sim-bpred -bpred bimod -bpred:bimod 512 base_heapsort479046044
	sim-bpred -bpred bimod -bpred:bimod 1024 base_heapsort479046044
	sim-bpred -bpred bimod -bpred:bimod 2048 base_heapsort479046044
	sim-bpred -bpred 2lev -bpred:2lev 1 512 10 1 base_heapsort479046044
	sim-bpred -bpred 2lev -bpred:2lev 1 1024 10 1 base_heapsort479046044
	sim-bpred -bpred 2lev -bpred:2lev 1 2048 10 1 base_heapsort479046044
	sim-bpred -bpred 2lev -bpred:2lev 1 4096 10 1 base_heapsort479046044
	sslittle-na-sstrix-gcc -Wall -O3 -funroll-loops -finline-functions  -DRANDOM_SIZE=2097152 -DOFFSET=0 -DSORT=base_heapsort base_heapsort1160891783.c simpleMain.c -o base_heapsort479046044
	sim-cache -cache:dl1 dl1:256:32:1:l -cache:dl2 dl2:131072:32:1:l -cache:il1 il1:256:32:1:l -cache:il2 dl2 base_heapsort479046044
	sim-cache -cache:dl1 dl1:256:32:1:l -cache:dl2 dl2:65536:32:1:l -cache:il1 il1:256:32:1:l -cache:il2 dl2 base_heapsort479046044
	sim-cache -cache:dl1 dl1:1:32:256:l -cache:dl2 dl2:1:32:131072:l -cache:il1 il1:1:32:256:l -cache:il2 dl2 base_heapsort479046044
	sim-cache -cache:dl1 dl1:1:32:256:l -cache:dl2 dl2:1:32:65536:l -cache:il1 il1:1:32:256:l -cache:il2 dl2 base_heapsort479046044
	sim-bpred -bpred bimod -bpred:bimod 512 base_heapsort479046044
	sim-bpred -bpred bimod -bpred:bimod 1024 base_heapsort479046044
	sim-bpred -bpred bimod -bpred:bimod 2048 base_heapsort479046044
	sim-bpred -bpred 2lev -bpred:2lev 1 512 10 1 base_heapsort479046044
	sim-bpred -bpred 2lev -bpred:2lev 1 1024 10 1 base_heapsort479046044
	sim-bpred -bpred 2lev -bpred:2lev 1 2048 10 1 base_heapsort479046044
	sim-bpred -bpred 2lev -bpred:2lev 1 4096 10 1 base_heapsort479046044
	sslittle-na-sstrix-gcc -Wall -O3 -funroll-loops -finline-functions  -DRANDOM_SIZE=4194304 -DOFFSET=0 -DSORT=base_heapsort base_heapsort1160891783.c simpleMain.c -o base_heapsort479046044
	sim-cache -cache:dl1 dl1:256:32:1:l -cache:dl2 dl2:131072:32:1:l -cache:il1 il1:256:32:1:l -cache:il2 dl2 base_heapsort479046044
	sim-cache -cache:dl1 dl1:256:32:1:l -cache:dl2 dl2:65536:32:1:l -cache:il1 il1:256:32:1:l -cache:il2 dl2 base_heapsort479046044
	sim-cache -cache:dl1 dl1:1:32:256:l -cache:dl2 dl2:1:32:131072:l -cache:il1 il1:1:32:256:l -cache:il2 dl2 base_heapsort479046044
	sim-cache -cache:dl1 dl1:1:32:256:l -cache:dl2 dl2:1:32:65536:l -cache:il1 il1:1:32:256:l -cache:il2 dl2 base_heapsort479046044
	sim-bpred -bpred bimod -bpred:bimod 512 base_heapsort479046044
	sim-bpred -bpred bimod -bpred:bimod 1024 base_heapsort479046044
	sim-bpred -bpred bimod -bpred:bimod 2048 base_heapsort479046044
	sim-bpred -bpred 2lev -bpred:2lev 1 512 10 1 base_heapsort479046044
	sim-bpred -bpred 2lev -bpred:2lev 1 1024 10 1 base_heapsort479046044
	sim-bpred -bpred 2lev -bpred:2lev 1 2048 10 1 base_heapsort479046044
	sim-bpred -bpred 2lev -bpred:2lev 1 4096 10 1 base_heapsort479046044
