Tue Jun 21 13:48:29 2005
Run as: "./do_simple -c random.org1 -o 1 base_mergesort"
-------------------------------------------------------------------------------------------------
sim-cache                                     4096 |         4096 |         4096 |         4096 |         8192 |         8192 |         8192 |         8192 |        16384 |        16384 |        16384 |        16384 |        32768 |        32768 |        32768 |        32768 |        65536 |        65536 |        65536 |        65536 |       131072 |       131072 |       131072 |       131072 |       262144 |       262144 |       262144 |       262144 |       524288 |       524288 |       524288 |       524288 |      1048576 |      1048576 |      1048576 |      1048576 |      2097152 |      2097152 |      2097152 |      2097152 |      4194304 |      4194304 |      4194304 |      4194304 |
-cache:dl1 dl1:256:32:1:l -cache:dl2 dl2:131072:32:1:l -cache:il1 il1:256:32:1:l -cache:il2 dl2
-cache:dl1 dl1:256:32:1:l -cache:dl2 dl2:65536:32:1:l -cache:il1 il1:256:32:1:l -cache:il2 dl2
-cache:dl1 dl1:1:32:256:l -cache:dl2 dl2:1:32:131072:l -cache:il1 il1:1:32:256:l -cache:il2 dl2
-cache:dl1 dl1:1:32:256:l -cache:dl2 dl2:1:32:65536:l -cache:il1 il1:1:32:256:l -cache:il2 dl2
-------------------------------------------------------------------------------------------------
sim_num_insn                                750689 |       750689 |       750689 |       750689 |      1654452 |      1654452 |      1654452 |      1654452 |      3531051 |      3531051 |      3531051 |      3531051 |      7675246 |      7675246 |      7675246 |      7675246 |     16257281 |     16257281 |     16257281 |     16257281 |     34988594 |     34988594 |     34988594 |     34988594 |     73647944 |     73647944 |     73647944 |     73647944 |    157259225 |    157259225 |    157259225 |    157259225 |    329174985 |    329174985 |    329174985 |    329174985 |    698238996 |    698238996 |    698238996 |    698238996 |   1455240968 |   1455240968 |   1455240968 |   1455240968 |
sim_num_refs                                205466 |       205466 |       205466 |       205466 |       461299 |       461299 |       461299 |       461299 |       959574 |       959574 |       959574 |       959574 |      2127745 |      2127745 |      2127745 |      2127745 |      4414632 |      4414632 |      4414632 |      4414632 |      9675745 |      9675745 |      9675745 |      9675745 |     20004130 |     20004130 |     20004130 |     20004130 |     43413085 |     43413085 |     43413085 |     43413085 |     89446066 |     89446066 |     89446066 |     89446066 |    192523953 |    192523953 |    192523953 |    192523953 |    395531074 |    395531074 |    395531074 |    395531074 |
sim_elapsed_time                                 1 |            1 |            9 |            5 |            1 |            1 |           14 |            8 |            1 |            1 |           25 |           12 |            2 |            2 |           45 |           23 |            4 |            4 |           83 |           41 |            9 |            9 |          152 |           71 |           19 |           18 |          263 |          100 |           40 |           40 |          364 |          125 |           83 |           84 |          414 |          174 |          177 |          177 |          523 |          282 |          368 |          368 |          743 |          502 |
sim_inst_rate                          750689.0000 |  750689.0000 |   83409.8889 |  150137.8000 | 1654452.0000 | 1654452.0000 |  118175.1429 |  206806.5000 | 3531051.0000 | 3531051.0000 |  141242.0400 |  294254.2500 | 3837623.0000 | 3837623.0000 |  170561.0222 |  333706.3478 | 4064320.2500 | 4064320.2500 |  195870.8554 |  396519.0488 | 3887621.5556 | 3887621.5556 |  230188.1184 |  492797.0986 | 3876207.5789 | 4091552.4444 |  280030.2053 |  736479.4400 | 3931480.6250 | 3931480.6250 |  432030.8379 | 1258073.8000 | 3965963.6747 | 3918749.8214 |  795108.6594 | 1891810.2586 | 3944853.0847 | 3944853.0847 | 1335065.0019 | 2476024.8085 | 3954459.1522 | 3954459.1522 | 1958601.5720 | 2898886.3904 |
il1.accesses                                750689 |       750689 |       750689 |       750689 |      1654452 |      1654452 |      1654452 |      1654452 |      3531051 |      3531051 |      3531051 |      3531051 |      7675246 |      7675246 |      7675246 |      7675246 |     16257281 |     16257281 |     16257281 |     16257281 |     34988594 |     34988594 |     34988594 |     34988594 |     73647944 |     73647944 |     73647944 |     73647944 |    157259225 |    157259225 |    157259225 |    157259225 |    329174985 |    329174985 |    329174985 |    329174985 |    698238996 |    698238996 |    698238996 |    698238996 |   1455240968 |   1455240968 |   1455240968 |   1455240968 |
il1.hits                                    750218 |       750218 |       750271 |       750271 |      1653930 |      1653930 |      1653993 |      1653993 |      3530540 |      3530540 |      3530620 |      3530620 |      7674724 |      7674724 |      7674786 |      7674786 |     16256777 |     16256777 |     16256842 |     16256842 |     34988071 |     34988071 |     34988134 |     34988134 |     73647441 |     73647441 |     73647507 |     73647507 |    157258702 |    157258702 |    157258765 |    157258765 |    329174447 |    329174447 |    329174515 |    329174515 |    698238448 |    698238448 |    698238524 |    698238524 |   1455240430 |   1455240430 |   1455240498 |   1455240498 |
il1.misses                                     471 |          471 |          418 |          418 |          522 |          522 |          459 |          459 |          511 |          511 |          431 |          431 |          522 |          522 |          460 |          460 |          504 |          504 |          439 |          439 |          523 |          523 |          460 |          460 |          503 |          503 |          437 |          437 |          523 |          523 |          460 |          460 |          538 |          538 |          470 |          470 |          548 |          548 |          472 |          472 |          538 |          538 |          470 |          470 |
il1.replacements                               267 |          267 |          162 |          162 |          305 |          305 |          203 |          203 |          311 |          311 |          175 |          175 |          306 |          306 |          204 |          204 |          302 |          302 |          183 |          183 |          307 |          307 |          204 |          204 |          301 |          301 |          181 |          181 |          307 |          307 |          204 |          204 |          309 |          309 |          214 |          214 |          319 |          319 |          216 |          216 |          309 |          309 |          214 |          214 |
il1.writebacks                                   0 |            0 |            0 |            0 |            0 |            0 |            0 |            0 |            0 |            0 |            0 |            0 |            0 |            0 |            0 |            0 |            0 |            0 |            0 |            0 |            0 |            0 |            0 |            0 |            0 |            0 |            0 |            0 |            0 |            0 |            0 |            0 |            0 |            0 |            0 |            0 |            0 |            0 |            0 |            0 |            0 |            0 |            0 |            0 |
il1.invalidations                                0 |            0 |            0 |            0 |            0 |            0 |            0 |            0 |            0 |            0 |            0 |            0 |            0 |            0 |            0 |            0 |            0 |            0 |            0 |            0 |            0 |            0 |            0 |            0 |            0 |            0 |            0 |            0 |            0 |            0 |            0 |            0 |            0 |            0 |            0 |            0 |            0 |            0 |            0 |            0 |            0 |            0 |            0 |            0 |
il1.miss_rate                               0.0006 |       0.0006 |       0.0006 |       0.0006 |       0.0003 |       0.0003 |       0.0003 |       0.0003 |       0.0001 |       0.0001 |       0.0001 |       0.0001 |       0.0001 |       0.0001 |       0.0001 |       0.0001 |       0.0000 |       0.0000 |       0.0000 |       0.0000 |       0.0000 |       0.0000 |       0.0000 |       0.0000 |       0.0000 |       0.0000 |       0.0000 |       0.0000 |       0.0000 |       0.0000 |       0.0000 |       0.0000 |       0.0000 |       0.0000 |       0.0000 |       0.0000 |       0.0000 |       0.0000 |       0.0000 |       0.0000 |       0.0000 |       0.0000 |       0.0000 |       0.0000 |
il1.repl_rate                               0.0004 |       0.0004 |       0.0002 |       0.0002 |       0.0002 |       0.0002 |       0.0001 |       0.0001 |       0.0001 |       0.0001 |       0.0000 |       0.0000 |       0.0000 |       0.0000 |       0.0000 |       0.0000 |       0.0000 |       0.0000 |       0.0000 |       0.0000 |       0.0000 |       0.0000 |       0.0000 |       0.0000 |       0.0000 |       0.0000 |       0.0000 |       0.0000 |       0.0000 |       0.0000 |       0.0000 |       0.0000 |       0.0000 |       0.0000 |       0.0000 |       0.0000 |       0.0000 |       0.0000 |       0.0000 |       0.0000 |       0.0000 |       0.0000 |       0.0000 |       0.0000 |
il1.wb_rate                                 0.0000 |       0.0000 |       0.0000 |       0.0000 |       0.0000 |       0.0000 |       0.0000 |       0.0000 |       0.0000 |       0.0000 |       0.0000 |       0.0000 |       0.0000 |       0.0000 |       0.0000 |       0.0000 |       0.0000 |       0.0000 |       0.0000 |       0.0000 |       0.0000 |       0.0000 |       0.0000 |       0.0000 |       0.0000 |       0.0000 |       0.0000 |       0.0000 |       0.0000 |       0.0000 |       0.0000 |       0.0000 |       0.0000 |       0.0000 |       0.0000 |       0.0000 |       0.0000 |       0.0000 |       0.0000 |       0.0000 |       0.0000 |       0.0000 |       0.0000 |       0.0000 |
il1.inv_rate                                0.0000 |       0.0000 |       0.0000 |       0.0000 |       0.0000 |       0.0000 |       0.0000 |       0.0000 |       0.0000 |       0.0000 |       0.0000 |       0.0000 |       0.0000 |       0.0000 |       0.0000 |       0.0000 |       0.0000 |       0.0000 |       0.0000 |       0.0000 |       0.0000 |       0.0000 |       0.0000 |       0.0000 |       0.0000 |       0.0000 |       0.0000 |       0.0000 |       0.0000 |       0.0000 |       0.0000 |       0.0000 |       0.0000 |       0.0000 |       0.0000 |       0.0000 |       0.0000 |       0.0000 |       0.0000 |       0.0000 |       0.0000 |       0.0000 |       0.0000 |       0.0000 |
dl1.accesses                                221932 |       221932 |       221932 |       221932 |       494149 |       494149 |       494149 |       494149 |      1025192 |      1025192 |      1025192 |      1025192 |      2258899 |      2258899 |      2258899 |      2258899 |      4676858 |      4676858 |      4676858 |      4676858 |     10200115 |     10200115 |     10200115 |     10200115 |     21052788 |     21052788 |     21052788 |     21052788 |     45510319 |     45510319 |     45510319 |     45510319 |     93640452 |     93640452 |     93640452 |     93640452 |    200912643 |    200912643 |    200912643 |    200912643 |    412308372 |    412308372 |    412308372 |    412308372 |
dl1.hits                                    210006 |       210006 |       210206 |       210206 |       466479 |       466479 |       467049 |       467049 |       969929 |       969929 |       971456 |       971456 |      2131652 |      2131652 |      2135495 |      2135495 |      4420710 |      4420710 |      4430514 |      4430514 |      9619314 |      9619314 |      9642343 |      9642343 |     19884984 |     19884984 |     19937708 |     19937708 |     42898143 |     42898143 |     43018467 |     43018467 |     88387087 |     88387087 |     88656053 |     88656053 |    189301725 |    189301725 |    189896112 |    189896112 |    388976845 |    388976845 |    390276165 |    390276165 |
dl1.misses                                   11926 |        11926 |        11726 |        11726 |        27670 |        27670 |        27100 |        27100 |        55263 |        55263 |        53736 |        53736 |       127247 |       127247 |       123404 |       123404 |       256148 |       256148 |       246344 |       246344 |       580801 |       580801 |       557772 |       557772 |      1167804 |      1167804 |      1115080 |      1115080 |      2612176 |      2612176 |      2491852 |      2491852 |      5253365 |      5253365 |      4984399 |      4984399 |     11610918 |     11610918 |     11016531 |     11016531 |     23331527 |     23331527 |     22032207 |     22032207 |
dl1.replacements                             11670 |        11670 |        11470 |        11470 |        27414 |        27414 |        26844 |        26844 |        55007 |        55007 |        53480 |        53480 |       126991 |       126991 |       123148 |       123148 |       255892 |       255892 |       246088 |       246088 |       580545 |       580545 |       557516 |       557516 |      1167548 |      1167548 |      1114824 |      1114824 |      2611920 |      2611920 |      2491596 |      2491596 |      5253109 |      5253109 |      4984143 |      4984143 |     11610662 |     11610662 |     11016275 |     11016275 |     23331271 |     23331271 |     22031951 |     22031951 |
dl1.writebacks                                6562 |         6562 |         6449 |         6449 |        14862 |        14862 |        14650 |        14650 |        29533 |        29533 |        28994 |        28994 |        67080 |        67080 |        65882 |        65882 |       134301 |       134301 |       131457 |       131457 |       301868 |       301868 |       295384 |       295384 |       605174 |       605174 |       590460 |       590460 |      1344274 |      1344274 |      1311693 |      1311693 |      2696661 |      2696661 |      2623841 |      2623841 |      5931562 |      5931562 |      5771665 |      5771665 |     11891867 |     11891867 |     11543028 |     11543028 |
dl1.invalidations                                0 |            0 |            0 |            0 |            0 |            0 |            0 |            0 |            0 |            0 |            0 |            0 |            0 |            0 |            0 |            0 |            0 |            0 |            0 |            0 |            0 |            0 |            0 |            0 |            0 |            0 |            0 |            0 |            0 |            0 |            0 |            0 |            0 |            0 |            0 |            0 |            0 |            0 |            0 |            0 |            0 |            0 |            0 |            0 |
dl1.miss_rate                               0.0537 |       0.0537 |       0.0528 |       0.0528 |       0.0560 |       0.0560 |       0.0548 |       0.0548 |       0.0539 |       0.0539 |       0.0524 |       0.0524 |       0.0563 |       0.0563 |       0.0546 |       0.0546 |       0.0548 |       0.0548 |       0.0527 |       0.0527 |       0.0569 |       0.0569 |       0.0547 |       0.0547 |       0.0555 |       0.0555 |       0.0530 |       0.0530 |       0.0574 |       0.0574 |       0.0548 |       0.0548 |       0.0561 |       0.0561 |       0.0532 |       0.0532 |       0.0578 |       0.0578 |       0.0548 |       0.0548 |       0.0566 |       0.0566 |       0.0534 |       0.0534 |
dl1.repl_rate                               0.0526 |       0.0526 |       0.0517 |       0.0517 |       0.0555 |       0.0555 |       0.0543 |       0.0543 |       0.0537 |       0.0537 |       0.0522 |       0.0522 |       0.0562 |       0.0562 |       0.0545 |       0.0545 |       0.0547 |       0.0547 |       0.0526 |       0.0526 |       0.0569 |       0.0569 |       0.0547 |       0.0547 |       0.0555 |       0.0555 |       0.0530 |       0.0530 |       0.0574 |       0.0574 |       0.0547 |       0.0547 |       0.0561 |       0.0561 |       0.0532 |       0.0532 |       0.0578 |       0.0578 |       0.0548 |       0.0548 |       0.0566 |       0.0566 |       0.0534 |       0.0534 |
dl1.wb_rate                                 0.0296 |       0.0296 |       0.0291 |       0.0291 |       0.0301 |       0.0301 |       0.0296 |       0.0296 |       0.0288 |       0.0288 |       0.0283 |       0.0283 |       0.0297 |       0.0297 |       0.0292 |       0.0292 |       0.0287 |       0.0287 |       0.0281 |       0.0281 |       0.0296 |       0.0296 |       0.0290 |       0.0290 |       0.0287 |       0.0287 |       0.0280 |       0.0280 |       0.0295 |       0.0295 |       0.0288 |       0.0288 |       0.0288 |       0.0288 |       0.0280 |       0.0280 |       0.0295 |       0.0295 |       0.0287 |       0.0287 |       0.0288 |       0.0288 |       0.0280 |       0.0280 |
dl1.inv_rate                                0.0000 |       0.0000 |       0.0000 |       0.0000 |       0.0000 |       0.0000 |       0.0000 |       0.0000 |       0.0000 |       0.0000 |       0.0000 |       0.0000 |       0.0000 |       0.0000 |       0.0000 |       0.0000 |       0.0000 |       0.0000 |       0.0000 |       0.0000 |       0.0000 |       0.0000 |       0.0000 |       0.0000 |       0.0000 |       0.0000 |       0.0000 |       0.0000 |       0.0000 |       0.0000 |       0.0000 |       0.0000 |       0.0000 |       0.0000 |       0.0000 |       0.0000 |       0.0000 |       0.0000 |       0.0000 |       0.0000 |       0.0000 |       0.0000 |       0.0000 |       0.0000 |
dl2.accesses                                 18959 |        18959 |        18593 |        18593 |        43054 |        43054 |        42209 |        42209 |        85307 |        85307 |        83161 |        83161 |       194849 |       194849 |       189746 |       189746 |       390953 |       390953 |       378240 |       378240 |       883192 |       883192 |       853616 |       853616 |      1773481 |      1773481 |      1705977 |      1705977 |      3956973 |      3956973 |      3804005 |      3804005 |      7950564 |      7950564 |      7608710 |      7608710 |     17543028 |     17543028 |     16788668 |     16788668 |     35223932 |     35223932 |     33575705 |     33575705 |
dl2.hits                                     17088 |        17088 |        16748 |        16748 |        40143 |        40143 |        39328 |        39328 |        80371 |        80371 |        78258 |        78258 |       185791 |       185791 |       180720 |       180720 |       373722 |       373722 |       361042 |       361042 |       849558 |       849558 |       820014 |       820014 |      1707099 |      1657658 |      1639628 |      1541972 |      3768381 |      1661575 |      3469673 |      1312775 |      3361711 |      2967911 |      2626337 |      2626279 |      6526660 |      6526403 |      5776147 |      5776147 |     13191993 |     13191334 |     11551598 |     11551598 |
dl2.misses                                    1871 |         1871 |         1845 |         1845 |         2911 |         2911 |         2881 |         2881 |         4936 |         4936 |         4903 |         4903 |         9058 |         9058 |         9026 |         9026 |        17231 |        17231 |        17198 |        17198 |        33634 |        33634 |        33602 |        33602 |        66382 |       115823 |        66349 |       164005 |       188592 |      2295398 |       334332 |      2491230 |      4588853 |      4982653 |      4982373 |      4982431 |     11016368 |     11016625 |     11012521 |     11012521 |     22031939 |     22032598 |     22024107 |     22024107 |
dl2.replacements                               254 |          254 |            0 |            0 |          281 |          281 |            0 |            0 |          280 |          280 |            0 |            0 |          304 |          304 |            0 |            0 |          286 |          286 |            0 |            0 |          305 |          305 |            0 |            0 |          286 |        51398 |            0 |        98469 |        58630 |      2229862 |       203260 |      2425694 |      4457781 |      4917117 |      4851301 |      4916895 |     10885296 |     10951089 |     10881449 |     10946985 |     21900867 |     21967062 |     21893035 |     21958571 |
dl2.writebacks                                 175 |          175 |            0 |            0 |          186 |          186 |            0 |            0 |          183 |          183 |            0 |            0 |          208 |          208 |            0 |            0 |          188 |          188 |            0 |            0 |          208 |          208 |            0 |            0 |          188 |        27969 |            0 |        98233 |        31873 |      1182740 |       203007 |      1278411 |      2449099 |      2580920 |      2557082 |      2589850 |      5641563 |      5707167 |      5703543 |      5736311 |     11455060 |     11498916 |     11472178 |     11504946 |
dl2.invalidations                                0 |            0 |            0 |            0 |            0 |            0 |            0 |            0 |            0 |            0 |            0 |            0 |            0 |            0 |            0 |            0 |            0 |            0 |            0 |            0 |            0 |            0 |            0 |            0 |            0 |            0 |            0 |            0 |            0 |            0 |            0 |            0 |            0 |            0 |            0 |            0 |            0 |            0 |            0 |            0 |            0 |            0 |            0 |            0 |
dl2.miss_rate                               0.0987 |       0.0987 |       0.0992 |       0.0992 |       0.0676 |       0.0676 |       0.0683 |       0.0683 |       0.0579 |       0.0579 |       0.0590 |       0.0590 |       0.0465 |       0.0465 |       0.0476 |       0.0476 |       0.0441 |       0.0441 |       0.0455 |       0.0455 |       0.0381 |       0.0381 |       0.0394 |       0.0394 |       0.0374 |       0.0653 |       0.0389 |       0.0961 |       0.0477 |       0.5801 |       0.0879 |       0.6549 |       0.5772 |       0.6267 |       0.6548 |       0.6548 |       0.6280 |       0.6280 |       0.6559 |       0.6559 |       0.6255 |       0.6255 |       0.6560 |       0.6560 |
dl2.repl_rate                               0.0134 |       0.0134 |       0.0000 |       0.0000 |       0.0065 |       0.0065 |       0.0000 |       0.0000 |       0.0033 |       0.0033 |       0.0000 |       0.0000 |       0.0016 |       0.0016 |       0.0000 |       0.0000 |       0.0007 |       0.0007 |       0.0000 |       0.0000 |       0.0003 |       0.0003 |       0.0000 |       0.0000 |       0.0002 |       0.0290 |       0.0000 |       0.0577 |       0.0148 |       0.5635 |       0.0534 |       0.6377 |       0.5607 |       0.6185 |       0.6376 |       0.6462 |       0.6205 |       0.6242 |       0.6481 |       0.6520 |       0.6218 |       0.6236 |       0.6520 |       0.6540 |
dl2.wb_rate                                 0.0092 |       0.0092 |       0.0000 |       0.0000 |       0.0043 |       0.0043 |       0.0000 |       0.0000 |       0.0021 |       0.0021 |       0.0000 |       0.0000 |       0.0011 |       0.0011 |       0.0000 |       0.0000 |       0.0005 |       0.0005 |       0.0000 |       0.0000 |       0.0002 |       0.0002 |       0.0000 |       0.0000 |       0.0001 |       0.0158 |       0.0000 |       0.0576 |       0.0081 |       0.2989 |       0.0534 |       0.3361 |       0.3080 |       0.3246 |       0.3361 |       0.3404 |       0.3216 |       0.3253 |       0.3397 |       0.3417 |       0.3252 |       0.3265 |       0.3417 |       0.3427 |
dl2.inv_rate                                0.0000 |       0.0000 |       0.0000 |       0.0000 |       0.0000 |       0.0000 |       0.0000 |       0.0000 |       0.0000 |       0.0000 |       0.0000 |       0.0000 |       0.0000 |       0.0000 |       0.0000 |       0.0000 |       0.0000 |       0.0000 |       0.0000 |       0.0000 |       0.0000 |       0.0000 |       0.0000 |       0.0000 |       0.0000 |       0.0000 |       0.0000 |       0.0000 |       0.0000 |       0.0000 |       0.0000 |       0.0000 |       0.0000 |       0.0000 |       0.0000 |       0.0000 |       0.0000 |       0.0000 |       0.0000 |       0.0000 |       0.0000 |       0.0000 |       0.0000 |       0.0000 |
itlb.accesses                               750689 |       750689 |       750689 |       750689 |      1654452 |      1654452 |      1654452 |      1654452 |      3531051 |      3531051 |      3531051 |      3531051 |      7675246 |      7675246 |      7675246 |      7675246 |     16257281 |     16257281 |     16257281 |     16257281 |     34988594 |     34988594 |     34988594 |     34988594 |     73647944 |     73647944 |     73647944 |     73647944 |    157259225 |    157259225 |    157259225 |    157259225 |    329174985 |    329174985 |    329174985 |    329174985 |    698238996 |    698238996 |    698238996 |    698238996 |   1455240968 |   1455240968 |   1455240968 |   1455240968 |
itlb.hits                                   750678 |       750678 |       750678 |       750678 |      1654441 |      1654441 |      1654441 |      1654441 |      3531041 |      3531041 |      3531041 |      3531041 |      7675236 |      7675236 |      7675236 |      7675236 |     16257271 |     16257271 |     16257271 |     16257271 |     34988584 |     34988584 |     34988584 |     34988584 |     73647934 |     73647934 |     73647934 |     73647934 |    157259215 |    157259215 |    157259215 |    157259215 |    329174975 |    329174975 |    329174975 |    329174975 |    698238986 |    698238986 |    698238986 |    698238986 |   1455240958 |   1455240958 |   1455240958 |   1455240958 |
itlb.misses                                     11 |           11 |           11 |           11 |           11 |           11 |           11 |           11 |           10 |           10 |           10 |           10 |           10 |           10 |           10 |           10 |           10 |           10 |           10 |           10 |           10 |           10 |           10 |           10 |           10 |           10 |           10 |           10 |           10 |           10 |           10 |           10 |           10 |           10 |           10 |           10 |           10 |           10 |           10 |           10 |           10 |           10 |           10 |           10 |
itlb.replacements                                0 |            0 |            0 |            0 |            0 |            0 |            0 |            0 |            0 |            0 |            0 |            0 |            0 |            0 |            0 |            0 |            0 |            0 |            0 |            0 |            0 |            0 |            0 |            0 |            0 |            0 |            0 |            0 |            0 |            0 |            0 |            0 |            0 |            0 |            0 |            0 |            0 |            0 |            0 |            0 |            0 |            0 |            0 |            0 |
itlb.writebacks                                  0 |            0 |            0 |            0 |            0 |            0 |            0 |            0 |            0 |            0 |            0 |            0 |            0 |            0 |            0 |            0 |            0 |            0 |            0 |            0 |            0 |            0 |            0 |            0 |            0 |            0 |            0 |            0 |            0 |            0 |            0 |            0 |            0 |            0 |            0 |            0 |            0 |            0 |            0 |            0 |            0 |            0 |            0 |            0 |
itlb.invalidations                               0 |            0 |            0 |            0 |            0 |            0 |            0 |            0 |            0 |            0 |            0 |            0 |            0 |            0 |            0 |            0 |            0 |            0 |            0 |            0 |            0 |            0 |            0 |            0 |            0 |            0 |            0 |            0 |            0 |            0 |            0 |            0 |            0 |            0 |            0 |            0 |            0 |            0 |            0 |            0 |            0 |            0 |            0 |            0 |
itlb.miss_rate                              0.0000 |       0.0000 |       0.0000 |       0.0000 |       0.0000 |       0.0000 |       0.0000 |       0.0000 |       0.0000 |       0.0000 |       0.0000 |       0.0000 |       0.0000 |       0.0000 |       0.0000 |       0.0000 |       0.0000 |       0.0000 |       0.0000 |       0.0000 |       0.0000 |       0.0000 |       0.0000 |       0.0000 |       0.0000 |       0.0000 |       0.0000 |       0.0000 |       0.0000 |       0.0000 |       0.0000 |       0.0000 |       0.0000 |       0.0000 |       0.0000 |       0.0000 |       0.0000 |       0.0000 |       0.0000 |       0.0000 |       0.0000 |       0.0000 |       0.0000 |       0.0000 |
itlb.repl_rate                              0.0000 |       0.0000 |       0.0000 |       0.0000 |       0.0000 |       0.0000 |       0.0000 |       0.0000 |       0.0000 |       0.0000 |       0.0000 |       0.0000 |       0.0000 |       0.0000 |       0.0000 |       0.0000 |       0.0000 |       0.0000 |       0.0000 |       0.0000 |       0.0000 |       0.0000 |       0.0000 |       0.0000 |       0.0000 |       0.0000 |       0.0000 |       0.0000 |       0.0000 |       0.0000 |       0.0000 |       0.0000 |       0.0000 |       0.0000 |       0.0000 |       0.0000 |       0.0000 |       0.0000 |       0.0000 |       0.0000 |       0.0000 |       0.0000 |       0.0000 |       0.0000 |
itlb.wb_rate                                0.0000 |       0.0000 |       0.0000 |       0.0000 |       0.0000 |       0.0000 |       0.0000 |       0.0000 |       0.0000 |       0.0000 |       0.0000 |       0.0000 |       0.0000 |       0.0000 |       0.0000 |       0.0000 |       0.0000 |       0.0000 |       0.0000 |       0.0000 |       0.0000 |       0.0000 |       0.0000 |       0.0000 |       0.0000 |       0.0000 |       0.0000 |       0.0000 |       0.0000 |       0.0000 |       0.0000 |       0.0000 |       0.0000 |       0.0000 |       0.0000 |       0.0000 |       0.0000 |       0.0000 |       0.0000 |       0.0000 |       0.0000 |       0.0000 |       0.0000 |       0.0000 |
itlb.inv_rate                               0.0000 |       0.0000 |       0.0000 |       0.0000 |       0.0000 |       0.0000 |       0.0000 |       0.0000 |       0.0000 |       0.0000 |       0.0000 |       0.0000 |       0.0000 |       0.0000 |       0.0000 |       0.0000 |       0.0000 |       0.0000 |       0.0000 |       0.0000 |       0.0000 |       0.0000 |       0.0000 |       0.0000 |       0.0000 |       0.0000 |       0.0000 |       0.0000 |       0.0000 |       0.0000 |       0.0000 |       0.0000 |       0.0000 |       0.0000 |       0.0000 |       0.0000 |       0.0000 |       0.0000 |       0.0000 |       0.0000 |       0.0000 |       0.0000 |       0.0000 |       0.0000 |
dtlb.accesses                               221932 |       221932 |       221932 |       221932 |       494149 |       494149 |       494149 |       494149 |      1025192 |      1025192 |      1025192 |      1025192 |      2258899 |      2258899 |      2258899 |      2258899 |      4676858 |      4676858 |      4676858 |      4676858 |     10200115 |     10200115 |     10200115 |     10200115 |     21052788 |     21052788 |     21052788 |     21052788 |     45510319 |     45510319 |     45510319 |     45510319 |     93640452 |     93640452 |     93640452 |     93640452 |    200912643 |    200912643 |    200912643 |    200912643 |    412308372 |    412308372 |    412308372 |    412308372 |
dtlb.hits                                   221917 |       221917 |       221917 |       221917 |       494126 |       494126 |       494126 |       494126 |      1025153 |      1025153 |      1025153 |      1025153 |      2258828 |      2258828 |      2258828 |      2258828 |      4676658 |      4676658 |      4676658 |      4676658 |     10195874 |     10195874 |     10195874 |     10195874 |     21044050 |     21044050 |     21044050 |     21044050 |     45490818 |     45490818 |     45490818 |     45490818 |     93601475 |     93601475 |     93601475 |     93601475 |    200826522 |    200826522 |    200826522 |    200826522 |    412136161 |    412136161 |    412136161 |    412136161 |
dtlb.misses                                     15 |           15 |           15 |           15 |           23 |           23 |           23 |           23 |           39 |           39 |           39 |           39 |           71 |           71 |           71 |           71 |          200 |          200 |          200 |          200 |         4241 |         4241 |         4241 |         4241 |         8738 |         8738 |         8738 |         8738 |        19501 |        19501 |        19501 |        19501 |        38977 |        38977 |        38977 |        38977 |        86121 |        86121 |        86121 |        86121 |       172211 |       172211 |       172211 |       172211 |
dtlb.replacements                                0 |            0 |            0 |            0 |            0 |            0 |            0 |            0 |            0 |            0 |            0 |            0 |            0 |            0 |            0 |            0 |           72 |           72 |           72 |           72 |         4113 |         4113 |         4113 |         4113 |         8610 |         8610 |         8610 |         8610 |        19373 |        19373 |        19373 |        19373 |        38849 |        38849 |        38849 |        38849 |        85993 |        85993 |        85993 |        85993 |       172083 |       172083 |       172083 |       172083 |
dtlb.writebacks                                  0 |            0 |            0 |            0 |            0 |            0 |            0 |            0 |            0 |            0 |            0 |            0 |            0 |            0 |            0 |            0 |           42 |           42 |           42 |           42 |         2152 |         2152 |         2152 |         2152 |         4564 |         4564 |         4564 |         4564 |        10205 |        10205 |        10205 |        10205 |        20458 |        20458 |        20458 |        20458 |        45063 |        45063 |        45063 |        45063 |        90172 |        90172 |        90172 |        90172 |
dtlb.invalidations                               0 |            0 |            0 |            0 |            0 |            0 |            0 |            0 |            0 |            0 |            0 |            0 |            0 |            0 |            0 |            0 |            0 |            0 |            0 |            0 |            0 |            0 |            0 |            0 |            0 |            0 |            0 |            0 |            0 |            0 |            0 |            0 |            0 |            0 |            0 |            0 |            0 |            0 |            0 |            0 |            0 |            0 |            0 |            0 |
dtlb.miss_rate                              0.0001 |       0.0001 |       0.0001 |       0.0001 |       0.0000 |       0.0000 |       0.0000 |       0.0000 |       0.0000 |       0.0000 |       0.0000 |       0.0000 |       0.0000 |       0.0000 |       0.0000 |       0.0000 |       0.0000 |       0.0000 |       0.0000 |       0.0000 |       0.0004 |       0.0004 |       0.0004 |       0.0004 |       0.0004 |       0.0004 |       0.0004 |       0.0004 |       0.0004 |       0.0004 |       0.0004 |       0.0004 |       0.0004 |       0.0004 |       0.0004 |       0.0004 |       0.0004 |       0.0004 |       0.0004 |       0.0004 |       0.0004 |       0.0004 |       0.0004 |       0.0004 |
dtlb.repl_rate                              0.0000 |       0.0000 |       0.0000 |       0.0000 |       0.0000 |       0.0000 |       0.0000 |       0.0000 |       0.0000 |       0.0000 |       0.0000 |       0.0000 |       0.0000 |       0.0000 |       0.0000 |       0.0000 |       0.0000 |       0.0000 |       0.0000 |       0.0000 |       0.0004 |       0.0004 |       0.0004 |       0.0004 |       0.0004 |       0.0004 |       0.0004 |       0.0004 |       0.0004 |       0.0004 |       0.0004 |       0.0004 |       0.0004 |       0.0004 |       0.0004 |       0.0004 |       0.0004 |       0.0004 |       0.0004 |       0.0004 |       0.0004 |       0.0004 |       0.0004 |       0.0004 |
dtlb.wb_rate                                0.0000 |       0.0000 |       0.0000 |       0.0000 |       0.0000 |       0.0000 |       0.0000 |       0.0000 |       0.0000 |       0.0000 |       0.0000 |       0.0000 |       0.0000 |       0.0000 |       0.0000 |       0.0000 |       0.0000 |       0.0000 |       0.0000 |       0.0000 |       0.0002 |       0.0002 |       0.0002 |       0.0002 |       0.0002 |       0.0002 |       0.0002 |       0.0002 |       0.0002 |       0.0002 |       0.0002 |       0.0002 |       0.0002 |       0.0002 |       0.0002 |       0.0002 |       0.0002 |       0.0002 |       0.0002 |       0.0002 |       0.0002 |       0.0002 |       0.0002 |       0.0002 |
dtlb.inv_rate                               0.0000 |       0.0000 |       0.0000 |       0.0000 |       0.0000 |       0.0000 |       0.0000 |       0.0000 |       0.0000 |       0.0000 |       0.0000 |       0.0000 |       0.0000 |       0.0000 |       0.0000 |       0.0000 |       0.0000 |       0.0000 |       0.0000 |       0.0000 |       0.0000 |       0.0000 |       0.0000 |       0.0000 |       0.0000 |       0.0000 |       0.0000 |       0.0000 |       0.0000 |       0.0000 |       0.0000 |       0.0000 |       0.0000 |       0.0000 |       0.0000 |       0.0000 |       0.0000 |       0.0000 |       0.0000 |       0.0000 |       0.0000 |       0.0000 |       0.0000 |       0.0000 |
ld_text_base                            0x00400000 |   0x00400000 |   0x00400000 |   0x00400000 |   0x00400000 |   0x00400000 |   0x00400000 |   0x00400000 |   0x00400000 |   0x00400000 |   0x00400000 |   0x00400000 |   0x00400000 |   0x00400000 |   0x00400000 |   0x00400000 |   0x00400000 |   0x00400000 |   0x00400000 |   0x00400000 |   0x00400000 |   0x00400000 |   0x00400000 |   0x00400000 |   0x00400000 |   0x00400000 |   0x00400000 |   0x00400000 |   0x00400000 |   0x00400000 |   0x00400000 |   0x00400000 |   0x00400000 |   0x00400000 |   0x00400000 |   0x00400000 |   0x00400000 |   0x00400000 |   0x00400000 |   0x00400000 |   0x00400000 |   0x00400000 |   0x00400000 |   0x00400000 |
ld_text_size                                 74928 |        74928 |        74928 |        74928 |        74960 |        74960 |        74960 |        74960 |        74976 |        74976 |        74976 |        74976 |        74992 |        74992 |        74992 |        74992 |        74992 |        74992 |        74992 |        74992 |        74992 |        74992 |        74992 |        74992 |        74992 |        74992 |        74992 |        74992 |        74992 |        74992 |        74992 |        74992 |        74992 |        74992 |        74992 |        74992 |        74992 |        74992 |        74992 |        74992 |        74992 |        74992 |        74992 |        74992 |
ld_data_base                            0x10000000 |   0x10000000 |   0x10000000 |   0x10000000 |   0x10000000 |   0x10000000 |   0x10000000 |   0x10000000 |   0x10000000 |   0x10000000 |   0x10000000 |   0x10000000 |   0x10000000 |   0x10000000 |   0x10000000 |   0x10000000 |   0x10000000 |   0x10000000 |   0x10000000 |   0x10000000 |   0x10000000 |   0x10000000 |   0x10000000 |   0x10000000 |   0x10000000 |   0x10000000 |   0x10000000 |   0x10000000 |   0x10000000 |   0x10000000 |   0x10000000 |   0x10000000 |   0x10000000 |   0x10000000 |   0x10000000 |   0x10000000 |   0x10000000 |   0x10000000 |   0x10000000 |   0x10000000 |   0x10000000 |   0x10000000 |   0x10000000 |   0x10000000 |
ld_data_size                                  8192 |         8192 |         8192 |         8192 |         8192 |         8192 |         8192 |         8192 |         8192 |         8192 |         8192 |         8192 |         8192 |         8192 |         8192 |         8192 |         8192 |         8192 |         8192 |         8192 |         8192 |         8192 |         8192 |         8192 |         8192 |         8192 |         8192 |         8192 |         8192 |         8192 |         8192 |         8192 |         8192 |         8192 |         8192 |         8192 |         8192 |         8192 |         8192 |         8192 |         8192 |         8192 |         8192 |         8192 |
ld_stack_base                           0x7fffc000 |   0x7fffc000 |   0x7fffc000 |   0x7fffc000 |   0x7fffc000 |   0x7fffc000 |   0x7fffc000 |   0x7fffc000 |   0x7fffc000 |   0x7fffc000 |   0x7fffc000 |   0x7fffc000 |   0x7fffc000 |   0x7fffc000 |   0x7fffc000 |   0x7fffc000 |   0x7fffc000 |   0x7fffc000 |   0x7fffc000 |   0x7fffc000 |   0x7fffc000 |   0x7fffc000 |   0x7fffc000 |   0x7fffc000 |   0x7fffc000 |   0x7fffc000 |   0x7fffc000 |   0x7fffc000 |   0x7fffc000 |   0x7fffc000 |   0x7fffc000 |   0x7fffc000 |   0x7fffc000 |   0x7fffc000 |   0x7fffc000 |   0x7fffc000 |   0x7fffc000 |   0x7fffc000 |   0x7fffc000 |   0x7fffc000 |   0x7fffc000 |   0x7fffc000 |   0x7fffc000 |   0x7fffc000 |
ld_stack_size                                16384 |        16384 |        16384 |        16384 |        16384 |        16384 |        16384 |        16384 |        16384 |        16384 |        16384 |        16384 |        16384 |        16384 |        16384 |        16384 |        16384 |        16384 |        16384 |        16384 |        16384 |        16384 |        16384 |        16384 |        16384 |        16384 |        16384 |        16384 |        16384 |        16384 |        16384 |        16384 |        16384 |        16384 |        16384 |        16384 |        16384 |        16384 |        16384 |        16384 |        16384 |        16384 |        16384 |        16384 |
ld_prog_entry                           0x00400140 |   0x00400140 |   0x00400140 |   0x00400140 |   0x00400140 |   0x00400140 |   0x00400140 |   0x00400140 |   0x00400140 |   0x00400140 |   0x00400140 |   0x00400140 |   0x00400140 |   0x00400140 |   0x00400140 |   0x00400140 |   0x00400140 |   0x00400140 |   0x00400140 |   0x00400140 |   0x00400140 |   0x00400140 |   0x00400140 |   0x00400140 |   0x00400140 |   0x00400140 |   0x00400140 |   0x00400140 |   0x00400140 |   0x00400140 |   0x00400140 |   0x00400140 |   0x00400140 |   0x00400140 |   0x00400140 |   0x00400140 |   0x00400140 |   0x00400140 |   0x00400140 |   0x00400140 |   0x00400140 |   0x00400140 |   0x00400140 |   0x00400140 |
ld_environ_base                         0x7fff8000 |   0x7fff8000 |   0x7fff8000 |   0x7fff8000 |   0x7fff8000 |   0x7fff8000 |   0x7fff8000 |   0x7fff8000 |   0x7fff8000 |   0x7fff8000 |   0x7fff8000 |   0x7fff8000 |   0x7fff8000 |   0x7fff8000 |   0x7fff8000 |   0x7fff8000 |   0x7fff8000 |   0x7fff8000 |   0x7fff8000 |   0x7fff8000 |   0x7fff8000 |   0x7fff8000 |   0x7fff8000 |   0x7fff8000 |   0x7fff8000 |   0x7fff8000 |   0x7fff8000 |   0x7fff8000 |   0x7fff8000 |   0x7fff8000 |   0x7fff8000 |   0x7fff8000 |   0x7fff8000 |   0x7fff8000 |   0x7fff8000 |   0x7fff8000 |   0x7fff8000 |   0x7fff8000 |   0x7fff8000 |   0x7fff8000 |   0x7fff8000 |   0x7fff8000 |   0x7fff8000 |   0x7fff8000 |
ld_target_big_endian                             0 |            0 |            0 |            0 |            0 |            0 |            0 |            0 |            0 |            0 |            0 |            0 |            0 |            0 |            0 |            0 |            0 |            0 |            0 |            0 |            0 |            0 |            0 |            0 |            0 |            0 |            0 |            0 |            0 |            0 |            0 |            0 |            0 |            0 |            0 |            0 |            0 |            0 |            0 |            0 |            0 |            0 |            0 |            0 |
mem.page_count                                  34 |           34 |           34 |           34 |           42 |           42 |           42 |           42 |           58 |           58 |           58 |           58 |           90 |           90 |           90 |           90 |          154 |          154 |          154 |          154 |          282 |          282 |          282 |          282 |          538 |          538 |          538 |          538 |         1050 |         1050 |         1050 |         1050 |         2080 |         2080 |         2080 |         2080 |         4134 |         4134 |         4134 |         4134 |         8242 |         8242 |         8242 |         8242 |
mem.page_mem                                  136k |         136k |         136k |         136k |         168k |         168k |         168k |         168k |         232k |         232k |         232k |         232k |         360k |         360k |         360k |         360k |         616k |         616k |         616k |         616k |        1128k |        1128k |        1128k |        1128k |        2152k |        2152k |        2152k |        2152k |        4200k |        4200k |        4200k |        4200k |        8320k |        8320k |        8320k |        8320k |       16536k |       16536k |       16536k |       16536k |       32968k |       32968k |       32968k |       32968k |
mem.ptab_misses                                 34 |           34 |           34 |           34 |           42 |           42 |           42 |           42 |           58 |           58 |           58 |           58 |           90 |           90 |           90 |           90 |          154 |          154 |          154 |          154 |          282 |          282 |          282 |          282 |          538 |          538 |          538 |          538 |         1050 |         1050 |         1050 |         1050 |       105323 |       105323 |       105323 |       105323 |       112007 |       112007 |       112007 |       112007 |       123567 |       123567 |       123567 |       123567 |
mem.ptab_accesses                          3910768 |      3910768 |      3910768 |      3910768 |      8070446 |      8070446 |      8070446 |      8070446 |     16639024 |     16639024 |     16639024 |     16639024 |     35683314 |     35683314 |     35683314 |     35683314 |     74847372 |     74847372 |     74847372 |     74847372 |    160819138 |    160819138 |    160819138 |    160819138 |    337161884 |    337161884 |    337161884 |    337161884 |    720522070 |    720522070 |    720522070 |    720522070 |   1504445376 |   1504445376 |   1504445376 |   1504445376 |   3195245802 |   3195245802 |   3195245802 |   3195245802 |   6646045148 |   6646045148 |   6646045148 |   6646045148 |
mem.ptab_miss_rate                          0.0000 |       0.0000 |       0.0000 |       0.0000 |       0.0000 |       0.0000 |       0.0000 |       0.0000 |       0.0000 |       0.0000 |       0.0000 |       0.0000 |       0.0000 |       0.0000 |       0.0000 |       0.0000 |       0.0000 |       0.0000 |       0.0000 |       0.0000 |       0.0000 |       0.0000 |       0.0000 |       0.0000 |       0.0000 |       0.0000 |       0.0000 |       0.0000 |       0.0000 |       0.0000 |       0.0000 |       0.0000 |       0.0001 |       0.0001 |       0.0001 |       0.0001 |       0.0000 |       0.0000 |       0.0000 |       0.0000 |       0.0000 |       0.0000 |       0.0000 |       0.0000 |
-------------------------------------------------------------------------------------------------
sim-bpred                                     4096 |         4096 |         4096 |         4096 |         4096 |         4096 |         4096 |         8192 |         8192 |         8192 |         8192 |         8192 |         8192 |         8192 |        16384 |        16384 |        16384 |        16384 |        16384 |        16384 |        16384 |        32768 |        32768 |        32768 |        32768 |        32768 |        32768 |        32768 |        65536 |        65536 |        65536 |        65536 |        65536 |        65536 |        65536 |       131072 |       131072 |       131072 |       131072 |       131072 |       131072 |       131072 |       262144 |       262144 |       262144 |       262144 |       262144 |       262144 |       262144 |       524288 |       524288 |       524288 |       524288 |       524288 |       524288 |       524288 |      1048576 |      1048576 |      1048576 |      1048576 |      1048576 |      1048576 |      1048576 |      2097152 |      2097152 |      2097152 |      2097152 |      2097152 |      2097152 |      2097152 |      4194304 |      4194304 |      4194304 |      4194304 |      4194304 |      4194304 |      4194304 |
-bpred bimod -bpred:bimod 512
-bpred bimod -bpred:bimod 1024
-bpred bimod -bpred:bimod 2048
-bpred 2lev -bpred:2lev 1 512 10 1
-bpred 2lev -bpred:2lev 1 1024 10 1
-bpred 2lev -bpred:2lev 1 2048 10 1
-bpred 2lev -bpred:2lev 1 4096 10 1
-------------------------------------------------------------------------------------------------
sim_num_insn                                750689 |       750689 |       750689 |       750689 |       750689 |       750689 |       750689 |      1654452 |      1654452 |      1654452 |      1654452 |      1654452 |      1654452 |      1654452 |      3531051 |      3531051 |      3531051 |      3531051 |      3531051 |      3531051 |      3531051 |      7675246 |      7675246 |      7675246 |      7675246 |      7675246 |      7675246 |      7675246 |     16257281 |     16257281 |     16257281 |     16257281 |     16257281 |     16257281 |     16257281 |     34988594 |     34988594 |     34988594 |     34988594 |     34988594 |     34988594 |     34988594 |     73647944 |     73647944 |     73647944 |     73647944 |     73647944 |     73647944 |     73647944 |    157259225 |    157259225 |    157259225 |    157259225 |    157259225 |    157259225 |    157259225 |    329174985 |    329174985 |    329174985 |    329174985 |    329174985 |    329174985 |    329174985 |    698238996 |    698238996 |    698238996 |    698238996 |    698238996 |    698238996 |    698238996 |   1455240968 |   1455240968 |   1455240968 |   1455240968 |   1455240968 |   1455240968 |   1455240968 |
sim_num_refs                                205466 |       205466 |       205466 |       205466 |       205466 |       205466 |       205466 |       461299 |       461299 |       461299 |       461299 |       461299 |       461299 |       461299 |       959574 |       959574 |       959574 |       959574 |       959574 |       959574 |       959574 |      2127745 |      2127745 |      2127745 |      2127745 |      2127745 |      2127745 |      2127745 |      4414632 |      4414632 |      4414632 |      4414632 |      4414632 |      4414632 |      4414632 |      9675745 |      9675745 |      9675745 |      9675745 |      9675745 |      9675745 |      9675745 |     20004130 |     20004130 |     20004130 |     20004130 |     20004130 |     20004130 |     20004130 |     43413085 |     43413085 |     43413085 |     43413085 |     43413085 |     43413085 |     43413085 |     89446066 |     89446066 |     89446066 |     89446066 |     89446066 |     89446066 |     89446066 |    192523953 |    192523953 |    192523953 |    192523953 |    192523953 |    192523953 |    192523953 |    395531074 |    395531074 |    395531074 |    395531074 |    395531074 |    395531074 |    395531074 |
sim_elapsed_time                                 1 |            1 |            1 |            1 |            1 |            1 |            1 |            1 |            1 |            1 |            1 |            1 |            1 |            1 |            1 |            1 |            1 |            1 |            1 |            1 |            1 |            1 |            1 |            1 |            1 |            2 |            1 |            1 |            2 |            2 |            2 |            1 |            3 |            2 |            1 |            4 |            5 |            3 |            4 |            5 |            4 |            4 |            8 |            9 |            8 |            8 |           11 |            8 |            8 |           16 |           20 |           16 |           17 |           24 |           17 |           17 |           34 |           41 |           35 |           35 |           50 |           36 |           34 |           73 |           87 |           73 |           75 |          106 |           75 |           74 |          152 |          181 |          154 |          154 |          221 |          157 |          154 |
sim_inst_rate                          750689.0000 |  750689.0000 |  750689.0000 |  750689.0000 |  750689.0000 |  750689.0000 |  750689.0000 | 1654452.0000 | 1654452.0000 | 1654452.0000 | 1654452.0000 | 1654452.0000 | 1654452.0000 | 1654452.0000 | 3531051.0000 | 3531051.0000 | 3531051.0000 | 3531051.0000 | 3531051.0000 | 3531051.0000 | 3531051.0000 | 7675246.0000 | 7675246.0000 | 7675246.0000 | 7675246.0000 | 3837623.0000 | 7675246.0000 | 7675246.0000 | 8128640.5000 | 8128640.5000 | 8128640.5000 |16257281.0000 | 5419093.6667 | 8128640.5000 |16257281.0000 | 8747148.5000 | 6997718.8000 |11662864.6667 | 8747148.5000 | 6997718.8000 | 8747148.5000 | 8747148.5000 | 9205993.0000 | 8183104.8889 | 9205993.0000 | 9205993.0000 | 6695267.6364 | 9205993.0000 | 9205993.0000 | 9828701.5625 | 7862961.2500 | 9828701.5625 | 9250542.6471 | 6552467.7083 | 9250542.6471 | 9250542.6471 | 9681617.2059 | 8028658.1707 | 9404999.5714 | 9404999.5714 | 6583499.7000 | 9143749.5833 | 9681617.2059 | 9564917.7534 | 8025735.5862 | 9564917.7534 | 9309853.2800 | 6587160.3396 | 9309853.2800 | 9435662.1081 | 9573953.7368 | 8040005.3481 | 9449616.6753 | 9449616.6753 | 6584800.7602 | 9269050.7516 | 9449616.6753 |
sim_num_branches                             94382 |        94382 |        94382 |        94382 |        94382 |        94382 |        94382 |       205957 |       205957 |       205957 |       205957 |       205957 |       205957 |       205957 |       441767 |       441767 |       441767 |       441767 |       441767 |       441767 |       441767 |       952019 |       952019 |       952019 |       952019 |       952019 |       952019 |       952019 |      2025720 |      2025720 |      2025720 |      2025720 |      2025720 |      2025720 |      2025720 |      4328209 |      4328209 |      4328209 |      4328209 |      4328209 |      4328209 |      4328209 |      9149108 |      9149108 |      9149108 |      9149108 |      9149108 |      9149108 |      9149108 |     19414191 |     19414191 |     19414191 |     19414191 |     19414191 |     19414191 |     19414191 |     40794326 |     40794326 |     40794326 |     40794326 |     40794326 |     40794326 |     40794326 |     86057889 |     86057889 |     86057889 |     86057889 |     86057889 |     86057889 |     86057889 |    179999658 |    179999658 |    179999658 |    179999658 |    179999658 |    179999658 |    179999658 |
sim_IPB                                     7.9537 |       7.9537 |       7.9537 |       7.9537 |       7.9537 |       7.9537 |       7.9537 |       8.0330 |       8.0330 |       8.0330 |       8.0330 |       8.0330 |       8.0330 |       8.0330 |       7.9930 |       7.9930 |       7.9930 |       7.9930 |       7.9930 |       7.9930 |       7.9930 |       8.0621 |       8.0621 |       8.0621 |       8.0621 |       8.0621 |       8.0621 |       8.0621 |       8.0254 |       8.0254 |       8.0254 |       8.0254 |       8.0254 |       8.0254 |       8.0254 |       8.0839 |       8.0839 |       8.0839 |       8.0839 |       8.0839 |       8.0839 |       8.0839 |       8.0497 |       8.0497 |       8.0497 |       8.0497 |       8.0497 |       8.0497 |       8.0497 |       8.1002 |       8.1002 |       8.1002 |       8.1002 |       8.1002 |       8.1002 |       8.1002 |       8.0691 |       8.0691 |       8.0691 |       8.0691 |       8.0691 |       8.0691 |       8.0691 |       8.1136 |       8.1136 |       8.1136 |       8.1136 |       8.1136 |       8.1136 |       8.1136 |       8.0847 |       8.0847 |       8.0847 |       8.0847 |       8.0847 |       8.0847 |       8.0847 |
bpred_bimod.lookups                          94382 |        94382 |        94382 |xxxxxxxxxxxxx |xxxxxxxxxxxxx |xxxxxxxxxxxxx |xxxxxxxxxxxxx |       205957 |       205957 |       205957 |xxxxxxxxxxxxx |xxxxxxxxxxxxx |xxxxxxxxxxxxx |xxxxxxxxxxxxx |       441767 |       441767 |       441767 |xxxxxxxxxxxxx |xxxxxxxxxxxxx |xxxxxxxxxxxxx |xxxxxxxxxxxxx |       952019 |       952019 |       952019 |xxxxxxxxxxxxx |xxxxxxxxxxxxx |xxxxxxxxxxxxx |xxxxxxxxxxxxx |      2025720 |      2025720 |      2025720 |xxxxxxxxxxxxx |xxxxxxxxxxxxx |xxxxxxxxxxxxx |xxxxxxxxxxxxx |      4328209 |      4328209 |      4328209 |xxxxxxxxxxxxx |xxxxxxxxxxxxx |xxxxxxxxxxxxx |xxxxxxxxxxxxx |      9149108 |      9149108 |      9149108 |xxxxxxxxxxxxx |xxxxxxxxxxxxx |xxxxxxxxxxxxx |xxxxxxxxxxxxx |     19414191 |     19414191 |     19414191 |xxxxxxxxxxxxx |xxxxxxxxxxxxx |xxxxxxxxxxxxx |xxxxxxxxxxxxx |     40794326 |     40794326 |     40794326 |xxxxxxxxxxxxx |xxxxxxxxxxxxx |xxxxxxxxxxxxx |xxxxxxxxxxxxx |     86057889 |     86057889 |     86057889 |xxxxxxxxxxxxx |xxxxxxxxxxxxx |xxxxxxxxxxxxx |xxxxxxxxxxxxx |    179999658 |    179999658 |    179999658 |
bpred_bimod.updates                          94382 |        94382 |        94382 |xxxxxxxxxxxxx |xxxxxxxxxxxxx |xxxxxxxxxxxxx |xxxxxxxxxxxxx |       205957 |       205957 |       205957 |xxxxxxxxxxxxx |xxxxxxxxxxxxx |xxxxxxxxxxxxx |xxxxxxxxxxxxx |       441767 |       441767 |       441767 |xxxxxxxxxxxxx |xxxxxxxxxxxxx |xxxxxxxxxxxxx |xxxxxxxxxxxxx |       952019 |       952019 |       952019 |xxxxxxxxxxxxx |xxxxxxxxxxxxx |xxxxxxxxxxxxx |xxxxxxxxxxxxx |      2025720 |      2025720 |      2025720 |xxxxxxxxxxxxx |xxxxxxxxxxxxx |xxxxxxxxxxxxx |xxxxxxxxxxxxx |      4328209 |      4328209 |      4328209 |xxxxxxxxxxxxx |xxxxxxxxxxxxx |xxxxxxxxxxxxx |xxxxxxxxxxxxx |      9149108 |      9149108 |      9149108 |xxxxxxxxxxxxx |xxxxxxxxxxxxx |xxxxxxxxxxxxx |xxxxxxxxxxxxx |     19414191 |     19414191 |     19414191 |xxxxxxxxxxxxx |xxxxxxxxxxxxx |xxxxxxxxxxxxx |xxxxxxxxxxxxx |     40794326 |     40794326 |     40794326 |xxxxxxxxxxxxx |xxxxxxxxxxxxx |xxxxxxxxxxxxx |xxxxxxxxxxxxx |     86057889 |     86057889 |     86057889 |xxxxxxxxxxxxx |xxxxxxxxxxxxx |xxxxxxxxxxxxx |xxxxxxxxxxxxx |    179999658 |    179999658 |    179999658 |
bpred_bimod.addr_hits                        69232 |        69235 |        69239 |xxxxxxxxxxxxx |xxxxxxxxxxxxx |xxxxxxxxxxxxx |xxxxxxxxxxxxx |       151601 |       151605 |       151610 |xxxxxxxxxxxxx |xxxxxxxxxxxxx |xxxxxxxxxxxxx |xxxxxxxxxxxxx |       324956 |       324960 |       324966 |xxxxxxxxxxxxx |xxxxxxxxxxxxx |xxxxxxxxxxxxx |xxxxxxxxxxxxx |       701776 |       701779 |       701784 |xxxxxxxxxxxxx |xxxxxxxxxxxxx |xxxxxxxxxxxxx |xxxxxxxxxxxxx |      1493115 |      1493117 |      1493123 |xxxxxxxxxxxxx |xxxxxxxxxxxxx |xxxxxxxxxxxxx |xxxxxxxxxxxxx |      3198680 |      3198683 |      3198689 |xxxxxxxxxxxxx |xxxxxxxxxxxxx |xxxxxxxxxxxxx |xxxxxxxxxxxxx |      6758498 |      6758500 |      6758506 |xxxxxxxxxxxxx |xxxxxxxxxxxxx |xxxxxxxxxxxxx |xxxxxxxxxxxxx |     14368695 |     14368698 |     14368703 |xxxxxxxxxxxxx |xxxxxxxxxxxxx |xxxxxxxxxxxxx |xxxxxxxxxxxxx |     30179599 |     30179602 |     30179607 |xxxxxxxxxxxxx |xxxxxxxxxxxxx |xxxxxxxxxxxxx |xxxxxxxxxxxxx |     63776761 |     63776764 |     63776768 |xxxxxxxxxxxxx |xxxxxxxxxxxxx |xxxxxxxxxxxxx |xxxxxxxxxxxxx |    133337729 |    133337732 |    133337737 |
bpred_bimod.dir_hits                         69344 |        69347 |        69350 |xxxxxxxxxxxxx |xxxxxxxxxxxxx |xxxxxxxxxxxxx |xxxxxxxxxxxxx |       151723 |       151726 |       151732 |xxxxxxxxxxxxx |xxxxxxxxxxxxx |xxxxxxxxxxxxx |xxxxxxxxxxxxx |       325074 |       325075 |       325081 |xxxxxxxxxxxxx |xxxxxxxxxxxxx |xxxxxxxxxxxxx |xxxxxxxxxxxxx |       701900 |       701901 |       701905 |xxxxxxxxxxxxx |xxxxxxxxxxxxx |xxxxxxxxxxxxx |xxxxxxxxxxxxx |      1493234 |      1493234 |      1493239 |xxxxxxxxxxxxx |xxxxxxxxxxxxx |xxxxxxxxxxxxx |xxxxxxxxxxxxx |      3198806 |      3198807 |      3198812 |xxxxxxxxxxxxx |xxxxxxxxxxxxx |xxxxxxxxxxxxx |xxxxxxxxxxxxx |      6758618 |      6758618 |      6758623 |xxxxxxxxxxxxx |xxxxxxxxxxxxx |xxxxxxxxxxxxx |xxxxxxxxxxxxx |     14368821 |     14368822 |     14368826 |xxxxxxxxxxxxx |xxxxxxxxxxxxx |xxxxxxxxxxxxx |xxxxxxxxxxxxx |     30179730 |     30179731 |     30179735 |xxxxxxxxxxxxx |xxxxxxxxxxxxx |xxxxxxxxxxxxx |xxxxxxxxxxxxx |     63776893 |     63776894 |     63776897 |xxxxxxxxxxxxx |xxxxxxxxxxxxx |xxxxxxxxxxxxx |xxxxxxxxxxxxx |    133337860 |    133337861 |    133337865 |
bpred_bimod.misses                           25038 |        25035 |        25032 |xxxxxxxxxxxxx |xxxxxxxxxxxxx |xxxxxxxxxxxxx |xxxxxxxxxxxxx |        54234 |        54231 |        54225 |xxxxxxxxxxxxx |xxxxxxxxxxxxx |xxxxxxxxxxxxx |xxxxxxxxxxxxx |       116693 |       116692 |       116686 |xxxxxxxxxxxxx |xxxxxxxxxxxxx |xxxxxxxxxxxxx |xxxxxxxxxxxxx |       250119 |       250118 |       250114 |xxxxxxxxxxxxx |xxxxxxxxxxxxx |xxxxxxxxxxxxx |xxxxxxxxxxxxx |       532486 |       532486 |       532481 |xxxxxxxxxxxxx |xxxxxxxxxxxxx |xxxxxxxxxxxxx |xxxxxxxxxxxxx |      1129403 |      1129402 |      1129397 |xxxxxxxxxxxxx |xxxxxxxxxxxxx |xxxxxxxxxxxxx |xxxxxxxxxxxxx |      2390490 |      2390490 |      2390485 |xxxxxxxxxxxxx |xxxxxxxxxxxxx |xxxxxxxxxxxxx |xxxxxxxxxxxxx |      5045370 |      5045369 |      5045365 |xxxxxxxxxxxxx |xxxxxxxxxxxxx |xxxxxxxxxxxxx |xxxxxxxxxxxxx |     10614596 |     10614595 |     10614591 |xxxxxxxxxxxxx |xxxxxxxxxxxxx |xxxxxxxxxxxxx |xxxxxxxxxxxxx |     22280996 |     22280995 |     22280992 |xxxxxxxxxxxxx |xxxxxxxxxxxxx |xxxxxxxxxxxxx |xxxxxxxxxxxxx |     46661798 |     46661797 |     46661793 |
bpred_bimod.jr_hits                             61 |           61 |           61 |xxxxxxxxxxxxx |xxxxxxxxxxxxx |xxxxxxxxxxxxx |xxxxxxxxxxxxx |           71 |           71 |           71 |xxxxxxxxxxxxx |xxxxxxxxxxxxx |xxxxxxxxxxxxx |xxxxxxxxxxxxx |           69 |           69 |           69 |xxxxxxxxxxxxx |xxxxxxxxxxxxx |xxxxxxxxxxxxx |xxxxxxxxxxxxx |           71 |           71 |           71 |xxxxxxxxxxxxx |xxxxxxxxxxxxx |xxxxxxxxxxxxx |xxxxxxxxxxxxx |           69 |           69 |           69 |xxxxxxxxxxxxx |xxxxxxxxxxxxx |xxxxxxxxxxxxx |xxxxxxxxxxxxx |           71 |           71 |           71 |xxxxxxxxxxxxx |xxxxxxxxxxxxx |xxxxxxxxxxxxx |xxxxxxxxxxxxx |           69 |           69 |           69 |xxxxxxxxxxxxx |xxxxxxxxxxxxx |xxxxxxxxxxxxx |xxxxxxxxxxxxx |           71 |           71 |           71 |xxxxxxxxxxxxx |xxxxxxxxxxxxx |xxxxxxxxxxxxx |xxxxxxxxxxxxx |           72 |           72 |           72 |xxxxxxxxxxxxx |xxxxxxxxxxxxx |xxxxxxxxxxxxx |xxxxxxxxxxxxx |           75 |           75 |           75 |xxxxxxxxxxxxx |xxxxxxxxxxxxx |xxxxxxxxxxxxx |xxxxxxxxxxxxx |           72 |           72 |           72 |
bpred_bimod.jr_seen                             61 |           61 |           61 |xxxxxxxxxxxxx |xxxxxxxxxxxxx |xxxxxxxxxxxxx |xxxxxxxxxxxxx |           73 |           73 |           73 |xxxxxxxxxxxxx |xxxxxxxxxxxxx |xxxxxxxxxxxxx |xxxxxxxxxxxxx |           70 |           70 |           70 |xxxxxxxxxxxxx |xxxxxxxxxxxxx |xxxxxxxxxxxxx |xxxxxxxxxxxxx |           73 |           73 |           73 |xxxxxxxxxxxxx |xxxxxxxxxxxxx |xxxxxxxxxxxxx |xxxxxxxxxxxxx |           70 |           70 |           70 |xxxxxxxxxxxxx |xxxxxxxxxxxxx |xxxxxxxxxxxxx |xxxxxxxxxxxxx |           73 |           73 |           73 |xxxxxxxxxxxxx |xxxxxxxxxxxxx |xxxxxxxxxxxxx |xxxxxxxxxxxxx |           70 |           70 |           70 |xxxxxxxxxxxxx |xxxxxxxxxxxxx |xxxxxxxxxxxxx |xxxxxxxxxxxxx |           73 |           73 |           73 |xxxxxxxxxxxxx |xxxxxxxxxxxxx |xxxxxxxxxxxxx |xxxxxxxxxxxxx |           73 |           73 |           73 |xxxxxxxxxxxxx |xxxxxxxxxxxxx |xxxxxxxxxxxxx |xxxxxxxxxxxxx |           76 |           76 |           76 |xxxxxxxxxxxxx |xxxxxxxxxxxxx |xxxxxxxxxxxxx |xxxxxxxxxxxxx |           73 |           73 |           73 |
bpred_bimod.jr_non_ras_hits.PP                   0 |            0 |            0 |xxxxxxxxxxxxx |xxxxxxxxxxxxx |xxxxxxxxxxxxx |xxxxxxxxxxxxx |            0 |            0 |            0 |xxxxxxxxxxxxx |xxxxxxxxxxxxx |xxxxxxxxxxxxx |xxxxxxxxxxxxx |            0 |            0 |            0 |xxxxxxxxxxxxx |xxxxxxxxxxxxx |xxxxxxxxxxxxx |xxxxxxxxxxxxx |            0 |            0 |            0 |xxxxxxxxxxxxx |xxxxxxxxxxxxx |xxxxxxxxxxxxx |xxxxxxxxxxxxx |            0 |            0 |            0 |xxxxxxxxxxxxx |xxxxxxxxxxxxx |xxxxxxxxxxxxx |xxxxxxxxxxxxx |            0 |            0 |            0 |xxxxxxxxxxxxx |xxxxxxxxxxxxx |xxxxxxxxxxxxx |xxxxxxxxxxxxx |            0 |            0 |            0 |xxxxxxxxxxxxx |xxxxxxxxxxxxx |xxxxxxxxxxxxx |xxxxxxxxxxxxx |            0 |            0 |            0 |xxxxxxxxxxxxx |xxxxxxxxxxxxx |xxxxxxxxxxxxx |xxxxxxxxxxxxx |            0 |            0 |            0 |xxxxxxxxxxxxx |xxxxxxxxxxxxx |xxxxxxxxxxxxx |xxxxxxxxxxxxx |            1 |            1 |            1 |xxxxxxxxxxxxx |xxxxxxxxxxxxx |xxxxxxxxxxxxx |xxxxxxxxxxxxx |            0 |            0 |            0 |
bpred_bimod.jr_non_ras_seen.PP                   0 |            0 |            0 |xxxxxxxxxxxxx |xxxxxxxxxxxxx |xxxxxxxxxxxxx |xxxxxxxxxxxxx |            1 |            1 |            1 |xxxxxxxxxxxxx |xxxxxxxxxxxxx |xxxxxxxxxxxxx |xxxxxxxxxxxxx |            0 |            0 |            0 |xxxxxxxxxxxxx |xxxxxxxxxxxxx |xxxxxxxxxxxxx |xxxxxxxxxxxxx |            1 |            1 |            1 |xxxxxxxxxxxxx |xxxxxxxxxxxxx |xxxxxxxxxxxxx |xxxxxxxxxxxxx |            0 |            0 |            0 |xxxxxxxxxxxxx |xxxxxxxxxxxxx |xxxxxxxxxxxxx |xxxxxxxxxxxxx |            1 |            1 |            1 |xxxxxxxxxxxxx |xxxxxxxxxxxxx |xxxxxxxxxxxxx |xxxxxxxxxxxxx |            0 |            0 |            0 |xxxxxxxxxxxxx |xxxxxxxxxxxxx |xxxxxxxxxxxxx |xxxxxxxxxxxxx |            1 |            1 |            1 |xxxxxxxxxxxxx |xxxxxxxxxxxxx |xxxxxxxxxxxxx |xxxxxxxxxxxxx |            1 |            1 |            1 |xxxxxxxxxxxxx |xxxxxxxxxxxxx |xxxxxxxxxxxxx |xxxxxxxxxxxxx |            2 |            2 |            2 |xxxxxxxxxxxxx |xxxxxxxxxxxxx |xxxxxxxxxxxxx |xxxxxxxxxxxxx |            1 |            1 |            1 |
bpred_bimod.bpred_addr_rate                 0.7335 |       0.7336 |       0.7336 |xxxxxxxxxxxxx |xxxxxxxxxxxxx |xxxxxxxxxxxxx |xxxxxxxxxxxxx |       0.7361 |       0.7361 |       0.7361 |xxxxxxxxxxxxx |xxxxxxxxxxxxx |xxxxxxxxxxxxx |xxxxxxxxxxxxx |       0.7356 |       0.7356 |       0.7356 |xxxxxxxxxxxxx |xxxxxxxxxxxxx |xxxxxxxxxxxxx |xxxxxxxxxxxxx |       0.7371 |       0.7371 |       0.7372 |xxxxxxxxxxxxx |xxxxxxxxxxxxx |xxxxxxxxxxxxx |xxxxxxxxxxxxx |       0.7371 |       0.7371 |       0.7371 |xxxxxxxxxxxxx |xxxxxxxxxxxxx |xxxxxxxxxxxxx |xxxxxxxxxxxxx |       0.7390 |       0.7390 |       0.7390 |xxxxxxxxxxxxx |xxxxxxxxxxxxx |xxxxxxxxxxxxx |xxxxxxxxxxxxx |       0.7387 |       0.7387 |       0.7387 |xxxxxxxxxxxxx |xxxxxxxxxxxxx |xxxxxxxxxxxxx |xxxxxxxxxxxxx |       0.7401 |       0.7401 |       0.7401 |xxxxxxxxxxxxx |xxxxxxxxxxxxx |xxxxxxxxxxxxx |xxxxxxxxxxxxx |       0.7398 |       0.7398 |       0.7398 |xxxxxxxxxxxxx |xxxxxxxxxxxxx |xxxxxxxxxxxxx |xxxxxxxxxxxxx |       0.7411 |       0.7411 |       0.7411 |xxxxxxxxxxxxx |xxxxxxxxxxxxx |xxxxxxxxxxxxx |xxxxxxxxxxxxx |       0.7408 |       0.7408 |       0.7408 |
bpred_bimod.bpred_dir_rate                  0.7347 |       0.7347 |       0.7348 |xxxxxxxxxxxxx |xxxxxxxxxxxxx |xxxxxxxxxxxxx |xxxxxxxxxxxxx |       0.7367 |       0.7367 |       0.7367 |xxxxxxxxxxxxx |xxxxxxxxxxxxx |xxxxxxxxxxxxx |xxxxxxxxxxxxx |       0.7358 |       0.7359 |       0.7359 |xxxxxxxxxxxxx |xxxxxxxxxxxxx |xxxxxxxxxxxxx |xxxxxxxxxxxxx |       0.7373 |       0.7373 |       0.7373 |xxxxxxxxxxxxx |xxxxxxxxxxxxx |xxxxxxxxxxxxx |xxxxxxxxxxxxx |       0.7371 |       0.7371 |       0.7371 |xxxxxxxxxxxxx |xxxxxxxxxxxxx |xxxxxxxxxxxxx |xxxxxxxxxxxxx |       0.7391 |       0.7391 |       0.7391 |xxxxxxxxxxxxx |xxxxxxxxxxxxx |xxxxxxxxxxxxx |xxxxxxxxxxxxx |       0.7387 |       0.7387 |       0.7387 |xxxxxxxxxxxxx |xxxxxxxxxxxxx |xxxxxxxxxxxxx |xxxxxxxxxxxxx |       0.7401 |       0.7401 |       0.7401 |xxxxxxxxxxxxx |xxxxxxxxxxxxx |xxxxxxxxxxxxx |xxxxxxxxxxxxx |       0.7398 |       0.7398 |       0.7398 |xxxxxxxxxxxxx |xxxxxxxxxxxxx |xxxxxxxxxxxxx |xxxxxxxxxxxxx |       0.7411 |       0.7411 |       0.7411 |xxxxxxxxxxxxx |xxxxxxxxxxxxx |xxxxxxxxxxxxx |xxxxxxxxxxxxx |       0.7408 |       0.7408 |       0.7408 |
bpred_bimod.bpred_jr_rate                   1.0000 |       1.0000 |       1.0000 |xxxxxxxxxxxxx |xxxxxxxxxxxxx |xxxxxxxxxxxxx |xxxxxxxxxxxxx |       0.9726 |       0.9726 |       0.9726 |xxxxxxxxxxxxx |xxxxxxxxxxxxx |xxxxxxxxxxxxx |xxxxxxxxxxxxx |       0.9857 |       0.9857 |       0.9857 |xxxxxxxxxxxxx |xxxxxxxxxxxxx |xxxxxxxxxxxxx |xxxxxxxxxxxxx |       0.9726 |       0.9726 |       0.9726 |xxxxxxxxxxxxx |xxxxxxxxxxxxx |xxxxxxxxxxxxx |xxxxxxxxxxxxx |       0.9857 |       0.9857 |       0.9857 |xxxxxxxxxxxxx |xxxxxxxxxxxxx |xxxxxxxxxxxxx |xxxxxxxxxxxxx |       0.9726 |       0.9726 |       0.9726 |xxxxxxxxxxxxx |xxxxxxxxxxxxx |xxxxxxxxxxxxx |xxxxxxxxxxxxx |       0.9857 |       0.9857 |       0.9857 |xxxxxxxxxxxxx |xxxxxxxxxxxxx |xxxxxxxxxxxxx |xxxxxxxxxxxxx |       0.9726 |       0.9726 |       0.9726 |xxxxxxxxxxxxx |xxxxxxxxxxxxx |xxxxxxxxxxxxx |xxxxxxxxxxxxx |       0.9863 |       0.9863 |       0.9863 |xxxxxxxxxxxxx |xxxxxxxxxxxxx |xxxxxxxxxxxxx |xxxxxxxxxxxxx |       0.9868 |       0.9868 |       0.9868 |xxxxxxxxxxxxx |xxxxxxxxxxxxx |xxxxxxxxxxxxx |xxxxxxxxxxxxx |       0.9863 |       0.9863 |       0.9863 |
bpred_bimod.bpred_jr_non_ras_rate.PP       <error: |      <error: |      <error: |xxxxxxxxxxxxx |xxxxxxxxxxxxx |xxxxxxxxxxxxx |xxxxxxxxxxxxx |       0.0000 |       0.0000 |       0.0000 |xxxxxxxxxxxxx |xxxxxxxxxxxxx |xxxxxxxxxxxxx |xxxxxxxxxxxxx |      <error: |      <error: |      <error: |xxxxxxxxxxxxx |xxxxxxxxxxxxx |xxxxxxxxxxxxx |xxxxxxxxxxxxx |       0.0000 |       0.0000 |       0.0000 |xxxxxxxxxxxxx |xxxxxxxxxxxxx |xxxxxxxxxxxxx |xxxxxxxxxxxxx |      <error: |      <error: |      <error: |xxxxxxxxxxxxx |xxxxxxxxxxxxx |xxxxxxxxxxxxx |xxxxxxxxxxxxx |       0.0000 |       0.0000 |       0.0000 |xxxxxxxxxxxxx |xxxxxxxxxxxxx |xxxxxxxxxxxxx |xxxxxxxxxxxxx |      <error: |      <error: |      <error: |xxxxxxxxxxxxx |xxxxxxxxxxxxx |xxxxxxxxxxxxx |xxxxxxxxxxxxx |       0.0000 |       0.0000 |       0.0000 |xxxxxxxxxxxxx |xxxxxxxxxxxxx |xxxxxxxxxxxxx |xxxxxxxxxxxxx |       0.0000 |       0.0000 |       0.0000 |xxxxxxxxxxxxx |xxxxxxxxxxxxx |xxxxxxxxxxxxx |xxxxxxxxxxxxx |       0.5000 |       0.5000 |       0.5000 |xxxxxxxxxxxxx |xxxxxxxxxxxxx |xxxxxxxxxxxxx |xxxxxxxxxxxxx |       0.0000 |       0.0000 |       0.0000 |
bpred_bimod.retstack_pushes                     63 |           63 |           63 |xxxxxxxxxxxxx |xxxxxxxxxxxxx |xxxxxxxxxxxxx |xxxxxxxxxxxxx |           74 |           74 |           74 |xxxxxxxxxxxxx |xxxxxxxxxxxxx |xxxxxxxxxxxxx |xxxxxxxxxxxxx |           72 |           72 |           72 |xxxxxxxxxxxxx |xxxxxxxxxxxxx |xxxxxxxxxxxxx |xxxxxxxxxxxxx |           74 |           74 |           74 |xxxxxxxxxxxxx |xxxxxxxxxxxxx |xxxxxxxxxxxxx |xxxxxxxxxxxxx |           72 |           72 |           72 |xxxxxxxxxxxxx |xxxxxxxxxxxxx |xxxxxxxxxxxxx |xxxxxxxxxxxxx |           74 |           74 |           74 |xxxxxxxxxxxxx |xxxxxxxxxxxxx |xxxxxxxxxxxxx |xxxxxxxxxxxxx |           72 |           72 |           72 |xxxxxxxxxxxxx |xxxxxxxxxxxxx |xxxxxxxxxxxxx |xxxxxxxxxxxxx |           74 |           74 |           74 |xxxxxxxxxxxxx |xxxxxxxxxxxxx |xxxxxxxxxxxxx |xxxxxxxxxxxxx |           74 |           74 |           74 |xxxxxxxxxxxxx |xxxxxxxxxxxxx |xxxxxxxxxxxxx |xxxxxxxxxxxxx |           76 |           76 |           76 |xxxxxxxxxxxxx |xxxxxxxxxxxxx |xxxxxxxxxxxxx |xxxxxxxxxxxxx |           74 |           74 |           74 |
bpred_bimod.retstack_pops                       61 |           61 |           61 |xxxxxxxxxxxxx |xxxxxxxxxxxxx |xxxxxxxxxxxxx |xxxxxxxxxxxxx |           72 |           72 |           72 |xxxxxxxxxxxxx |xxxxxxxxxxxxx |xxxxxxxxxxxxx |xxxxxxxxxxxxx |           70 |           70 |           70 |xxxxxxxxxxxxx |xxxxxxxxxxxxx |xxxxxxxxxxxxx |xxxxxxxxxxxxx |           72 |           72 |           72 |xxxxxxxxxxxxx |xxxxxxxxxxxxx |xxxxxxxxxxxxx |xxxxxxxxxxxxx |           70 |           70 |           70 |xxxxxxxxxxxxx |xxxxxxxxxxxxx |xxxxxxxxxxxxx |xxxxxxxxxxxxx |           72 |           72 |           72 |xxxxxxxxxxxxx |xxxxxxxxxxxxx |xxxxxxxxxxxxx |xxxxxxxxxxxxx |           70 |           70 |           70 |xxxxxxxxxxxxx |xxxxxxxxxxxxx |xxxxxxxxxxxxx |xxxxxxxxxxxxx |           72 |           72 |           72 |xxxxxxxxxxxxx |xxxxxxxxxxxxx |xxxxxxxxxxxxx |xxxxxxxxxxxxx |           72 |           72 |           72 |xxxxxxxxxxxxx |xxxxxxxxxxxxx |xxxxxxxxxxxxx |xxxxxxxxxxxxx |           74 |           74 |           74 |xxxxxxxxxxxxx |xxxxxxxxxxxxx |xxxxxxxxxxxxx |xxxxxxxxxxxxx |           72 |           72 |           72 |
bpred_bimod.used_ras.PP                         61 |           61 |           61 |xxxxxxxxxxxxx |xxxxxxxxxxxxx |xxxxxxxxxxxxx |xxxxxxxxxxxxx |           72 |           72 |           72 |xxxxxxxxxxxxx |xxxxxxxxxxxxx |xxxxxxxxxxxxx |xxxxxxxxxxxxx |           70 |           70 |           70 |xxxxxxxxxxxxx |xxxxxxxxxxxxx |xxxxxxxxxxxxx |xxxxxxxxxxxxx |           72 |           72 |           72 |xxxxxxxxxxxxx |xxxxxxxxxxxxx |xxxxxxxxxxxxx |xxxxxxxxxxxxx |           70 |           70 |           70 |xxxxxxxxxxxxx |xxxxxxxxxxxxx |xxxxxxxxxxxxx |xxxxxxxxxxxxx |           72 |           72 |           72 |xxxxxxxxxxxxx |xxxxxxxxxxxxx |xxxxxxxxxxxxx |xxxxxxxxxxxxx |           70 |           70 |           70 |xxxxxxxxxxxxx |xxxxxxxxxxxxx |xxxxxxxxxxxxx |xxxxxxxxxxxxx |           72 |           72 |           72 |xxxxxxxxxxxxx |xxxxxxxxxxxxx |xxxxxxxxxxxxx |xxxxxxxxxxxxx |           72 |           72 |           72 |xxxxxxxxxxxxx |xxxxxxxxxxxxx |xxxxxxxxxxxxx |xxxxxxxxxxxxx |           74 |           74 |           74 |xxxxxxxxxxxxx |xxxxxxxxxxxxx |xxxxxxxxxxxxx |xxxxxxxxxxxxx |           72 |           72 |           72 |
bpred_bimod.ras_hits.PP                         61 |           61 |           61 |xxxxxxxxxxxxx |xxxxxxxxxxxxx |xxxxxxxxxxxxx |xxxxxxxxxxxxx |           71 |           71 |           71 |xxxxxxxxxxxxx |xxxxxxxxxxxxx |xxxxxxxxxxxxx |xxxxxxxxxxxxx |           69 |           69 |           69 |xxxxxxxxxxxxx |xxxxxxxxxxxxx |xxxxxxxxxxxxx |xxxxxxxxxxxxx |           71 |           71 |           71 |xxxxxxxxxxxxx |xxxxxxxxxxxxx |xxxxxxxxxxxxx |xxxxxxxxxxxxx |           69 |           69 |           69 |xxxxxxxxxxxxx |xxxxxxxxxxxxx |xxxxxxxxxxxxx |xxxxxxxxxxxxx |           71 |           71 |           71 |xxxxxxxxxxxxx |xxxxxxxxxxxxx |xxxxxxxxxxxxx |xxxxxxxxxxxxx |           69 |           69 |           69 |xxxxxxxxxxxxx |xxxxxxxxxxxxx |xxxxxxxxxxxxx |xxxxxxxxxxxxx |           71 |           71 |           71 |xxxxxxxxxxxxx |xxxxxxxxxxxxx |xxxxxxxxxxxxx |xxxxxxxxxxxxx |           72 |           72 |           72 |xxxxxxxxxxxxx |xxxxxxxxxxxxx |xxxxxxxxxxxxx |xxxxxxxxxxxxx |           74 |           74 |           74 |xxxxxxxxxxxxx |xxxxxxxxxxxxx |xxxxxxxxxxxxx |xxxxxxxxxxxxx |           72 |           72 |           72 |
bpred_bimod.ras_rate.PP                     1.0000 |       1.0000 |       1.0000 |xxxxxxxxxxxxx |xxxxxxxxxxxxx |xxxxxxxxxxxxx |xxxxxxxxxxxxx |       0.9861 |       0.9861 |       0.9861 |xxxxxxxxxxxxx |xxxxxxxxxxxxx |xxxxxxxxxxxxx |xxxxxxxxxxxxx |       0.9857 |       0.9857 |       0.9857 |xxxxxxxxxxxxx |xxxxxxxxxxxxx |xxxxxxxxxxxxx |xxxxxxxxxxxxx |       0.9861 |       0.9861 |       0.9861 |xxxxxxxxxxxxx |xxxxxxxxxxxxx |xxxxxxxxxxxxx |xxxxxxxxxxxxx |       0.9857 |       0.9857 |       0.9857 |xxxxxxxxxxxxx |xxxxxxxxxxxxx |xxxxxxxxxxxxx |xxxxxxxxxxxxx |       0.9861 |       0.9861 |       0.9861 |xxxxxxxxxxxxx |xxxxxxxxxxxxx |xxxxxxxxxxxxx |xxxxxxxxxxxxx |       0.9857 |       0.9857 |       0.9857 |xxxxxxxxxxxxx |xxxxxxxxxxxxx |xxxxxxxxxxxxx |xxxxxxxxxxxxx |       0.9861 |       0.9861 |       0.9861 |xxxxxxxxxxxxx |xxxxxxxxxxxxx |xxxxxxxxxxxxx |xxxxxxxxxxxxx |       1.0000 |       1.0000 |       1.0000 |xxxxxxxxxxxxx |xxxxxxxxxxxxx |xxxxxxxxxxxxx |xxxxxxxxxxxxx |       1.0000 |       1.0000 |       1.0000 |xxxxxxxxxxxxx |xxxxxxxxxxxxx |xxxxxxxxxxxxx |xxxxxxxxxxxxx |       1.0000 |       1.0000 |       1.0000 |
bpred_2lev.lookups                   xxxxxxxxxxxxx |xxxxxxxxxxxxx |xxxxxxxxxxxxx |        94382 |        94382 |        94382 |        94382 |xxxxxxxxxxxxx |xxxxxxxxxxxxx |xxxxxxxxxxxxx |       205957 |       205957 |       205957 |       205957 |xxxxxxxxxxxxx |xxxxxxxxxxxxx |xxxxxxxxxxxxx |       441767 |       441767 |       441767 |       441767 |xxxxxxxxxxxxx |xxxxxxxxxxxxx |xxxxxxxxxxxxx |       952019 |       952019 |       952019 |       952019 |xxxxxxxxxxxxx |xxxxxxxxxxxxx |xxxxxxxxxxxxx |      2025720 |      2025720 |      2025720 |      2025720 |xxxxxxxxxxxxx |xxxxxxxxxxxxx |xxxxxxxxxxxxx |      4328209 |      4328209 |      4328209 |      4328209 |xxxxxxxxxxxxx |xxxxxxxxxxxxx |xxxxxxxxxxxxx |      9149108 |      9149108 |      9149108 |      9149108 |xxxxxxxxxxxxx |xxxxxxxxxxxxx |xxxxxxxxxxxxx |     19414191 |     19414191 |     19414191 |     19414191 |xxxxxxxxxxxxx |xxxxxxxxxxxxx |xxxxxxxxxxxxx |     40794326 |     40794326 |     40794326 |     40794326 |xxxxxxxxxxxxx |xxxxxxxxxxxxx |xxxxxxxxxxxxx |     86057889 |     86057889 |     86057889 |     86057889 |xxxxxxxxxxxxx |xxxxxxxxxxxxx |xxxxxxxxxxxxx |    179999658 |    179999658 |    179999658 |    179999658 |
[...]
bpred_2lev.retstack_pushes           xxxxxxxxxxxxx |xxxxxxxxxxxxx |xxxxxxxxxxxxx |           63 |           63 |           63 |           63 |xxxxxxxxxxxxx |xxxxxxxxxxxxx |xxxxxxxxxxxxx |           74 |           74 |           74 |           74 |xxxxxxxxxxxxx |xxxxxxxxxxxxx |xxxxxxxxxxxxx |           72 |           72 |           72 |           72 |xxxxxxxxxxxxx |xxxxxxxxxxxxx |xxxxxxxxxxxxx |           74 |           74 |           74 |           74 |xxxxxxxxxxxxx |xxxxxxxxxxxxx |xxxxxxxxxxxxx |           72 |           72 |           72 |           72 |xxxxxxxxxxxxx |xxxxxxxxxxxxx |xxxxxxxxxxxxx |           74 |           74 |           74 |           74 |xxxxxxxxxxxxx |xxxxxxxxxxxxx |xxxxxxxxxxxxx |           72 |           72 |           72 |           72 |xxxxxxxxxxxxx |xxxxxxxxxxxxx |xxxxxxxxxxxxx |           74 |           74 |           74 |           74 |xxxxxxxxxxxxx |xxxxxxxxxxxxx |xxxxxxxxxxxxx |           74 |           74 |           74 |           74 |xxxxxxxxxxxxx |xxxxxxxxxxxxx |xxxxxxxxxxxxx |           76 |           76 |           76 |           76 |xxxxxxxxxxxxx |xxxxxxxxxxxxx |xxxxxxxxxxxxx |           74 |           74 |           74 |           74 |
bpred_2lev.retstack_pops             xxxxxxxxxxxxx |xxxxxxxxxxxxx |xxxxxxxxxxxxx |           61 |           61 |           61 |           61 |xxxxxxxxxxxxx |xxxxxxxxxxxxx |xxxxxxxxxxxxx |           72 |           72 |           72 |           72 |xxxxxxxxxxxxx |xxxxxxxxxxxxx |xxxxxxxxxxxxx |           70 |           70 |           70 |           70 |xxxxxxxxxxxxx |xxxxxxxxxxxxx |xxxxxxxxxxxxx |           72 |           72 |           72 |           72 |xxxxxxxxxxxxx |xxxxxxxxxxxxx |xxxxxxxxxxxxx |           70 |           70 |           70 |           70 |xxxxxxxxxxxxx |xxxxxxxxxxxxx |xxxxxxxxxxxxx |           72 |           72 |           72 |           72 |xxxxxxxxxxxxx |xxxxxxxxxxxxx |xxxxxxxxxxxxx |           70 |           70 |           70 |           70 |xxxxxxxxxxxxx |xxxxxxxxxxxxx |xxxxxxxxxxxxx |           72 |           72 |           72 |           72 |xxxxxxxxxxxxx |xxxxxxxxxxxxx |xxxxxxxxxxxxx |           72 |           72 |           72 |           72 |xxxxxxxxxxxxx |xxxxxxxxxxxxx |xxxxxxxxxxxxx |           74 |           74 |           74 |           74 |xxxxxxxxxxxxx |xxxxxxxxxxxxx |xxxxxxxxxxxxx |           72 |           72 |           72 |           72 |
bpred_2lev.used_ras.PP               xxxxxxxxxxxxx |xxxxxxxxxxxxx |xxxxxxxxxxxxx |           61 |           61 |           61 |           61 |xxxxxxxxxxxxx |xxxxxxxxxxxxx |xxxxxxxxxxxxx |           72 |           72 |           72 |           72 |xxxxxxxxxxxxx |xxxxxxxxxxxxx |xxxxxxxxxxxxx |           70 |           70 |           70 |           70 |xxxxxxxxxxxxx |xxxxxxxxxxxxx |xxxxxxxxxxxxx |           72 |           72 |           72 |           72 |xxxxxxxxxxxxx |xxxxxxxxxxxxx |xxxxxxxxxxxxx |           70 |           70 |           70 |           70 |xxxxxxxxxxxxx |xxxxxxxxxxxxx |xxxxxxxxxxxxx |           72 |           72 |           72 |           72 |xxxxxxxxxxxxx |xxxxxxxxxxxxx |xxxxxxxxxxxxx |           70 |           70 |           70 |           70 |xxxxxxxxxxxxx |xxxxxxxxxxxxx |xxxxxxxxxxxxx |           72 |           72 |           72 |           72 |xxxxxxxxxxxxx |xxxxxxxxxxxxx |xxxxxxxxxxxxx |           72 |           72 |           72 |           72 |xxxxxxxxxxxxx |xxxxxxxxxxxxx |xxxxxxxxxxxxx |           74 |           74 |           74 |           74 |xxxxxxxxxxxxx |xxxxxxxxxxxxx |xxxxxxxxxxxxx |           72 |           72 |           72 |           72 |
bpred_2lev.ras_hits.PP               xxxxxxxxxxxxx |xxxxxxxxxxxxx |xxxxxxxxxxxxx |           61 |           61 |           61 |           61 |xxxxxxxxxxxxx |xxxxxxxxxxxxx |xxxxxxxxxxxxx |           71 |           71 |           71 |           71 |xxxxxxxxxxxxx |xxxxxxxxxxxxx |xxxxxxxxxxxxx |           69 |           69 |           69 |           69 |xxxxxxxxxxxxx |xxxxxxxxxxxxx |xxxxxxxxxxxxx |           71 |           71 |           71 |           71 |xxxxxxxxxxxxx |xxxxxxxxxxxxx |xxxxxxxxxxxxx |           69 |           69 |           69 |           69 |xxxxxxxxxxxxx |xxxxxxxxxxxxx |xxxxxxxxxxxxx |           71 |           71 |           71 |           71 |xxxxxxxxxxxxx |xxxxxxxxxxxxx |xxxxxxxxxxxxx |           69 |           69 |           69 |           69 |xxxxxxxxxxxxx |xxxxxxxxxxxxx |xxxxxxxxxxxxx |           71 |           71 |           71 |           71 |xxxxxxxxxxxxx |xxxxxxxxxxxxx |xxxxxxxxxxxxx |           72 |           72 |           72 |           72 |xxxxxxxxxxxxx |xxxxxxxxxxxxx |xxxxxxxxxxxxx |           74 |           74 |           74 |           74 |xxxxxxxxxxxxx |xxxxxxxxxxxxx |xxxxxxxxxxxxx |           72 |           72 |           72 |           72 |
bpred_2lev.ras_rate.PP               xxxxxxxxxxxxx |xxxxxxxxxxxxx |xxxxxxxxxxxxx |       1.0000 |       1.0000 |       1.0000 |       1.0000 |xxxxxxxxxxxxx |xxxxxxxxxxxxx |xxxxxxxxxxxxx |       0.9861 |       0.9861 |       0.9861 |       0.9861 |xxxxxxxxxxxxx |xxxxxxxxxxxxx |xxxxxxxxxxxxx |       0.9857 |       0.9857 |       0.9857 |       0.9857 |xxxxxxxxxxxxx |xxxxxxxxxxxxx |xxxxxxxxxxxxx |       0.9861 |       0.9861 |       0.9861 |       0.9861 |xxxxxxxxxxxxx |xxxxxxxxxxxxx |xxxxxxxxxxxxx |       0.9857 |       0.9857 |       0.9857 |       0.9857 |xxxxxxxxxxxxx |xxxxxxxxxxxxx |xxxxxxxxxxxxx |       0.9861 |       0.9861 |       0.9861 |       0.9861 |xxxxxxxxxxxxx |xxxxxxxxxxxxx |xxxxxxxxxxxxx |       0.9857 |       0.9857 |       0.9857 |       0.9857 |xxxxxxxxxxxxx |xxxxxxxxxxxxx |xxxxxxxxxxxxx |       0.9861 |       0.9861 |       0.9861 |       0.9861 |xxxxxxxxxxxxx |xxxxxxxxxxxxx |xxxxxxxxxxxxx |       1.0000 |       1.0000 |       1.0000 |       1.0000 |xxxxxxxxxxxxx |xxxxxxxxxxxxx |xxxxxxxxxxxxx |       1.0000 |       1.0000 |       1.0000 |       1.0000 |xxxxxxxxxxxxx |xxxxxxxxxxxxx |xxxxxxxxxxxxx |       1.0000 |       1.0000 |       1.0000 |       1.0000 |

Command list: 
	sslittle-na-sstrix-gcc -Wall -O3 -funroll-loops -finline-functions  -DRANDOM_SIZE=4096 -DOFFSET=1 -DSORT=base_mergesort sorts/base_mergesort857600758.c simpleMain.c -o base_mergesort1477399519
	sim-cache -cache:dl1 dl1:256:32:1:l -cache:dl2 dl2:131072:32:1:l -cache:il1 il1:256:32:1:l -cache:il2 dl2 base_mergesort1477399519
	sim-cache -cache:dl1 dl1:256:32:1:l -cache:dl2 dl2:65536:32:1:l -cache:il1 il1:256:32:1:l -cache:il2 dl2 base_mergesort1477399519
	sim-cache -cache:dl1 dl1:1:32:256:l -cache:dl2 dl2:1:32:131072:l -cache:il1 il1:1:32:256:l -cache:il2 dl2 base_mergesort1477399519
	sim-cache -cache:dl1 dl1:1:32:256:l -cache:dl2 dl2:1:32:65536:l -cache:il1 il1:1:32:256:l -cache:il2 dl2 base_mergesort1477399519
	sim-bpred -bpred bimod -bpred:bimod 512 base_mergesort1477399519
	sim-bpred -bpred bimod -bpred:bimod 1024 base_mergesort1477399519
	sim-bpred -bpred bimod -bpred:bimod 2048 base_mergesort1477399519
	sim-bpred -bpred 2lev -bpred:2lev 1 512 10 1 base_mergesort1477399519
	sim-bpred -bpred 2lev -bpred:2lev 1 1024 10 1 base_mergesort1477399519
	sim-bpred -bpred 2lev -bpred:2lev 1 2048 10 1 base_mergesort1477399519
	sim-bpred -bpred 2lev -bpred:2lev 1 4096 10 1 base_mergesort1477399519
	sslittle-na-sstrix-gcc -Wall -O3 -funroll-loops -finline-functions  -DRANDOM_SIZE=8192 -DOFFSET=1 -DSORT=base_mergesort sorts/base_mergesort857600758.c simpleMain.c -o base_mergesort1477399519
	sim-cache -cache:dl1 dl1:256:32:1:l -cache:dl2 dl2:131072:32:1:l -cache:il1 il1:256:32:1:l -cache:il2 dl2 base_mergesort1477399519
	sim-cache -cache:dl1 dl1:256:32:1:l -cache:dl2 dl2:65536:32:1:l -cache:il1 il1:256:32:1:l -cache:il2 dl2 base_mergesort1477399519
	sim-cache -cache:dl1 dl1:1:32:256:l -cache:dl2 dl2:1:32:131072:l -cache:il1 il1:1:32:256:l -cache:il2 dl2 base_mergesort1477399519
	sim-cache -cache:dl1 dl1:1:32:256:l -cache:dl2 dl2:1:32:65536:l -cache:il1 il1:1:32:256:l -cache:il2 dl2 base_mergesort1477399519
	sim-bpred -bpred bimod -bpred:bimod 512 base_mergesort1477399519
	sim-bpred -bpred bimod -bpred:bimod 1024 base_mergesort1477399519
	sim-bpred -bpred bimod -bpred:bimod 2048 base_mergesort1477399519
	sim-bpred -bpred 2lev -bpred:2lev 1 512 10 1 base_mergesort1477399519
	sim-bpred -bpred 2lev -bpred:2lev 1 1024 10 1 base_mergesort1477399519
	sim-bpred -bpred 2lev -bpred:2lev 1 2048 10 1 base_mergesort1477399519
	sim-bpred -bpred 2lev -bpred:2lev 1 4096 10 1 base_mergesort1477399519
	sslittle-na-sstrix-gcc -Wall -O3 -funroll-loops -finline-functions  -DRANDOM_SIZE=16384 -DOFFSET=1 -DSORT=base_mergesort sorts/base_mergesort857600758.c simpleMain.c -o base_mergesort1477399519
	sim-cache -cache:dl1 dl1:256:32:1:l -cache:dl2 dl2:131072:32:1:l -cache:il1 il1:256:32:1:l -cache:il2 dl2 base_mergesort1477399519
	sim-cache -cache:dl1 dl1:256:32:1:l -cache:dl2 dl2:65536:32:1:l -cache:il1 il1:256:32:1:l -cache:il2 dl2 base_mergesort1477399519
	sim-cache -cache:dl1 dl1:1:32:256:l -cache:dl2 dl2:1:32:131072:l -cache:il1 il1:1:32:256:l -cache:il2 dl2 base_mergesort1477399519
	sim-cache -cache:dl1 dl1:1:32:256:l -cache:dl2 dl2:1:32:65536:l -cache:il1 il1:1:32:256:l -cache:il2 dl2 base_mergesort1477399519
	sim-bpred -bpred bimod -bpred:bimod 512 base_mergesort1477399519
	sim-bpred -bpred bimod -bpred:bimod 1024 base_mergesort1477399519
	sim-bpred -bpred bimod -bpred:bimod 2048 base_mergesort1477399519
	sim-bpred -bpred 2lev -bpred:2lev 1 512 10 1 base_mergesort1477399519
	sim-bpred -bpred 2lev -bpred:2lev 1 1024 10 1 base_mergesort1477399519
	sim-bpred -bpred 2lev -bpred:2lev 1 2048 10 1 base_mergesort1477399519
	sim-bpred -bpred 2lev -bpred:2lev 1 4096 10 1 base_mergesort1477399519
	sslittle-na-sstrix-gcc -Wall -O3 -funroll-loops -finline-functions  -DRANDOM_SIZE=32768 -DOFFSET=1 -DSORT=base_mergesort sorts/base_mergesort857600758.c simpleMain.c -o base_mergesort1477399519
	sim-cache -cache:dl1 dl1:256:32:1:l -cache:dl2 dl2:131072:32:1:l -cache:il1 il1:256:32:1:l -cache:il2 dl2 base_mergesort1477399519
	sim-cache -cache:dl1 dl1:256:32:1:l -cache:dl2 dl2:65536:32:1:l -cache:il1 il1:256:32:1:l -cache:il2 dl2 base_mergesort1477399519
	sim-cache -cache:dl1 dl1:1:32:256:l -cache:dl2 dl2:1:32:131072:l -cache:il1 il1:1:32:256:l -cache:il2 dl2 base_mergesort1477399519
	sim-cache -cache:dl1 dl1:1:32:256:l -cache:dl2 dl2:1:32:65536:l -cache:il1 il1:1:32:256:l -cache:il2 dl2 base_mergesort1477399519
	sim-bpred -bpred bimod -bpred:bimod 512 base_mergesort1477399519
	sim-bpred -bpred bimod -bpred:bimod 1024 base_mergesort1477399519
	sim-bpred -bpred bimod -bpred:bimod 2048 base_mergesort1477399519
	sim-bpred -bpred 2lev -bpred:2lev 1 512 10 1 base_mergesort1477399519
	sim-bpred -bpred 2lev -bpred:2lev 1 1024 10 1 base_mergesort1477399519
	sim-bpred -bpred 2lev -bpred:2lev 1 2048 10 1 base_mergesort1477399519
	sim-bpred -bpred 2lev -bpred:2lev 1 4096 10 1 base_mergesort1477399519
	sslittle-na-sstrix-gcc -Wall -O3 -funroll-loops -finline-functions  -DRANDOM_SIZE=65536 -DOFFSET=1 -DSORT=base_mergesort sorts/base_mergesort857600758.c simpleMain.c -o base_mergesort1477399519
	sim-cache -cache:dl1 dl1:256:32:1:l -cache:dl2 dl2:131072:32:1:l -cache:il1 il1:256:32:1:l -cache:il2 dl2 base_mergesort1477399519
	sim-cache -cache:dl1 dl1:256:32:1:l -cache:dl2 dl2:65536:32:1:l -cache:il1 il1:256:32:1:l -cache:il2 dl2 base_mergesort1477399519
	sim-cache -cache:dl1 dl1:1:32:256:l -cache:dl2 dl2:1:32:131072:l -cache:il1 il1:1:32:256:l -cache:il2 dl2 base_mergesort1477399519
	sim-cache -cache:dl1 dl1:1:32:256:l -cache:dl2 dl2:1:32:65536:l -cache:il1 il1:1:32:256:l -cache:il2 dl2 base_mergesort1477399519
	sim-bpred -bpred bimod -bpred:bimod 512 base_mergesort1477399519
	sim-bpred -bpred bimod -bpred:bimod 1024 base_mergesort1477399519
	sim-bpred -bpred bimod -bpred:bimod 2048 base_mergesort1477399519
	sim-bpred -bpred 2lev -bpred:2lev 1 512 10 1 base_mergesort1477399519
	sim-bpred -bpred 2lev -bpred:2lev 1 1024 10 1 base_mergesort1477399519
	sim-bpred -bpred 2lev -bpred:2lev 1 2048 10 1 base_mergesort1477399519
	sim-bpred -bpred 2lev -bpred:2lev 1 4096 10 1 base_mergesort1477399519
	sslittle-na-sstrix-gcc -Wall -O3 -funroll-loops -finline-functions  -DRANDOM_SIZE=131072 -DOFFSET=1 -DSORT=base_mergesort sorts/base_mergesort857600758.c simpleMain.c -o base_mergesort1477399519
	sim-cache -cache:dl1 dl1:256:32:1:l -cache:dl2 dl2:131072:32:1:l -cache:il1 il1:256:32:1:l -cache:il2 dl2 base_mergesort1477399519
	sim-cache -cache:dl1 dl1:256:32:1:l -cache:dl2 dl2:65536:32:1:l -cache:il1 il1:256:32:1:l -cache:il2 dl2 base_mergesort1477399519
	sim-cache -cache:dl1 dl1:1:32:256:l -cache:dl2 dl2:1:32:131072:l -cache:il1 il1:1:32:256:l -cache:il2 dl2 base_mergesort1477399519
	sim-cache -cache:dl1 dl1:1:32:256:l -cache:dl2 dl2:1:32:65536:l -cache:il1 il1:1:32:256:l -cache:il2 dl2 base_mergesort1477399519
	sim-bpred -bpred bimod -bpred:bimod 512 base_mergesort1477399519
	sim-bpred -bpred bimod -bpred:bimod 1024 base_mergesort1477399519
	sim-bpred -bpred bimod -bpred:bimod 2048 base_mergesort1477399519
	sim-bpred -bpred 2lev -bpred:2lev 1 512 10 1 base_mergesort1477399519
	sim-bpred -bpred 2lev -bpred:2lev 1 1024 10 1 base_mergesort1477399519
	sim-bpred -bpred 2lev -bpred:2lev 1 2048 10 1 base_mergesort1477399519
	sim-bpred -bpred 2lev -bpred:2lev 1 4096 10 1 base_mergesort1477399519
	sslittle-na-sstrix-gcc -Wall -O3 -funroll-loops -finline-functions  -DRANDOM_SIZE=262144 -DOFFSET=1 -DSORT=base_mergesort sorts/base_mergesort857600758.c simpleMain.c -o base_mergesort1477399519
	sim-cache -cache:dl1 dl1:256:32:1:l -cache:dl2 dl2:131072:32:1:l -cache:il1 il1:256:32:1:l -cache:il2 dl2 base_mergesort1477399519
	sim-cache -cache:dl1 dl1:256:32:1:l -cache:dl2 dl2:65536:32:1:l -cache:il1 il1:256:32:1:l -cache:il2 dl2 base_mergesort1477399519
	sim-cache -cache:dl1 dl1:1:32:256:l -cache:dl2 dl2:1:32:131072:l -cache:il1 il1:1:32:256:l -cache:il2 dl2 base_mergesort1477399519
	sim-cache -cache:dl1 dl1:1:32:256:l -cache:dl2 dl2:1:32:65536:l -cache:il1 il1:1:32:256:l -cache:il2 dl2 base_mergesort1477399519
	sim-bpred -bpred bimod -bpred:bimod 512 base_mergesort1477399519
	sim-bpred -bpred bimod -bpred:bimod 1024 base_mergesort1477399519
	sim-bpred -bpred bimod -bpred:bimod 2048 base_mergesort1477399519
	sim-bpred -bpred 2lev -bpred:2lev 1 512 10 1 base_mergesort1477399519
	sim-bpred -bpred 2lev -bpred:2lev 1 1024 10 1 base_mergesort1477399519
	sim-bpred -bpred 2lev -bpred:2lev 1 2048 10 1 base_mergesort1477399519
	sim-bpred -bpred 2lev -bpred:2lev 1 4096 10 1 base_mergesort1477399519
	sslittle-na-sstrix-gcc -Wall -O3 -funroll-loops -finline-functions  -DRANDOM_SIZE=524288 -DOFFSET=1 -DSORT=base_mergesort sorts/base_mergesort857600758.c simpleMain.c -o base_mergesort1477399519
	sim-cache -cache:dl1 dl1:256:32:1:l -cache:dl2 dl2:131072:32:1:l -cache:il1 il1:256:32:1:l -cache:il2 dl2 base_mergesort1477399519
	sim-cache -cache:dl1 dl1:256:32:1:l -cache:dl2 dl2:65536:32:1:l -cache:il1 il1:256:32:1:l -cache:il2 dl2 base_mergesort1477399519
	sim-cache -cache:dl1 dl1:1:32:256:l -cache:dl2 dl2:1:32:131072:l -cache:il1 il1:1:32:256:l -cache:il2 dl2 base_mergesort1477399519
	sim-cache -cache:dl1 dl1:1:32:256:l -cache:dl2 dl2:1:32:65536:l -cache:il1 il1:1:32:256:l -cache:il2 dl2 base_mergesort1477399519
	sim-bpred -bpred bimod -bpred:bimod 512 base_mergesort1477399519
	sim-bpred -bpred bimod -bpred:bimod 1024 base_mergesort1477399519
	sim-bpred -bpred bimod -bpred:bimod 2048 base_mergesort1477399519
	sim-bpred -bpred 2lev -bpred:2lev 1 512 10 1 base_mergesort1477399519
	sim-bpred -bpred 2lev -bpred:2lev 1 1024 10 1 base_mergesort1477399519
	sim-bpred -bpred 2lev -bpred:2lev 1 2048 10 1 base_mergesort1477399519
	sim-bpred -bpred 2lev -bpred:2lev 1 4096 10 1 base_mergesort1477399519
	sslittle-na-sstrix-gcc -Wall -O3 -funroll-loops -finline-functions  -DRANDOM_SIZE=1048576 -DOFFSET=1 -DSORT=base_mergesort sorts/base_mergesort857600758.c simpleMain.c -o base_mergesort1477399519
	sim-cache -cache:dl1 dl1:256:32:1:l -cache:dl2 dl2:131072:32:1:l -cache:il1 il1:256:32:1:l -cache:il2 dl2 base_mergesort1477399519
	sim-cache -cache:dl1 dl1:256:32:1:l -cache:dl2 dl2:65536:32:1:l -cache:il1 il1:256:32:1:l -cache:il2 dl2 base_mergesort1477399519
	sim-cache -cache:dl1 dl1:1:32:256:l -cache:dl2 dl2:1:32:131072:l -cache:il1 il1:1:32:256:l -cache:il2 dl2 base_mergesort1477399519
	sim-cache -cache:dl1 dl1:1:32:256:l -cache:dl2 dl2:1:32:65536:l -cache:il1 il1:1:32:256:l -cache:il2 dl2 base_mergesort1477399519
	sim-bpred -bpred bimod -bpred:bimod 512 base_mergesort1477399519
	sim-bpred -bpred bimod -bpred:bimod 1024 base_mergesort1477399519
	sim-bpred -bpred bimod -bpred:bimod 2048 base_mergesort1477399519
	sim-bpred -bpred 2lev -bpred:2lev 1 512 10 1 base_mergesort1477399519
	sim-bpred -bpred 2lev -bpred:2lev 1 1024 10 1 base_mergesort1477399519
	sim-bpred -bpred 2lev -bpred:2lev 1 2048 10 1 base_mergesort1477399519
	sim-bpred -bpred 2lev -bpred:2lev 1 4096 10 1 base_mergesort1477399519
	sslittle-na-sstrix-gcc -Wall -O3 -funroll-loops -finline-functions  -DRANDOM_SIZE=2097152 -DOFFSET=1 -DSORT=base_mergesort sorts/base_mergesort857600758.c simpleMain.c -o base_mergesort1477399519
	sim-cache -cache:dl1 dl1:256:32:1:l -cache:dl2 dl2:131072:32:1:l -cache:il1 il1:256:32:1:l -cache:il2 dl2 base_mergesort1477399519
	sim-cache -cache:dl1 dl1:256:32:1:l -cache:dl2 dl2:65536:32:1:l -cache:il1 il1:256:32:1:l -cache:il2 dl2 base_mergesort1477399519
	sim-cache -cache:dl1 dl1:1:32:256:l -cache:dl2 dl2:1:32:131072:l -cache:il1 il1:1:32:256:l -cache:il2 dl2 base_mergesort1477399519
	sim-cache -cache:dl1 dl1:1:32:256:l -cache:dl2 dl2:1:32:65536:l -cache:il1 il1:1:32:256:l -cache:il2 dl2 base_mergesort1477399519
	sim-bpred -bpred bimod -bpred:bimod 512 base_mergesort1477399519
	sim-bpred -bpred bimod -bpred:bimod 1024 base_mergesort1477399519
	sim-bpred -bpred bimod -bpred:bimod 2048 base_mergesort1477399519
	sim-bpred -bpred 2lev -bpred:2lev 1 512 10 1 base_mergesort1477399519
	sim-bpred -bpred 2lev -bpred:2lev 1 1024 10 1 base_mergesort1477399519
	sim-bpred -bpred 2lev -bpred:2lev 1 2048 10 1 base_mergesort1477399519
	sim-bpred -bpred 2lev -bpred:2lev 1 4096 10 1 base_mergesort1477399519
	sslittle-na-sstrix-gcc -Wall -O3 -funroll-loops -finline-functions  -DRANDOM_SIZE=4194304 -DOFFSET=1 -DSORT=base_mergesort sorts/base_mergesort857600758.c simpleMain.c -o base_mergesort1477399519
	sim-cache -cache:dl1 dl1:256:32:1:l -cache:dl2 dl2:131072:32:1:l -cache:il1 il1:256:32:1:l -cache:il2 dl2 base_mergesort1477399519
	sim-cache -cache:dl1 dl1:256:32:1:l -cache:dl2 dl2:65536:32:1:l -cache:il1 il1:256:32:1:l -cache:il2 dl2 base_mergesort1477399519
	sim-cache -cache:dl1 dl1:1:32:256:l -cache:dl2 dl2:1:32:131072:l -cache:il1 il1:1:32:256:l -cache:il2 dl2 base_mergesort1477399519
	sim-cache -cache:dl1 dl1:1:32:256:l -cache:dl2 dl2:1:32:65536:l -cache:il1 il1:1:32:256:l -cache:il2 dl2 base_mergesort1477399519
	sim-bpred -bpred bimod -bpred:bimod 512 base_mergesort1477399519
	sim-bpred -bpred bimod -bpred:bimod 1024 base_mergesort1477399519
	sim-bpred -bpred bimod -bpred:bimod 2048 base_mergesort1477399519
	sim-bpred -bpred 2lev -bpred:2lev 1 512 10 1 base_mergesort1477399519
	sim-bpred -bpred 2lev -bpred:2lev 1 1024 10 1 base_mergesort1477399519
	sim-bpred -bpred 2lev -bpred:2lev 1 2048 10 1 base_mergesort1477399519
	sim-bpred -bpred 2lev -bpred:2lev 1 4096 10 1 base_mergesort1477399519
