Tue Jul 19 21:56:04 2005
Run as: "./do_simple -c random.org6 -o 6 base_heapsort"
-------------------------------------------------------------------------------------------------
sim-cache                                     4096 |         4096 |         4096 |         4096 |         8192 |         8192 |         8192 |         8192 |        16384 |        16384 |        16384 |        16384 |        32768 |        32768 |        32768 |        32768 |        65536 |        65536 |        65536 |        65536 |       131072 |       131072 |       131072 |       131072 |       262144 |       262144 |       262144 |       262144 |       524288 |       524288 |       524288 |       524288 |      1048576 |      1048576 |      1048576 |      1048576 |      2097152 |      2097152 |      2097152 |      2097152 |      4194304 |      4194304 |      4194304 |      4194304 |
-cache:dl1 dl1:256:32:1:l -cache:dl2 dl2:131072:32:1:l -cache:il1 il1:256:32:1:l -cache:il2 dl2
-cache:dl1 dl1:256:32:1:l -cache:dl2 dl2:65536:32:1:l -cache:il1 il1:256:32:1:l -cache:il2 dl2
-cache:dl1 dl1:1:32:256:l -cache:dl2 dl2:1:32:131072:l -cache:il1 il1:1:32:256:l -cache:il2 dl2
-cache:dl1 dl1:1:32:256:l -cache:dl2 dl2:1:32:65536:l -cache:il1 il1:1:32:256:l -cache:il2 dl2
-------------------------------------------------------------------------------------------------
sim_num_insn                                908011 |       908011 |       908011 |       908011 |      1970012 |      1970012 |      1970012 |      1970012 |      4252120 |      4252120 |      4252120 |      4252120 |      9140066 |      9140066 |      9140066 |      9140066 |     19546700 |     19546700 |     19546700 |     19546700 |     41637292 |     41637292 |     41637292 |     41637292 |     88383726 |     88383726 |     88383726 |     88383726 |    186974201 |    186974201 |    186974201 |    186974201 |    394409127 |    394409127 |    394409127 |    394409127 |    829698097 |    829698097 |    829698097 |    829698097 |   1741144786 |   1741144786 |   1741144786 |   1741144786 |
sim_num_refs                                198138 |       198138 |       198138 |       198138 |       425517 |       425517 |       425517 |       425517 |       912684 |       912684 |       912684 |       912684 |      1953339 |      1953339 |      1953339 |      1953339 |      4164160 |      4164160 |      4164160 |      4164160 |      8847970 |      8847970 |      8847970 |      8847970 |     18741143 |     18741143 |     18741143 |     18741143 |     39574391 |     39574391 |     39574391 |     39574391 |     83342449 |     83342449 |     83342449 |     83342449 |    175067603 |    175067603 |    175067603 |    175067603 |    366902846 |    366902846 |    366902846 |    366902846 |
sim_elapsed_time                                 1 |            1 |            7 |            4 |            1 |            1 |           10 |            6 |            1 |            1 |           16 |            8 |            3 |            2 |           27 |           14 |            6 |            5 |           50 |           28 |           11 |           11 |           95 |           50 |           25 |           24 |          177 |           91 |           53 |           52 |          313 |          145 |          112 |          111 |          471 |          223 |          239 |          239 |          642 |          390 |          508 |          509 |         1000 |          743 |
sim_inst_rate                          908011.0000 |  908011.0000 |  129715.8571 |  227002.7500 | 1970012.0000 | 1970012.0000 |  197001.2000 |  328335.3333 | 4252120.0000 | 4252120.0000 |  265757.5000 |  531515.0000 | 3046688.6667 | 4570033.0000 |  338520.9630 |  652861.8571 | 3257783.3333 | 3909340.0000 |  390934.0000 |  698096.4286 | 3785208.3636 | 3785208.3636 |  438287.2842 |  832745.8400 | 3535349.0400 | 3682655.2500 |  499343.0847 |  971249.7363 | 3527815.1132 | 3595657.7115 |  597361.6645 | 1289477.2483 | 3521510.0625 | 3553235.3784 |  837386.6815 | 1768650.7937 | 3471540.1548 | 3471540.1548 | 1292364.6371 | 2127431.0179 | 3427450.3661 | 3420716.6719 | 1741144.7860 | 2343398.0969 |
il1.accesses                                908011 |       908011 |       908011 |       908011 |      1970012 |      1970012 |      1970012 |      1970012 |      4252120 |      4252120 |      4252120 |      4252120 |      9140066 |      9140066 |      9140066 |      9140066 |     19546700 |     19546700 |     19546700 |     19546700 |     41637292 |     41637292 |     41637292 |     41637292 |     88383726 |     88383726 |     88383726 |     88383726 |    186974201 |    186974201 |    186974201 |    186974201 |    394409127 |    394409127 |    394409127 |    394409127 |    829698097 |    829698097 |    829698097 |    829698097 |   1741144786 |   1741144786 |   1741144786 |   1741144786 |
il1.hits                                    907530 |       907530 |       907590 |       907590 |      1969528 |      1969528 |      1969587 |      1969587 |      4251645 |      4251645 |      4251699 |      4251699 |      9139582 |      9139582 |      9139641 |      9139641 |     19546215 |     19546215 |     19546274 |     19546274 |     41636809 |     41636809 |     41636868 |     41636868 |     88383243 |     88383243 |     88383302 |     88383302 |    186973717 |    186973717 |    186973776 |    186973776 |    394408644 |    394408644 |    394408703 |    394408703 |    829697613 |    829697613 |    829697672 |    829697672 |   1741144302 |   1741144302 |   1741144361 |   1741144361 |
il1.misses                                     481 |          481 |          421 |          421 |          484 |          484 |          425 |          425 |          475 |          475 |          421 |          421 |          484 |          484 |          425 |          425 |          485 |          485 |          426 |          426 |          483 |          483 |          424 |          424 |          483 |          483 |          424 |          424 |          484 |          484 |          425 |          425 |          483 |          483 |          424 |          424 |          484 |          484 |          425 |          425 |          484 |          484 |          425 |          425 |
il1.replacements                               245 |          245 |          165 |          165 |          247 |          247 |          169 |          169 |          240 |          240 |          165 |          165 |          247 |          247 |          169 |          169 |          248 |          248 |          170 |          170 |          246 |          246 |          168 |          168 |          246 |          246 |          168 |          168 |          247 |          247 |          169 |          169 |          246 |          246 |          168 |          168 |          247 |          247 |          169 |          169 |          247 |          247 |          169 |          169 |
il1.writebacks                                   0 |            0 |            0 |            0 |            0 |            0 |            0 |            0 |            0 |            0 |            0 |            0 |            0 |            0 |            0 |            0 |            0 |            0 |            0 |            0 |            0 |            0 |            0 |            0 |            0 |            0 |            0 |            0 |            0 |            0 |            0 |            0 |            0 |            0 |            0 |            0 |            0 |            0 |            0 |            0 |            0 |            0 |            0 |            0 |
il1.invalidations                                0 |            0 |            0 |            0 |            0 |            0 |            0 |            0 |            0 |            0 |            0 |            0 |            0 |            0 |            0 |            0 |            0 |            0 |            0 |            0 |            0 |            0 |            0 |            0 |            0 |            0 |            0 |            0 |            0 |            0 |            0 |            0 |            0 |            0 |            0 |            0 |            0 |            0 |            0 |            0 |            0 |            0 |            0 |            0 |
il1.miss_rate                               0.0005 |       0.0005 |       0.0005 |       0.0005 |       0.0002 |       0.0002 |       0.0002 |       0.0002 |       0.0001 |       0.0001 |       0.0001 |       0.0001 |       0.0001 |       0.0001 |       0.0000 |       0.0000 |       0.0000 |       0.0000 |       0.0000 |       0.0000 |       0.0000 |       0.0000 |       0.0000 |       0.0000 |       0.0000 |       0.0000 |       0.0000 |       0.0000 |       0.0000 |       0.0000 |       0.0000 |       0.0000 |       0.0000 |       0.0000 |       0.0000 |       0.0000 |       0.0000 |       0.0000 |       0.0000 |       0.0000 |       0.0000 |       0.0000 |       0.0000 |       0.0000 |
il1.repl_rate                               0.0003 |       0.0003 |       0.0002 |       0.0002 |       0.0001 |       0.0001 |       0.0001 |       0.0001 |       0.0001 |       0.0001 |       0.0000 |       0.0000 |       0.0000 |       0.0000 |       0.0000 |       0.0000 |       0.0000 |       0.0000 |       0.0000 |       0.0000 |       0.0000 |       0.0000 |       0.0000 |       0.0000 |       0.0000 |       0.0000 |       0.0000 |       0.0000 |       0.0000 |       0.0000 |       0.0000 |       0.0000 |       0.0000 |       0.0000 |       0.0000 |       0.0000 |       0.0000 |       0.0000 |       0.0000 |       0.0000 |       0.0000 |       0.0000 |       0.0000 |       0.0000 |
il1.wb_rate                                 0.0000 |       0.0000 |       0.0000 |       0.0000 |       0.0000 |       0.0000 |       0.0000 |       0.0000 |       0.0000 |       0.0000 |       0.0000 |       0.0000 |       0.0000 |       0.0000 |       0.0000 |       0.0000 |       0.0000 |       0.0000 |       0.0000 |       0.0000 |       0.0000 |       0.0000 |       0.0000 |       0.0000 |       0.0000 |       0.0000 |       0.0000 |       0.0000 |       0.0000 |       0.0000 |       0.0000 |       0.0000 |       0.0000 |       0.0000 |       0.0000 |       0.0000 |       0.0000 |       0.0000 |       0.0000 |       0.0000 |       0.0000 |       0.0000 |       0.0000 |       0.0000 |
il1.inv_rate                                0.0000 |       0.0000 |       0.0000 |       0.0000 |       0.0000 |       0.0000 |       0.0000 |       0.0000 |       0.0000 |       0.0000 |       0.0000 |       0.0000 |       0.0000 |       0.0000 |       0.0000 |       0.0000 |       0.0000 |       0.0000 |       0.0000 |       0.0000 |       0.0000 |       0.0000 |       0.0000 |       0.0000 |       0.0000 |       0.0000 |       0.0000 |       0.0000 |       0.0000 |       0.0000 |       0.0000 |       0.0000 |       0.0000 |       0.0000 |       0.0000 |       0.0000 |       0.0000 |       0.0000 |       0.0000 |       0.0000 |       0.0000 |       0.0000 |       0.0000 |       0.0000 |
dl1.accesses                                214604 |       214604 |       214604 |       214604 |       458367 |       458367 |       458367 |       458367 |       978302 |       978302 |       978302 |       978302 |      2084493 |      2084493 |      2084493 |      2084493 |      4426386 |      4426386 |      4426386 |      4426386 |      9372340 |      9372340 |      9372340 |      9372340 |     19789801 |     19789801 |     19789801 |     19789801 |     41671625 |     41671625 |     41671625 |     41671625 |     87536835 |     87536835 |     87536835 |     87536835 |    183456293 |    183456293 |    183456293 |    183456293 |    383680144 |    383680144 |    383680144 |    383680144 |
dl1.hits                                    209462 |       209462 |       209429 |       209429 |       436805 |       436805 |       438378 |       438378 |       909742 |       909742 |       914526 |       914526 |      1894745 |      1894745 |      1907906 |      1907906 |      3941510 |      3941510 |      3973025 |      3973025 |      8194169 |      8194169 |      8265812 |      8265812 |     17028655 |     17028655 |     17186283 |     17186283 |     35349151 |     35349151 |     35693049 |     35693049 |     73321165 |     73321165 |     74063044 |     74063044 |    151936169 |    151936169 |    153513668 |    153513668 |    314558846 |    314558846 |    317888582 |    317888582 |
dl1.misses                                    5142 |         5142 |         5175 |         5175 |        21562 |        21562 |        19989 |        19989 |        68560 |        68560 |        63776 |        63776 |       189748 |       189748 |       176587 |       176587 |       484876 |       484876 |       453361 |       453361 |      1178171 |      1178171 |      1106528 |      1106528 |      2761146 |      2761146 |      2603518 |      2603518 |      6322474 |      6322474 |      5978576 |      5978576 |     14215670 |     14215670 |     13473791 |     13473791 |     31520124 |     31520124 |     29942625 |     29942625 |     69121298 |     69121298 |     65791562 |     65791562 |
dl1.replacements                              4886 |         4886 |         4919 |         4919 |        21306 |        21306 |        19733 |        19733 |        68304 |        68304 |        63520 |        63520 |       189492 |       189492 |       176331 |       176331 |       484620 |       484620 |       453105 |       453105 |      1177915 |      1177915 |      1106272 |      1106272 |      2760890 |      2760890 |      2603262 |      2603262 |      6322218 |      6322218 |      5978320 |      5978320 |     14215414 |     14215414 |     13473535 |     13473535 |     31519868 |     31519868 |     29942369 |     29942369 |     69121042 |     69121042 |     65791306 |     65791306 |
dl1.writebacks                                4212 |         4212 |         4305 |         4305 |        18077 |        18077 |        16731 |        16731 |        57130 |        57130 |        52842 |        52842 |       157287 |       157287 |       145280 |       145280 |       399705 |       399705 |       371015 |       371015 |       966346 |       966346 |       902158 |       902158 |      2257200 |      2257200 |      2117105 |      2117105 |      5153236 |      5153236 |      4850006 |      4850006 |     11560801 |     11560801 |     10915206 |     10915206 |     25586286 |     25586286 |     24227282 |     24227282 |     56017297 |     56017297 |     53175704 |     53175704 |
dl1.invalidations                                0 |            0 |            0 |            0 |            0 |            0 |            0 |            0 |            0 |            0 |            0 |            0 |            0 |            0 |            0 |            0 |            0 |            0 |            0 |            0 |            0 |            0 |            0 |            0 |            0 |            0 |            0 |            0 |            0 |            0 |            0 |            0 |            0 |            0 |            0 |            0 |            0 |            0 |            0 |            0 |            0 |            0 |            0 |            0 |
dl1.miss_rate                               0.0240 |       0.0240 |       0.0241 |       0.0241 |       0.0470 |       0.0470 |       0.0436 |       0.0436 |       0.0701 |       0.0701 |       0.0652 |       0.0652 |       0.0910 |       0.0910 |       0.0847 |       0.0847 |       0.1095 |       0.1095 |       0.1024 |       0.1024 |       0.1257 |       0.1257 |       0.1181 |       0.1181 |       0.1395 |       0.1395 |       0.1316 |       0.1316 |       0.1517 |       0.1517 |       0.1435 |       0.1435 |       0.1624 |       0.1624 |       0.1539 |       0.1539 |       0.1718 |       0.1718 |       0.1632 |       0.1632 |       0.1802 |       0.1802 |       0.1715 |       0.1715 |
dl1.repl_rate                               0.0228 |       0.0228 |       0.0229 |       0.0229 |       0.0465 |       0.0465 |       0.0431 |       0.0431 |       0.0698 |       0.0698 |       0.0649 |       0.0649 |       0.0909 |       0.0909 |       0.0846 |       0.0846 |       0.1095 |       0.1095 |       0.1024 |       0.1024 |       0.1257 |       0.1257 |       0.1180 |       0.1180 |       0.1395 |       0.1395 |       0.1315 |       0.1315 |       0.1517 |       0.1517 |       0.1435 |       0.1435 |       0.1624 |       0.1624 |       0.1539 |       0.1539 |       0.1718 |       0.1718 |       0.1632 |       0.1632 |       0.1802 |       0.1802 |       0.1715 |       0.1715 |
dl1.wb_rate                                 0.0196 |       0.0196 |       0.0201 |       0.0201 |       0.0394 |       0.0394 |       0.0365 |       0.0365 |       0.0584 |       0.0584 |       0.0540 |       0.0540 |       0.0755 |       0.0755 |       0.0697 |       0.0697 |       0.0903 |       0.0903 |       0.0838 |       0.0838 |       0.1031 |       0.1031 |       0.0963 |       0.0963 |       0.1141 |       0.1141 |       0.1070 |       0.1070 |       0.1237 |       0.1237 |       0.1164 |       0.1164 |       0.1321 |       0.1321 |       0.1247 |       0.1247 |       0.1395 |       0.1395 |       0.1321 |       0.1321 |       0.1460 |       0.1460 |       0.1386 |       0.1386 |
dl1.inv_rate                                0.0000 |       0.0000 |       0.0000 |       0.0000 |       0.0000 |       0.0000 |       0.0000 |       0.0000 |       0.0000 |       0.0000 |       0.0000 |       0.0000 |       0.0000 |       0.0000 |       0.0000 |       0.0000 |       0.0000 |       0.0000 |       0.0000 |       0.0000 |       0.0000 |       0.0000 |       0.0000 |       0.0000 |       0.0000 |       0.0000 |       0.0000 |       0.0000 |       0.0000 |       0.0000 |       0.0000 |       0.0000 |       0.0000 |       0.0000 |       0.0000 |       0.0000 |       0.0000 |       0.0000 |       0.0000 |       0.0000 |       0.0000 |       0.0000 |       0.0000 |       0.0000 |
dl2.accesses                                  9835 |         9835 |         9901 |         9901 |        40123 |        40123 |        37145 |        37145 |       126165 |       126165 |       117039 |       117039 |       347519 |       347519 |       322292 |       322292 |       885066 |       885066 |       824802 |       824802 |      2145000 |      2145000 |      2009110 |      2009110 |      5018829 |      5018829 |      4721047 |      4721047 |     11476194 |     11476194 |     10829007 |     10829007 |     25776954 |     25776954 |     24389421 |     24389421 |     57106894 |     57106894 |     54170332 |     54170332 |    125139079 |    125139079 |    118967691 |    118967691 |
dl2.hits                                      8486 |         8486 |         8557 |         8557 |        38259 |        38259 |        35286 |        35286 |       123282 |       123282 |       114162 |       114162 |       342584 |       342584 |       317361 |       317361 |       876034 |       876034 |       815774 |       815774 |      2127778 |      2127778 |      1991892 |      1991892 |      4985223 |      4985223 |      4687445 |      4687445 |     11409819 |     11409676 |     10762636 |     10761788 |     25644902 |     24656380 |     24256364 |     23193917 |     54868899 |     51926477 |     51780985 |     49189166 |    114781411 |    108300712 |    109001753 |    102917630 |
dl2.misses                                    1349 |         1349 |         1344 |         1344 |         1864 |         1864 |         1859 |         1859 |         2883 |         2883 |         2877 |         2877 |         4935 |         4935 |         4931 |         4931 |         9032 |         9032 |         9028 |         9028 |        17222 |        17222 |        17218 |        17218 |        33606 |        33606 |        33602 |        33602 |        66375 |        66518 |        66371 |        67219 |       132052 |      1120574 |       133057 |      1195504 |      2237995 |      5180417 |      2389347 |      4981166 |     10357668 |     16838367 |      9965938 |     16050061 |
dl2.replacements                                44 |           44 |            0 |            0 |           47 |           47 |            0 |            0 |           49 |           49 |            0 |            0 |           46 |           46 |            0 |            0 |           46 |           46 |            0 |            0 |           46 |           46 |            0 |            0 |           46 |           46 |            0 |            0 |           46 |          982 |            0 |         1683 |          980 |      1055038 |         1985 |      1129968 |      2106923 |      5114881 |      2258275 |      4915630 |     10226596 |     16772831 |      9834866 |     15984525 |
dl2.writebacks                                   3 |            3 |            0 |            0 |            1 |            1 |            0 |            0 |            1 |            1 |            0 |            0 |            2 |            2 |            0 |            0 |            2 |            2 |            0 |            0 |            2 |            2 |            0 |            0 |            2 |            2 |            0 |            0 |            2 |          759 |            0 |         1495 |          758 |       906668 |         1798 |       978415 |      1811065 |      4348309 |      1956081 |      4149111 |      8694039 |     14101503 |      8302111 |     13289770 |
dl2.invalidations                                0 |            0 |            0 |            0 |            0 |            0 |            0 |            0 |            0 |            0 |            0 |            0 |            0 |            0 |            0 |            0 |            0 |            0 |            0 |            0 |            0 |            0 |            0 |            0 |            0 |            0 |            0 |            0 |            0 |            0 |            0 |            0 |            0 |            0 |            0 |            0 |            0 |            0 |            0 |            0 |            0 |            0 |            0 |            0 |
dl2.miss_rate                               0.1372 |       0.1372 |       0.1357 |       0.1357 |       0.0465 |       0.0465 |       0.0500 |       0.0500 |       0.0229 |       0.0229 |       0.0246 |       0.0246 |       0.0142 |       0.0142 |       0.0153 |       0.0153 |       0.0102 |       0.0102 |       0.0109 |       0.0109 |       0.0080 |       0.0080 |       0.0086 |       0.0086 |       0.0067 |       0.0067 |       0.0071 |       0.0071 |       0.0058 |       0.0058 |       0.0061 |       0.0062 |       0.0051 |       0.0435 |       0.0055 |       0.0490 |       0.0392 |       0.0907 |       0.0441 |       0.0920 |       0.0828 |       0.1346 |       0.0838 |       0.1349 |
dl2.repl_rate                               0.0045 |       0.0045 |       0.0000 |       0.0000 |       0.0012 |       0.0012 |       0.0000 |       0.0000 |       0.0004 |       0.0004 |       0.0000 |       0.0000 |       0.0001 |       0.0001 |       0.0000 |       0.0000 |       0.0001 |       0.0001 |       0.0000 |       0.0000 |       0.0000 |       0.0000 |       0.0000 |       0.0000 |       0.0000 |       0.0000 |       0.0000 |       0.0000 |       0.0000 |       0.0001 |       0.0000 |       0.0002 |       0.0000 |       0.0409 |       0.0001 |       0.0463 |       0.0369 |       0.0896 |       0.0417 |       0.0907 |       0.0817 |       0.1340 |       0.0827 |       0.1344 |
dl2.wb_rate                                 0.0003 |       0.0003 |       0.0000 |       0.0000 |       0.0000 |       0.0000 |       0.0000 |       0.0000 |       0.0000 |       0.0000 |       0.0000 |       0.0000 |       0.0000 |       0.0000 |       0.0000 |       0.0000 |       0.0000 |       0.0000 |       0.0000 |       0.0000 |       0.0000 |       0.0000 |       0.0000 |       0.0000 |       0.0000 |       0.0000 |       0.0000 |       0.0000 |       0.0000 |       0.0001 |       0.0000 |       0.0001 |       0.0000 |       0.0352 |       0.0001 |       0.0401 |       0.0317 |       0.0761 |       0.0361 |       0.0766 |       0.0695 |       0.1127 |       0.0698 |       0.1117 |
dl2.inv_rate                                0.0000 |       0.0000 |       0.0000 |       0.0000 |       0.0000 |       0.0000 |       0.0000 |       0.0000 |       0.0000 |       0.0000 |       0.0000 |       0.0000 |       0.0000 |       0.0000 |       0.0000 |       0.0000 |       0.0000 |       0.0000 |       0.0000 |       0.0000 |       0.0000 |       0.0000 |       0.0000 |       0.0000 |       0.0000 |       0.0000 |       0.0000 |       0.0000 |       0.0000 |       0.0000 |       0.0000 |       0.0000 |       0.0000 |       0.0000 |       0.0000 |       0.0000 |       0.0000 |       0.0000 |       0.0000 |       0.0000 |       0.0000 |       0.0000 |       0.0000 |       0.0000 |
itlb.accesses                               908011 |       908011 |       908011 |       908011 |      1970012 |      1970012 |      1970012 |      1970012 |      4252120 |      4252120 |      4252120 |      4252120 |      9140066 |      9140066 |      9140066 |      9140066 |     19546700 |     19546700 |     19546700 |     19546700 |     41637292 |     41637292 |     41637292 |     41637292 |     88383726 |     88383726 |     88383726 |     88383726 |    186974201 |    186974201 |    186974201 |    186974201 |    394409127 |    394409127 |    394409127 |    394409127 |    829698097 |    829698097 |    829698097 |    829698097 |   1741144786 |   1741144786 |   1741144786 |   1741144786 |
itlb.hits                                   908001 |       908001 |       908001 |       908001 |      1970002 |      1970002 |      1970002 |      1970002 |      4252110 |      4252110 |      4252110 |      4252110 |      9140056 |      9140056 |      9140056 |      9140056 |     19546690 |     19546690 |     19546690 |     19546690 |     41637282 |     41637282 |     41637282 |     41637282 |     88383716 |     88383716 |     88383716 |     88383716 |    186974191 |    186974191 |    186974191 |    186974191 |    394409117 |    394409117 |    394409117 |    394409117 |    829698087 |    829698087 |    829698087 |    829698087 |   1741144776 |   1741144776 |   1741144776 |   1741144776 |
itlb.misses                                     10 |           10 |           10 |           10 |           10 |           10 |           10 |           10 |           10 |           10 |           10 |           10 |           10 |           10 |           10 |           10 |           10 |           10 |           10 |           10 |           10 |           10 |           10 |           10 |           10 |           10 |           10 |           10 |           10 |           10 |           10 |           10 |           10 |           10 |           10 |           10 |           10 |           10 |           10 |           10 |           10 |           10 |           10 |           10 |
itlb.replacements                                0 |            0 |            0 |            0 |            0 |            0 |            0 |            0 |            0 |            0 |            0 |            0 |            0 |            0 |            0 |            0 |            0 |            0 |            0 |            0 |            0 |            0 |            0 |            0 |            0 |            0 |            0 |            0 |            0 |            0 |            0 |            0 |            0 |            0 |            0 |            0 |            0 |            0 |            0 |            0 |            0 |            0 |            0 |            0 |
itlb.writebacks                                  0 |            0 |            0 |            0 |            0 |            0 |            0 |            0 |            0 |            0 |            0 |            0 |            0 |            0 |            0 |            0 |            0 |            0 |            0 |            0 |            0 |            0 |            0 |            0 |            0 |            0 |            0 |            0 |            0 |            0 |            0 |            0 |            0 |            0 |            0 |            0 |            0 |            0 |            0 |            0 |            0 |            0 |            0 |            0 |
itlb.invalidations                               0 |            0 |            0 |            0 |            0 |            0 |            0 |            0 |            0 |            0 |            0 |            0 |            0 |            0 |            0 |            0 |            0 |            0 |            0 |            0 |            0 |            0 |            0 |            0 |            0 |            0 |            0 |            0 |            0 |            0 |            0 |            0 |            0 |            0 |            0 |            0 |            0 |            0 |            0 |            0 |            0 |            0 |            0 |            0 |
itlb.miss_rate                              0.0000 |       0.0000 |       0.0000 |       0.0000 |       0.0000 |       0.0000 |       0.0000 |       0.0000 |       0.0000 |       0.0000 |       0.0000 |       0.0000 |       0.0000 |       0.0000 |       0.0000 |       0.0000 |       0.0000 |       0.0000 |       0.0000 |       0.0000 |       0.0000 |       0.0000 |       0.0000 |       0.0000 |       0.0000 |       0.0000 |       0.0000 |       0.0000 |       0.0000 |       0.0000 |       0.0000 |       0.0000 |       0.0000 |       0.0000 |       0.0000 |       0.0000 |       0.0000 |       0.0000 |       0.0000 |       0.0000 |       0.0000 |       0.0000 |       0.0000 |       0.0000 |
itlb.repl_rate                              0.0000 |       0.0000 |       0.0000 |       0.0000 |       0.0000 |       0.0000 |       0.0000 |       0.0000 |       0.0000 |       0.0000 |       0.0000 |       0.0000 |       0.0000 |       0.0000 |       0.0000 |       0.0000 |       0.0000 |       0.0000 |       0.0000 |       0.0000 |       0.0000 |       0.0000 |       0.0000 |       0.0000 |       0.0000 |       0.0000 |       0.0000 |       0.0000 |       0.0000 |       0.0000 |       0.0000 |       0.0000 |       0.0000 |       0.0000 |       0.0000 |       0.0000 |       0.0000 |       0.0000 |       0.0000 |       0.0000 |       0.0000 |       0.0000 |       0.0000 |       0.0000 |
itlb.wb_rate                                0.0000 |       0.0000 |       0.0000 |       0.0000 |       0.0000 |       0.0000 |       0.0000 |       0.0000 |       0.0000 |       0.0000 |       0.0000 |       0.0000 |       0.0000 |       0.0000 |       0.0000 |       0.0000 |       0.0000 |       0.0000 |       0.0000 |       0.0000 |       0.0000 |       0.0000 |       0.0000 |       0.0000 |       0.0000 |       0.0000 |       0.0000 |       0.0000 |       0.0000 |       0.0000 |       0.0000 |       0.0000 |       0.0000 |       0.0000 |       0.0000 |       0.0000 |       0.0000 |       0.0000 |       0.0000 |       0.0000 |       0.0000 |       0.0000 |       0.0000 |       0.0000 |
itlb.inv_rate                               0.0000 |       0.0000 |       0.0000 |       0.0000 |       0.0000 |       0.0000 |       0.0000 |       0.0000 |       0.0000 |       0.0000 |       0.0000 |       0.0000 |       0.0000 |       0.0000 |       0.0000 |       0.0000 |       0.0000 |       0.0000 |       0.0000 |       0.0000 |       0.0000 |       0.0000 |       0.0000 |       0.0000 |       0.0000 |       0.0000 |       0.0000 |       0.0000 |       0.0000 |       0.0000 |       0.0000 |       0.0000 |       0.0000 |       0.0000 |       0.0000 |       0.0000 |       0.0000 |       0.0000 |       0.0000 |       0.0000 |       0.0000 |       0.0000 |       0.0000 |       0.0000 |
dtlb.accesses                               214604 |       214604 |       214604 |       214604 |       458367 |       458367 |       458367 |       458367 |       978302 |       978302 |       978302 |       978302 |      2084493 |      2084493 |      2084493 |      2084493 |      4426386 |      4426386 |      4426386 |      4426386 |      9372340 |      9372340 |      9372340 |      9372340 |     19789801 |     19789801 |     19789801 |     19789801 |     41671625 |     41671625 |     41671625 |     41671625 |     87536835 |     87536835 |     87536835 |     87536835 |    183456293 |    183456293 |    183456293 |    183456293 |    383680144 |    383680144 |    383680144 |    383680144 |
dtlb.hits                                   214593 |       214593 |       214593 |       214593 |       458352 |       458352 |       458352 |       458352 |       978279 |       978279 |       978279 |       978279 |      2084454 |      2084454 |      2084454 |      2084454 |      4426315 |      4426315 |      4426315 |      4426315 |      9372173 |      9372173 |      9372173 |      9372173 |     19682567 |     19682567 |     19682567 |     19682567 |     40970283 |     40970283 |     40970283 |     40970283 |     84936721 |     84936721 |     84936721 |     84936721 |    175691509 |    175691509 |    175691509 |    175691509 |    362970695 |    362970695 |    362970695 |    362970695 |
dtlb.misses                                     11 |           11 |           11 |           11 |           15 |           15 |           15 |           15 |           23 |           23 |           23 |           23 |           39 |           39 |           39 |           39 |           71 |           71 |           71 |           71 |          167 |          167 |          167 |          167 |       107234 |       107234 |       107234 |       107234 |       701342 |       701342 |       701342 |       701342 |      2600114 |      2600114 |      2600114 |      2600114 |      7764784 |      7764784 |      7764784 |      7764784 |     20709449 |     20709449 |     20709449 |     20709449 |
dtlb.replacements                                0 |            0 |            0 |            0 |            0 |            0 |            0 |            0 |            0 |            0 |            0 |            0 |            0 |            0 |            0 |            0 |            0 |            0 |            0 |            0 |           39 |           39 |           39 |           39 |       107106 |       107106 |       107106 |       107106 |       701214 |       701214 |       701214 |       701214 |      2599986 |      2599986 |      2599986 |      2599986 |      7764656 |      7764656 |      7764656 |      7764656 |     20709321 |     20709321 |     20709321 |     20709321 |
dtlb.writebacks                                  0 |            0 |            0 |            0 |            0 |            0 |            0 |            0 |            0 |            0 |            0 |            0 |            0 |            0 |            0 |            0 |            0 |            0 |            0 |            0 |           35 |           35 |           35 |           35 |       100314 |       100314 |       100314 |       100314 |       664478 |       664478 |       664478 |       664478 |      2489471 |      2489471 |      2489471 |      2489471 |      7493515 |      7493515 |      7493515 |      7493515 |     20103059 |     20103059 |     20103059 |     20103059 |
dtlb.invalidations                               0 |            0 |            0 |            0 |            0 |            0 |            0 |            0 |            0 |            0 |            0 |            0 |            0 |            0 |            0 |            0 |            0 |            0 |            0 |            0 |            0 |            0 |            0 |            0 |            0 |            0 |            0 |            0 |            0 |            0 |            0 |            0 |            0 |            0 |            0 |            0 |            0 |            0 |            0 |            0 |            0 |            0 |            0 |            0 |
dtlb.miss_rate                              0.0001 |       0.0001 |       0.0001 |       0.0001 |       0.0000 |       0.0000 |       0.0000 |       0.0000 |       0.0000 |       0.0000 |       0.0000 |       0.0000 |       0.0000 |       0.0000 |       0.0000 |       0.0000 |       0.0000 |       0.0000 |       0.0000 |       0.0000 |       0.0000 |       0.0000 |       0.0000 |       0.0000 |       0.0054 |       0.0054 |       0.0054 |       0.0054 |       0.0168 |       0.0168 |       0.0168 |       0.0168 |       0.0297 |       0.0297 |       0.0297 |       0.0297 |       0.0423 |       0.0423 |       0.0423 |       0.0423 |       0.0540 |       0.0540 |       0.0540 |       0.0540 |
dtlb.repl_rate                              0.0000 |       0.0000 |       0.0000 |       0.0000 |       0.0000 |       0.0000 |       0.0000 |       0.0000 |       0.0000 |       0.0000 |       0.0000 |       0.0000 |       0.0000 |       0.0000 |       0.0000 |       0.0000 |       0.0000 |       0.0000 |       0.0000 |       0.0000 |       0.0000 |       0.0000 |       0.0000 |       0.0000 |       0.0054 |       0.0054 |       0.0054 |       0.0054 |       0.0168 |       0.0168 |       0.0168 |       0.0168 |       0.0297 |       0.0297 |       0.0297 |       0.0297 |       0.0423 |       0.0423 |       0.0423 |       0.0423 |       0.0540 |       0.0540 |       0.0540 |       0.0540 |
dtlb.wb_rate                                0.0000 |       0.0000 |       0.0000 |       0.0000 |       0.0000 |       0.0000 |       0.0000 |       0.0000 |       0.0000 |       0.0000 |       0.0000 |       0.0000 |       0.0000 |       0.0000 |       0.0000 |       0.0000 |       0.0000 |       0.0000 |       0.0000 |       0.0000 |       0.0000 |       0.0000 |       0.0000 |       0.0000 |       0.0051 |       0.0051 |       0.0051 |       0.0051 |       0.0159 |       0.0159 |       0.0159 |       0.0159 |       0.0284 |       0.0284 |       0.0284 |       0.0284 |       0.0408 |       0.0408 |       0.0408 |       0.0408 |       0.0524 |       0.0524 |       0.0524 |       0.0524 |
dtlb.inv_rate                               0.0000 |       0.0000 |       0.0000 |       0.0000 |       0.0000 |       0.0000 |       0.0000 |       0.0000 |       0.0000 |       0.0000 |       0.0000 |       0.0000 |       0.0000 |       0.0000 |       0.0000 |       0.0000 |       0.0000 |       0.0000 |       0.0000 |       0.0000 |       0.0000 |       0.0000 |       0.0000 |       0.0000 |       0.0000 |       0.0000 |       0.0000 |       0.0000 |       0.0000 |       0.0000 |       0.0000 |       0.0000 |       0.0000 |       0.0000 |       0.0000 |       0.0000 |       0.0000 |       0.0000 |       0.0000 |       0.0000 |       0.0000 |       0.0000 |       0.0000 |       0.0000 |
ld_text_base                            0x00400000 |   0x00400000 |   0x00400000 |   0x00400000 |   0x00400000 |   0x00400000 |   0x00400000 |   0x00400000 |   0x00400000 |   0x00400000 |   0x00400000 |   0x00400000 |   0x00400000 |   0x00400000 |   0x00400000 |   0x00400000 |   0x00400000 |   0x00400000 |   0x00400000 |   0x00400000 |   0x00400000 |   0x00400000 |   0x00400000 |   0x00400000 |   0x00400000 |   0x00400000 |   0x00400000 |   0x00400000 |   0x00400000 |   0x00400000 |   0x00400000 |   0x00400000 |   0x00400000 |   0x00400000 |   0x00400000 |   0x00400000 |   0x00400000 |   0x00400000 |   0x00400000 |   0x00400000 |   0x00400000 |   0x00400000 |   0x00400000 |   0x00400000 |
ld_text_size                                 74736 |        74736 |        74736 |        74736 |        74768 |        74768 |        74768 |        74768 |        74784 |        74784 |        74784 |        74784 |        74800 |        74800 |        74800 |        74800 |        74800 |        74800 |        74800 |        74800 |        74800 |        74800 |        74800 |        74800 |        74800 |        74800 |        74800 |        74800 |        74800 |        74800 |        74800 |        74800 |        74800 |        74800 |        74800 |        74800 |        74800 |        74800 |        74800 |        74800 |        74800 |        74800 |        74800 |        74800 |
ld_data_base                            0x10000000 |   0x10000000 |   0x10000000 |   0x10000000 |   0x10000000 |   0x10000000 |   0x10000000 |   0x10000000 |   0x10000000 |   0x10000000 |   0x10000000 |   0x10000000 |   0x10000000 |   0x10000000 |   0x10000000 |   0x10000000 |   0x10000000 |   0x10000000 |   0x10000000 |   0x10000000 |   0x10000000 |   0x10000000 |   0x10000000 |   0x10000000 |   0x10000000 |   0x10000000 |   0x10000000 |   0x10000000 |   0x10000000 |   0x10000000 |   0x10000000 |   0x10000000 |   0x10000000 |   0x10000000 |   0x10000000 |   0x10000000 |   0x10000000 |   0x10000000 |   0x10000000 |   0x10000000 |   0x10000000 |   0x10000000 |   0x10000000 |   0x10000000 |
ld_data_size                                  8192 |         8192 |         8192 |         8192 |         8192 |         8192 |         8192 |         8192 |         8192 |         8192 |         8192 |         8192 |         8192 |         8192 |         8192 |         8192 |         8192 |         8192 |         8192 |         8192 |         8192 |         8192 |         8192 |         8192 |         8192 |         8192 |         8192 |         8192 |         8192 |         8192 |         8192 |         8192 |         8192 |         8192 |         8192 |         8192 |         8192 |         8192 |         8192 |         8192 |         8192 |         8192 |         8192 |         8192 |
ld_stack_base                           0x7fffc000 |   0x7fffc000 |   0x7fffc000 |   0x7fffc000 |   0x7fffc000 |   0x7fffc000 |   0x7fffc000 |   0x7fffc000 |   0x7fffc000 |   0x7fffc000 |   0x7fffc000 |   0x7fffc000 |   0x7fffc000 |   0x7fffc000 |   0x7fffc000 |   0x7fffc000 |   0x7fffc000 |   0x7fffc000 |   0x7fffc000 |   0x7fffc000 |   0x7fffc000 |   0x7fffc000 |   0x7fffc000 |   0x7fffc000 |   0x7fffc000 |   0x7fffc000 |   0x7fffc000 |   0x7fffc000 |   0x7fffc000 |   0x7fffc000 |   0x7fffc000 |   0x7fffc000 |   0x7fffc000 |   0x7fffc000 |   0x7fffc000 |   0x7fffc000 |   0x7fffc000 |   0x7fffc000 |   0x7fffc000 |   0x7fffc000 |   0x7fffc000 |   0x7fffc000 |   0x7fffc000 |   0x7fffc000 |
ld_stack_size                                16384 |        16384 |        16384 |        16384 |        16384 |        16384 |        16384 |        16384 |        16384 |        16384 |        16384 |        16384 |        16384 |        16384 |        16384 |        16384 |        16384 |        16384 |        16384 |        16384 |        16384 |        16384 |        16384 |        16384 |        16384 |        16384 |        16384 |        16384 |        16384 |        16384 |        16384 |        16384 |        16384 |        16384 |        16384 |        16384 |        16384 |        16384 |        16384 |        16384 |        16384 |        16384 |        16384 |        16384 |
ld_prog_entry                           0x00400140 |   0x00400140 |   0x00400140 |   0x00400140 |   0x00400140 |   0x00400140 |   0x00400140 |   0x00400140 |   0x00400140 |   0x00400140 |   0x00400140 |   0x00400140 |   0x00400140 |   0x00400140 |   0x00400140 |   0x00400140 |   0x00400140 |   0x00400140 |   0x00400140 |   0x00400140 |   0x00400140 |   0x00400140 |   0x00400140 |   0x00400140 |   0x00400140 |   0x00400140 |   0x00400140 |   0x00400140 |   0x00400140 |   0x00400140 |   0x00400140 |   0x00400140 |   0x00400140 |   0x00400140 |   0x00400140 |   0x00400140 |   0x00400140 |   0x00400140 |   0x00400140 |   0x00400140 |   0x00400140 |   0x00400140 |   0x00400140 |   0x00400140 |
ld_environ_base                         0x7fff8000 |   0x7fff8000 |   0x7fff8000 |   0x7fff8000 |   0x7fff8000 |   0x7fff8000 |   0x7fff8000 |   0x7fff8000 |   0x7fff8000 |   0x7fff8000 |   0x7fff8000 |   0x7fff8000 |   0x7fff8000 |   0x7fff8000 |   0x7fff8000 |   0x7fff8000 |   0x7fff8000 |   0x7fff8000 |   0x7fff8000 |   0x7fff8000 |   0x7fff8000 |   0x7fff8000 |   0x7fff8000 |   0x7fff8000 |   0x7fff8000 |   0x7fff8000 |   0x7fff8000 |   0x7fff8000 |   0x7fff8000 |   0x7fff8000 |   0x7fff8000 |   0x7fff8000 |   0x7fff8000 |   0x7fff8000 |   0x7fff8000 |   0x7fff8000 |   0x7fff8000 |   0x7fff8000 |   0x7fff8000 |   0x7fff8000 |   0x7fff8000 |   0x7fff8000 |   0x7fff8000 |   0x7fff8000 |
ld_target_big_endian                             0 |            0 |            0 |            0 |            0 |            0 |            0 |            0 |            0 |            0 |            0 |            0 |            0 |            0 |            0 |            0 |            0 |            0 |            0 |            0 |            0 |            0 |            0 |            0 |            0 |            0 |            0 |            0 |            0 |            0 |            0 |            0 |            0 |            0 |            0 |            0 |            0 |            0 |            0 |            0 |            0 |            0 |            0 |            0 |
mem.page_count                                  30 |           30 |           30 |           30 |           34 |           34 |           34 |           34 |           42 |           42 |           42 |           42 |           58 |           58 |           58 |           58 |           90 |           90 |           90 |           90 |          154 |          154 |          154 |          154 |          282 |          282 |          282 |          282 |          538 |          538 |          538 |          538 |         1050 |         1050 |         1050 |         1050 |         2074 |         2074 |         2074 |         2074 |         4122 |         4122 |         4122 |         4122 |
mem.page_mem                                  120k |         120k |         120k |         120k |         136k |         136k |         136k |         136k |         168k |         168k |         168k |         168k |         232k |         232k |         232k |         232k |         360k |         360k |         360k |         360k |         616k |         616k |         616k |         616k |        1128k |        1128k |        1128k |        1128k |        2152k |        2152k |        2152k |        2152k |        4200k |        4200k |        4200k |        4200k |        8296k |        8296k |        8296k |        8296k |       16488k |       16488k |       16488k |       16488k |
mem.ptab_misses                                 30 |           30 |           30 |           30 |           34 |           34 |           34 |           34 |           42 |           42 |           42 |           42 |           58 |           58 |           58 |           58 |           90 |           90 |           90 |           90 |          154 |          154 |          154 |          154 |          282 |          282 |          282 |          282 |          538 |          538 |          538 |          538 |         1050 |         1050 |         1050 |         1050 |         2074 |         2074 |         2074 |         2074 |         4122 |         4122 |         4122 |         4122 |
mem.ptab_accesses                          4524244 |      4524244 |      4524244 |      4524244 |      9259966 |      9259966 |      9259966 |      9259966 |     19428364 |     19428364 |     19428364 |     19428364 |     41192626 |     41192626 |     41192626 |     41192626 |     87502948 |     87502948 |     87502948 |     87502948 |    185757224 |    185757224 |    185757224 |    185757224 |    393577882 |    393577882 |    393577882 |    393577882 |    831703430 |    831703430 |    831703430 |    831703430 |   1753173554 |   1753173554 |   1753173554 |   1753173554 |   3686168350 |   3686168350 |   3686168350 |   3686168350 |   7732402808 |   7732402808 |   7732402808 |   7732402808 |
mem.ptab_miss_rate                          0.0000 |       0.0000 |       0.0000 |       0.0000 |       0.0000 |       0.0000 |       0.0000 |       0.0000 |       0.0000 |       0.0000 |       0.0000 |       0.0000 |       0.0000 |       0.0000 |       0.0000 |       0.0000 |       0.0000 |       0.0000 |       0.0000 |       0.0000 |       0.0000 |       0.0000 |       0.0000 |       0.0000 |       0.0000 |       0.0000 |       0.0000 |       0.0000 |       0.0000 |       0.0000 |       0.0000 |       0.0000 |       0.0000 |       0.0000 |       0.0000 |       0.0000 |       0.0000 |       0.0000 |       0.0000 |       0.0000 |       0.0000 |       0.0000 |       0.0000 |       0.0000 |
-------------------------------------------------------------------------------------------------
sim-bpred                                     4096 |         4096 |         4096 |         4096 |         4096 |         4096 |         4096 |         8192 |         8192 |         8192 |         8192 |         8192 |         8192 |         8192 |        16384 |        16384 |        16384 |        16384 |        16384 |        16384 |        16384 |        32768 |        32768 |        32768 |        32768 |        32768 |        32768 |        32768 |        65536 |        65536 |        65536 |        65536 |        65536 |        65536 |        65536 |       131072 |       131072 |       131072 |       131072 |       131072 |       131072 |       131072 |       262144 |       262144 |       262144 |       262144 |       262144 |       262144 |       262144 |       524288 |       524288 |       524288 |       524288 |       524288 |       524288 |       524288 |      1048576 |      1048576 |      1048576 |      1048576 |      1048576 |      1048576 |      1048576 |      2097152 |      2097152 |      2097152 |      2097152 |      2097152 |      2097152 |      2097152 |      4194304 |      4194304 |      4194304 |      4194304 |      4194304 |      4194304 |      4194304 |
-bpred bimod -bpred:bimod 512
-bpred bimod -bpred:bimod 1024
-bpred bimod -bpred:bimod 2048
-bpred 2lev -bpred:2lev 1 512 10 1
-bpred 2lev -bpred:2lev 1 1024 10 1
-bpred 2lev -bpred:2lev 1 2048 10 1
-bpred 2lev -bpred:2lev 1 4096 10 1
-------------------------------------------------------------------------------------------------
sim_num_insn                                908011 |       908011 |       908011 |       908011 |       908011 |       908011 |       908011 |      1970012 |      1970012 |      1970012 |      1970012 |      1970012 |      1970012 |      1970012 |      4252120 |      4252120 |      4252120 |      4252120 |      4252120 |      4252120 |      4252120 |      9140066 |      9140066 |      9140066 |      9140066 |      9140066 |      9140066 |      9140066 |     19546700 |     19546700 |     19546700 |     19546700 |     19546700 |     19546700 |     19546700 |     41637292 |     41637292 |     41637292 |     41637292 |     41637292 |     41637292 |     41637292 |     88383726 |     88383726 |     88383726 |     88383726 |     88383726 |     88383726 |     88383726 |    186974201 |    186974201 |    186974201 |    186974201 |    186974201 |    186974201 |    186974201 |    394409127 |    394409127 |    394409127 |    394409127 |    394409127 |    394409127 |    394409127 |    829698097 |    829698097 |    829698097 |    829698097 |    829698097 |    829698097 |    829698097 |   1741144786 |   1741144786 |   1741144786 |   1741144786 |   1741144786 |   1741144786 |   1741144786 |
sim_num_refs                                198138 |       198138 |       198138 |       198138 |       198138 |       198138 |       198138 |       425517 |       425517 |       425517 |       425517 |       425517 |       425517 |       425517 |       912684 |       912684 |       912684 |       912684 |       912684 |       912684 |       912684 |      1953339 |      1953339 |      1953339 |      1953339 |      1953339 |      1953339 |      1953339 |      4164160 |      4164160 |      4164160 |      4164160 |      4164160 |      4164160 |      4164160 |      8847970 |      8847970 |      8847970 |      8847970 |      8847970 |      8847970 |      8847970 |     18741143 |     18741143 |     18741143 |     18741143 |     18741143 |     18741143 |     18741143 |     39574391 |     39574391 |     39574391 |     39574391 |     39574391 |     39574391 |     39574391 |     83342449 |     83342449 |     83342449 |     83342449 |     83342449 |     83342449 |     83342449 |    175067603 |    175067603 |    175067603 |    175067603 |    175067603 |    175067603 |    175067603 |    366902846 |    366902846 |    366902846 |    366902846 |    366902846 |    366902846 |    366902846 |
sim_elapsed_time                                 1 |            1 |            1 |            1 |            1 |            1 |            1 |            1 |            1 |            1 |            1 |            1 |            1 |            1 |            1 |            1 |            1 |            1 |            1 |            1 |            1 |            1 |            2 |            1 |            1 |            1 |            1 |            1 |            2 |            2 |            3 |            2 |            3 |            2 |            2 |            5 |            5 |            5 |            5 |            5 |            5 |            5 |           11 |           11 |           10 |           11 |           11 |           11 |           11 |           23 |           23 |           23 |           23 |           24 |           23 |           23 |           49 |           49 |           49 |           49 |           50 |           49 |           50 |          103 |          103 |          104 |          103 |          104 |          105 |          104 |          218 |          219 |          220 |          219 |          220 |          222 |          220 |
sim_inst_rate                          908011.0000 |  908011.0000 |  908011.0000 |  908011.0000 |  908011.0000 |  908011.0000 |  908011.0000 | 1970012.0000 | 1970012.0000 | 1970012.0000 | 1970012.0000 | 1970012.0000 | 1970012.0000 | 1970012.0000 | 4252120.0000 | 4252120.0000 | 4252120.0000 | 4252120.0000 | 4252120.0000 | 4252120.0000 | 4252120.0000 | 9140066.0000 | 4570033.0000 | 9140066.0000 | 9140066.0000 | 9140066.0000 | 9140066.0000 | 9140066.0000 | 9773350.0000 | 9773350.0000 | 6515566.6667 | 9773350.0000 | 6515566.6667 | 9773350.0000 | 9773350.0000 | 8327458.4000 | 8327458.4000 | 8327458.4000 | 8327458.4000 | 8327458.4000 | 8327458.4000 | 8327458.4000 | 8034884.1818 | 8034884.1818 | 8838372.6000 | 8034884.1818 | 8034884.1818 | 8034884.1818 | 8034884.1818 | 8129313.0870 | 8129313.0870 | 8129313.0870 | 8129313.0870 | 7790591.7083 | 8129313.0870 | 8129313.0870 | 8049165.8571 | 8049165.8571 | 8049165.8571 | 8049165.8571 | 7888182.5400 | 8049165.8571 | 7888182.5400 | 8055321.3301 | 8055321.3301 | 7977866.3173 | 8055321.3301 | 7977866.3173 | 7901886.6381 | 7977866.3173 | 7986902.6881 | 7950432.8128 | 7914294.4818 | 7950432.8128 | 7914294.4818 | 7842994.5315 | 7914294.4818 |
sim_num_branches                            176900 |       176900 |       176900 |       176900 |       176900 |       176900 |       176900 |       385986 |       385986 |       385986 |       385986 |       385986 |       385986 |       385986 |       836452 |       836452 |       836452 |       836452 |       836452 |       836452 |       836452 |      1803938 |      1803938 |      1803938 |      1803938 |      1803938 |      1803938 |      1803938 |      3868096 |      3868096 |      3868096 |      3868096 |      3868096 |      3868096 |      3868096 |      8258696 |      8258696 |      8258696 |      8258696 |      8258696 |      8258696 |      8258696 |     17565570 |     17565570 |     17565570 |     17565570 |     17565570 |     17565570 |     17565570 |     37225526 |     37225526 |     37225526 |     37225526 |     37225526 |     37225526 |     37225526 |     78648266 |     78648266 |     78648266 |     78648266 |     78648266 |     78648266 |     78648266 |    165683054 |    165683054 |    165683054 |    165683054 |    165683054 |    165683054 |    165683054 |    348135260 |    348135260 |    348135260 |    348135260 |    348135260 |    348135260 |    348135260 |
sim_IPB                                     5.1329 |       5.1329 |       5.1329 |       5.1329 |       5.1329 |       5.1329 |       5.1329 |       5.1038 |       5.1038 |       5.1038 |       5.1038 |       5.1038 |       5.1038 |       5.1038 |       5.0835 |       5.0835 |       5.0835 |       5.0835 |       5.0835 |       5.0835 |       5.0835 |       5.0667 |       5.0667 |       5.0667 |       5.0667 |       5.0667 |       5.0667 |       5.0667 |       5.0533 |       5.0533 |       5.0533 |       5.0533 |       5.0533 |       5.0533 |       5.0533 |       5.0416 |       5.0416 |       5.0416 |       5.0416 |       5.0416 |       5.0416 |       5.0416 |       5.0316 |       5.0316 |       5.0316 |       5.0316 |       5.0316 |       5.0316 |       5.0316 |       5.0227 |       5.0227 |       5.0227 |       5.0227 |       5.0227 |       5.0227 |       5.0227 |       5.0148 |       5.0148 |       5.0148 |       5.0148 |       5.0148 |       5.0148 |       5.0148 |       5.0077 |       5.0077 |       5.0077 |       5.0077 |       5.0077 |       5.0077 |       5.0077 |       5.0013 |       5.0013 |       5.0013 |       5.0013 |       5.0013 |       5.0013 |       5.0013 |
bpred_bimod.lookups                         176900 |       176900 |       176900 |xxxxxxxxxxxxx |xxxxxxxxxxxxx |xxxxxxxxxxxxx |xxxxxxxxxxxxx |       385986 |       385986 |       385986 |xxxxxxxxxxxxx |xxxxxxxxxxxxx |xxxxxxxxxxxxx |xxxxxxxxxxxxx |       836452 |       836452 |       836452 |xxxxxxxxxxxxx |xxxxxxxxxxxxx |xxxxxxxxxxxxx |xxxxxxxxxxxxx |      1803938 |      1803938 |      1803938 |xxxxxxxxxxxxx |xxxxxxxxxxxxx |xxxxxxxxxxxxx |xxxxxxxxxxxxx |      3868096 |      3868096 |      3868096 |xxxxxxxxxxxxx |xxxxxxxxxxxxx |xxxxxxxxxxxxx |xxxxxxxxxxxxx |      8258696 |      8258696 |      8258696 |xxxxxxxxxxxxx |xxxxxxxxxxxxx |xxxxxxxxxxxxx |xxxxxxxxxxxxx |     17565570 |     17565570 |     17565570 |xxxxxxxxxxxxx |xxxxxxxxxxxxx |xxxxxxxxxxxxx |xxxxxxxxxxxxx |     37225526 |     37225526 |     37225526 |xxxxxxxxxxxxx |xxxxxxxxxxxxx |xxxxxxxxxxxxx |xxxxxxxxxxxxx |     78648266 |     78648266 |     78648266 |xxxxxxxxxxxxx |xxxxxxxxxxxxx |xxxxxxxxxxxxx |xxxxxxxxxxxxx |    165683054 |    165683054 |    165683054 |xxxxxxxxxxxxx |xxxxxxxxxxxxx |xxxxxxxxxxxxx |xxxxxxxxxxxxx |    348135260 |    348135260 |    348135260 |
bpred_bimod.updates                         176900 |       176900 |       176900 |xxxxxxxxxxxxx |xxxxxxxxxxxxx |xxxxxxxxxxxxx |xxxxxxxxxxxxx |       385986 |       385986 |       385986 |xxxxxxxxxxxxx |xxxxxxxxxxxxx |xxxxxxxxxxxxx |xxxxxxxxxxxxx |       836452 |       836452 |       836452 |xxxxxxxxxxxxx |xxxxxxxxxxxxx |xxxxxxxxxxxxx |xxxxxxxxxxxxx |      1803938 |      1803938 |      1803938 |xxxxxxxxxxxxx |xxxxxxxxxxxxx |xxxxxxxxxxxxx |xxxxxxxxxxxxx |      3868096 |      3868096 |      3868096 |xxxxxxxxxxxxx |xxxxxxxxxxxxx |xxxxxxxxxxxxx |xxxxxxxxxxxxx |      8258696 |      8258696 |      8258696 |xxxxxxxxxxxxx |xxxxxxxxxxxxx |xxxxxxxxxxxxx |xxxxxxxxxxxxx |     17565570 |     17565570 |     17565570 |xxxxxxxxxxxxx |xxxxxxxxxxxxx |xxxxxxxxxxxxx |xxxxxxxxxxxxx |     37225526 |     37225526 |     37225526 |xxxxxxxxxxxxx |xxxxxxxxxxxxx |xxxxxxxxxxxxx |xxxxxxxxxxxxx |     78648266 |     78648266 |     78648266 |xxxxxxxxxxxxx |xxxxxxxxxxxxx |xxxxxxxxxxxxx |xxxxxxxxxxxxx |    165683054 |    165683054 |    165683054 |xxxxxxxxxxxxx |xxxxxxxxxxxxx |xxxxxxxxxxxxx |xxxxxxxxxxxxx |    348135260 |    348135260 |    348135260 |
bpred_bimod.addr_hits                       149092 |       149100 |       149100 |xxxxxxxxxxxxx |xxxxxxxxxxxxx |xxxxxxxxxxxxx |xxxxxxxxxxxxx |       326368 |       326371 |       326371 |xxxxxxxxxxxxx |xxxxxxxxxxxxx |xxxxxxxxxxxxx |xxxxxxxxxxxxx |       709216 |       709218 |       709218 |xxxxxxxxxxxxx |xxxxxxxxxxxxx |xxxxxxxxxxxxx |xxxxxxxxxxxxx |      1533398 |      1533401 |      1533403 |xxxxxxxxxxxxx |xxxxxxxxxxxxx |xxxxxxxxxxxxx |xxxxxxxxxxxxx |      3294204 |      3294208 |      3294209 |xxxxxxxxxxxxx |xxxxxxxxxxxxx |xxxxxxxxxxxxx |xxxxxxxxxxxxx |      7045447 |      7045449 |      7045451 |xxxxxxxxxxxxx |xxxxxxxxxxxxx |xxxxxxxxxxxxx |xxxxxxxxxxxxx |     15008463 |     15008465 |     15008467 |xxxxxxxxxxxxx |xxxxxxxxxxxxx |xxxxxxxxxxxxx |xxxxxxxxxxxxx |     31849398 |     31849400 |     31849401 |xxxxxxxxxxxxx |xxxxxxxxxxxxx |xxxxxxxxxxxxx |xxxxxxxxxxxxx |     67370706 |     67370708 |     67370710 |xxxxxxxxxxxxx |xxxxxxxxxxxxx |xxxxxxxxxxxxx |xxxxxxxxxxxxx |    142079521 |    142079522 |    142079523 |xxxxxxxxxxxxx |xxxxxxxxxxxxx |xxxxxxxxxxxxx |xxxxxxxxxxxxx |    298834557 |    298834558 |    298834559 |
bpred_bimod.dir_hits                        149204 |       149210 |       149210 |xxxxxxxxxxxxx |xxxxxxxxxxxxx |xxxxxxxxxxxxx |xxxxxxxxxxxxx |       326480 |       326483 |       326482 |xxxxxxxxxxxxx |xxxxxxxxxxxxx |xxxxxxxxxxxxx |xxxxxxxxxxxxx |       709328 |       709329 |       709329 |xxxxxxxxxxxxx |xxxxxxxxxxxxx |xxxxxxxxxxxxx |xxxxxxxxxxxxx |      1533511 |      1533514 |      1533514 |xxxxxxxxxxxxx |xxxxxxxxxxxxx |xxxxxxxxxxxxx |xxxxxxxxxxxxx |      3294317 |      3294320 |      3294319 |xxxxxxxxxxxxx |xxxxxxxxxxxxx |xxxxxxxxxxxxx |xxxxxxxxxxxxx |      7045558 |      7045560 |      7045560 |xxxxxxxxxxxxx |xxxxxxxxxxxxx |xxxxxxxxxxxxx |xxxxxxxxxxxxx |     15008575 |     15008577 |     15008577 |xxxxxxxxxxxxx |xxxxxxxxxxxxx |xxxxxxxxxxxxx |xxxxxxxxxxxxx |     31849512 |     31849514 |     31849513 |xxxxxxxxxxxxx |xxxxxxxxxxxxx |xxxxxxxxxxxxx |xxxxxxxxxxxxx |     67370816 |     67370817 |     67370818 |xxxxxxxxxxxxx |xxxxxxxxxxxxx |xxxxxxxxxxxxx |xxxxxxxxxxxxx |    142079633 |    142079632 |    142079631 |xxxxxxxxxxxxx |xxxxxxxxxxxxx |xxxxxxxxxxxxx |xxxxxxxxxxxxx |    298834672 |    298834672 |    298834671 |
bpred_bimod.misses                           27696 |        27690 |        27690 |xxxxxxxxxxxxx |xxxxxxxxxxxxx |xxxxxxxxxxxxx |xxxxxxxxxxxxx |        59506 |        59503 |        59504 |xxxxxxxxxxxxx |xxxxxxxxxxxxx |xxxxxxxxxxxxx |xxxxxxxxxxxxx |       127124 |       127123 |       127123 |xxxxxxxxxxxxx |xxxxxxxxxxxxx |xxxxxxxxxxxxx |xxxxxxxxxxxxx |       270427 |       270424 |       270424 |xxxxxxxxxxxxx |xxxxxxxxxxxxx |xxxxxxxxxxxxx |xxxxxxxxxxxxx |       573779 |       573776 |       573777 |xxxxxxxxxxxxx |xxxxxxxxxxxxx |xxxxxxxxxxxxx |xxxxxxxxxxxxx |      1213138 |      1213136 |      1213136 |xxxxxxxxxxxxx |xxxxxxxxxxxxx |xxxxxxxxxxxxx |xxxxxxxxxxxxx |      2556995 |      2556993 |      2556993 |xxxxxxxxxxxxx |xxxxxxxxxxxxx |xxxxxxxxxxxxx |xxxxxxxxxxxxx |      5376014 |      5376012 |      5376013 |xxxxxxxxxxxxx |xxxxxxxxxxxxx |xxxxxxxxxxxxx |xxxxxxxxxxxxx |     11277450 |     11277449 |     11277448 |xxxxxxxxxxxxx |xxxxxxxxxxxxx |xxxxxxxxxxxxx |xxxxxxxxxxxxx |     23603421 |     23603422 |     23603423 |xxxxxxxxxxxxx |xxxxxxxxxxxxx |xxxxxxxxxxxxx |xxxxxxxxxxxxx |     49300588 |     49300588 |     49300589 |
bpred_bimod.jr_hits                             57 |           57 |           57 |xxxxxxxxxxxxx |xxxxxxxxxxxxx |xxxxxxxxxxxxx |xxxxxxxxxxxxx |           57 |           57 |           57 |xxxxxxxxxxxxx |xxxxxxxxxxxxx |xxxxxxxxxxxxx |xxxxxxxxxxxxx |           57 |           57 |           57 |xxxxxxxxxxxxx |xxxxxxxxxxxxx |xxxxxxxxxxxxx |xxxxxxxxxxxxx |           57 |           57 |           57 |xxxxxxxxxxxxx |xxxxxxxxxxxxx |xxxxxxxxxxxxx |xxxxxxxxxxxxx |           57 |           57 |           57 |xxxxxxxxxxxxx |xxxxxxxxxxxxx |xxxxxxxxxxxxx |xxxxxxxxxxxxx |           57 |           57 |           57 |xxxxxxxxxxxxx |xxxxxxxxxxxxx |xxxxxxxxxxxxx |xxxxxxxxxxxxx |           57 |           57 |           57 |xxxxxxxxxxxxx |xxxxxxxxxxxxx |xxxxxxxxxxxxx |xxxxxxxxxxxxx |           57 |           57 |           57 |xxxxxxxxxxxxx |xxxxxxxxxxxxx |xxxxxxxxxxxxx |xxxxxxxxxxxxx |           57 |           57 |           57 |xxxxxxxxxxxxx |xxxxxxxxxxxxx |xxxxxxxxxxxxx |xxxxxxxxxxxxx |           57 |           57 |           57 |xxxxxxxxxxxxx |xxxxxxxxxxxxx |xxxxxxxxxxxxx |xxxxxxxxxxxxx |           57 |           57 |           57 |
bpred_bimod.jr_seen                             58 |           58 |           58 |xxxxxxxxxxxxx |xxxxxxxxxxxxx |xxxxxxxxxxxxx |xxxxxxxxxxxxx |           58 |           58 |           58 |xxxxxxxxxxxxx |xxxxxxxxxxxxx |xxxxxxxxxxxxx |xxxxxxxxxxxxx |           58 |           58 |           58 |xxxxxxxxxxxxx |xxxxxxxxxxxxx |xxxxxxxxxxxxx |xxxxxxxxxxxxx |           58 |           58 |           58 |xxxxxxxxxxxxx |xxxxxxxxxxxxx |xxxxxxxxxxxxx |xxxxxxxxxxxxx |           58 |           58 |           58 |xxxxxxxxxxxxx |xxxxxxxxxxxxx |xxxxxxxxxxxxx |xxxxxxxxxxxxx |           58 |           58 |           58 |xxxxxxxxxxxxx |xxxxxxxxxxxxx |xxxxxxxxxxxxx |xxxxxxxxxxxxx |           58 |           58 |           58 |xxxxxxxxxxxxx |xxxxxxxxxxxxx |xxxxxxxxxxxxx |xxxxxxxxxxxxx |           58 |           58 |           58 |xxxxxxxxxxxxx |xxxxxxxxxxxxx |xxxxxxxxxxxxx |xxxxxxxxxxxxx |           58 |           58 |           58 |xxxxxxxxxxxxx |xxxxxxxxxxxxx |xxxxxxxxxxxxx |xxxxxxxxxxxxx |           58 |           58 |           58 |xxxxxxxxxxxxx |xxxxxxxxxxxxx |xxxxxxxxxxxxx |xxxxxxxxxxxxx |           58 |           58 |           58 |
bpred_bimod.jr_non_ras_hits.PP                   0 |            0 |            0 |xxxxxxxxxxxxx |xxxxxxxxxxxxx |xxxxxxxxxxxxx |xxxxxxxxxxxxx |            0 |            0 |            0 |xxxxxxxxxxxxx |xxxxxxxxxxxxx |xxxxxxxxxxxxx |xxxxxxxxxxxxx |            0 |            0 |            0 |xxxxxxxxxxxxx |xxxxxxxxxxxxx |xxxxxxxxxxxxx |xxxxxxxxxxxxx |            0 |            0 |            0 |xxxxxxxxxxxxx |xxxxxxxxxxxxx |xxxxxxxxxxxxx |xxxxxxxxxxxxx |            0 |            0 |            0 |xxxxxxxxxxxxx |xxxxxxxxxxxxx |xxxxxxxxxxxxx |xxxxxxxxxxxxx |            0 |            0 |            0 |xxxxxxxxxxxxx |xxxxxxxxxxxxx |xxxxxxxxxxxxx |xxxxxxxxxxxxx |            0 |            0 |            0 |xxxxxxxxxxxxx |xxxxxxxxxxxxx |xxxxxxxxxxxxx |xxxxxxxxxxxxx |            0 |            0 |            0 |xxxxxxxxxxxxx |xxxxxxxxxxxxx |xxxxxxxxxxxxx |xxxxxxxxxxxxx |            0 |            0 |            0 |xxxxxxxxxxxxx |xxxxxxxxxxxxx |xxxxxxxxxxxxx |xxxxxxxxxxxxx |            0 |            0 |            0 |xxxxxxxxxxxxx |xxxxxxxxxxxxx |xxxxxxxxxxxxx |xxxxxxxxxxxxx |            0 |            0 |            0 |
bpred_bimod.jr_non_ras_seen.PP                   0 |            0 |            0 |xxxxxxxxxxxxx |xxxxxxxxxxxxx |xxxxxxxxxxxxx |xxxxxxxxxxxxx |            0 |            0 |            0 |xxxxxxxxxxxxx |xxxxxxxxxxxxx |xxxxxxxxxxxxx |xxxxxxxxxxxxx |            0 |            0 |            0 |xxxxxxxxxxxxx |xxxxxxxxxxxxx |xxxxxxxxxxxxx |xxxxxxxxxxxxx |            0 |            0 |            0 |xxxxxxxxxxxxx |xxxxxxxxxxxxx |xxxxxxxxxxxxx |xxxxxxxxxxxxx |            0 |            0 |            0 |xxxxxxxxxxxxx |xxxxxxxxxxxxx |xxxxxxxxxxxxx |xxxxxxxxxxxxx |            0 |            0 |            0 |xxxxxxxxxxxxx |xxxxxxxxxxxxx |xxxxxxxxxxxxx |xxxxxxxxxxxxx |            0 |            0 |            0 |xxxxxxxxxxxxx |xxxxxxxxxxxxx |xxxxxxxxxxxxx |xxxxxxxxxxxxx |            0 |            0 |            0 |xxxxxxxxxxxxx |xxxxxxxxxxxxx |xxxxxxxxxxxxx |xxxxxxxxxxxxx |            0 |            0 |            0 |xxxxxxxxxxxxx |xxxxxxxxxxxxx |xxxxxxxxxxxxx |xxxxxxxxxxxxx |            0 |            0 |            0 |xxxxxxxxxxxxx |xxxxxxxxxxxxx |xxxxxxxxxxxxx |xxxxxxxxxxxxx |            0 |            0 |            0 |
bpred_bimod.bpred_addr_rate                 0.8428 |       0.8428 |       0.8428 |xxxxxxxxxxxxx |xxxxxxxxxxxxx |xxxxxxxxxxxxx |xxxxxxxxxxxxx |       0.8455 |       0.8456 |       0.8456 |xxxxxxxxxxxxx |xxxxxxxxxxxxx |xxxxxxxxxxxxx |xxxxxxxxxxxxx |       0.8479 |       0.8479 |       0.8479 |xxxxxxxxxxxxx |xxxxxxxxxxxxx |xxxxxxxxxxxxx |xxxxxxxxxxxxx |       0.8500 |       0.8500 |       0.8500 |xxxxxxxxxxxxx |xxxxxxxxxxxxx |xxxxxxxxxxxxx |xxxxxxxxxxxxx |       0.8516 |       0.8516 |       0.8516 |xxxxxxxxxxxxx |xxxxxxxxxxxxx |xxxxxxxxxxxxx |xxxxxxxxxxxxx |       0.8531 |       0.8531 |       0.8531 |xxxxxxxxxxxxx |xxxxxxxxxxxxx |xxxxxxxxxxxxx |xxxxxxxxxxxxx |       0.8544 |       0.8544 |       0.8544 |xxxxxxxxxxxxx |xxxxxxxxxxxxx |xxxxxxxxxxxxx |xxxxxxxxxxxxx |       0.8556 |       0.8556 |       0.8556 |xxxxxxxxxxxxx |xxxxxxxxxxxxx |xxxxxxxxxxxxx |xxxxxxxxxxxxx |       0.8566 |       0.8566 |       0.8566 |xxxxxxxxxxxxx |xxxxxxxxxxxxx |xxxxxxxxxxxxx |xxxxxxxxxxxxx |       0.8575 |       0.8575 |       0.8575 |xxxxxxxxxxxxx |xxxxxxxxxxxxx |xxxxxxxxxxxxx |xxxxxxxxxxxxx |       0.8584 |       0.8584 |       0.8584 |
bpred_bimod.bpred_dir_rate                  0.8434 |       0.8435 |       0.8435 |xxxxxxxxxxxxx |xxxxxxxxxxxxx |xxxxxxxxxxxxx |xxxxxxxxxxxxx |       0.8458 |       0.8458 |       0.8458 |xxxxxxxxxxxxx |xxxxxxxxxxxxx |xxxxxxxxxxxxx |xxxxxxxxxxxxx |       0.8480 |       0.8480 |       0.8480 |xxxxxxxxxxxxx |xxxxxxxxxxxxx |xxxxxxxxxxxxx |xxxxxxxxxxxxx |       0.8501 |       0.8501 |       0.8501 |xxxxxxxxxxxxx |xxxxxxxxxxxxx |xxxxxxxxxxxxx |xxxxxxxxxxxxx |       0.8517 |       0.8517 |       0.8517 |xxxxxxxxxxxxx |xxxxxxxxxxxxx |xxxxxxxxxxxxx |xxxxxxxxxxxxx |       0.8531 |       0.8531 |       0.8531 |xxxxxxxxxxxxx |xxxxxxxxxxxxx |xxxxxxxxxxxxx |xxxxxxxxxxxxx |       0.8544 |       0.8544 |       0.8544 |xxxxxxxxxxxxx |xxxxxxxxxxxxx |xxxxxxxxxxxxx |xxxxxxxxxxxxx |       0.8556 |       0.8556 |       0.8556 |xxxxxxxxxxxxx |xxxxxxxxxxxxx |xxxxxxxxxxxxx |xxxxxxxxxxxxx |       0.8566 |       0.8566 |       0.8566 |xxxxxxxxxxxxx |xxxxxxxxxxxxx |xxxxxxxxxxxxx |xxxxxxxxxxxxx |       0.8575 |       0.8575 |       0.8575 |xxxxxxxxxxxxx |xxxxxxxxxxxxx |xxxxxxxxxxxxx |xxxxxxxxxxxxx |       0.8584 |       0.8584 |       0.8584 |
bpred_bimod.bpred_jr_rate                   0.9828 |       0.9828 |       0.9828 |xxxxxxxxxxxxx |xxxxxxxxxxxxx |xxxxxxxxxxxxx |xxxxxxxxxxxxx |       0.9828 |       0.9828 |       0.9828 |xxxxxxxxxxxxx |xxxxxxxxxxxxx |xxxxxxxxxxxxx |xxxxxxxxxxxxx |       0.9828 |       0.9828 |       0.9828 |xxxxxxxxxxxxx |xxxxxxxxxxxxx |xxxxxxxxxxxxx |xxxxxxxxxxxxx |       0.9828 |       0.9828 |       0.9828 |xxxxxxxxxxxxx |xxxxxxxxxxxxx |xxxxxxxxxxxxx |xxxxxxxxxxxxx |       0.9828 |       0.9828 |       0.9828 |xxxxxxxxxxxxx |xxxxxxxxxxxxx |xxxxxxxxxxxxx |xxxxxxxxxxxxx |       0.9828 |       0.9828 |       0.9828 |xxxxxxxxxxxxx |xxxxxxxxxxxxx |xxxxxxxxxxxxx |xxxxxxxxxxxxx |       0.9828 |       0.9828 |       0.9828 |xxxxxxxxxxxxx |xxxxxxxxxxxxx |xxxxxxxxxxxxx |xxxxxxxxxxxxx |       0.9828 |       0.9828 |       0.9828 |xxxxxxxxxxxxx |xxxxxxxxxxxxx |xxxxxxxxxxxxx |xxxxxxxxxxxxx |       0.9828 |       0.9828 |       0.9828 |xxxxxxxxxxxxx |xxxxxxxxxxxxx |xxxxxxxxxxxxx |xxxxxxxxxxxxx |       0.9828 |       0.9828 |       0.9828 |xxxxxxxxxxxxx |xxxxxxxxxxxxx |xxxxxxxxxxxxx |xxxxxxxxxxxxx |       0.9828 |       0.9828 |       0.9828 |
bpred_bimod.bpred_jr_non_ras_rate.PP       <error: |      <error: |      <error: |xxxxxxxxxxxxx |xxxxxxxxxxxxx |xxxxxxxxxxxxx |xxxxxxxxxxxxx |      <error: |      <error: |      <error: |xxxxxxxxxxxxx |xxxxxxxxxxxxx |xxxxxxxxxxxxx |xxxxxxxxxxxxx |      <error: |      <error: |      <error: |xxxxxxxxxxxxx |xxxxxxxxxxxxx |xxxxxxxxxxxxx |xxxxxxxxxxxxx |      <error: |      <error: |      <error: |xxxxxxxxxxxxx |xxxxxxxxxxxxx |xxxxxxxxxxxxx |xxxxxxxxxxxxx |      <error: |      <error: |      <error: |xxxxxxxxxxxxx |xxxxxxxxxxxxx |xxxxxxxxxxxxx |xxxxxxxxxxxxx |      <error: |      <error: |      <error: |xxxxxxxxxxxxx |xxxxxxxxxxxxx |xxxxxxxxxxxxx |xxxxxxxxxxxxx |      <error: |      <error: |      <error: |xxxxxxxxxxxxx |xxxxxxxxxxxxx |xxxxxxxxxxxxx |xxxxxxxxxxxxx |      <error: |      <error: |      <error: |xxxxxxxxxxxxx |xxxxxxxxxxxxx |xxxxxxxxxxxxx |xxxxxxxxxxxxx |      <error: |      <error: |      <error: |xxxxxxxxxxxxx |xxxxxxxxxxxxx |xxxxxxxxxxxxx |xxxxxxxxxxxxx |      <error: |      <error: |      <error: |xxxxxxxxxxxxx |xxxxxxxxxxxxx |xxxxxxxxxxxxx |xxxxxxxxxxxxx |      <error: |      <error: |      <error: |
bpred_bimod.retstack_pushes                     60 |           60 |           60 |xxxxxxxxxxxxx |xxxxxxxxxxxxx |xxxxxxxxxxxxx |xxxxxxxxxxxxx |           60 |           60 |           60 |xxxxxxxxxxxxx |xxxxxxxxxxxxx |xxxxxxxxxxxxx |xxxxxxxxxxxxx |           60 |           60 |           60 |xxxxxxxxxxxxx |xxxxxxxxxxxxx |xxxxxxxxxxxxx |xxxxxxxxxxxxx |           60 |           60 |           60 |xxxxxxxxxxxxx |xxxxxxxxxxxxx |xxxxxxxxxxxxx |xxxxxxxxxxxxx |           60 |           60 |           60 |xxxxxxxxxxxxx |xxxxxxxxxxxxx |xxxxxxxxxxxxx |xxxxxxxxxxxxx |           60 |           60 |           60 |xxxxxxxxxxxxx |xxxxxxxxxxxxx |xxxxxxxxxxxxx |xxxxxxxxxxxxx |           60 |           60 |           60 |xxxxxxxxxxxxx |xxxxxxxxxxxxx |xxxxxxxxxxxxx |xxxxxxxxxxxxx |           60 |           60 |           60 |xxxxxxxxxxxxx |xxxxxxxxxxxxx |xxxxxxxxxxxxx |xxxxxxxxxxxxx |           60 |           60 |           60 |xxxxxxxxxxxxx |xxxxxxxxxxxxx |xxxxxxxxxxxxx |xxxxxxxxxxxxx |           60 |           60 |           60 |xxxxxxxxxxxxx |xxxxxxxxxxxxx |xxxxxxxxxxxxx |xxxxxxxxxxxxx |           60 |           60 |           60 |
bpred_bimod.retstack_pops                       58 |           58 |           58 |xxxxxxxxxxxxx |xxxxxxxxxxxxx |xxxxxxxxxxxxx |xxxxxxxxxxxxx |           58 |           58 |           58 |xxxxxxxxxxxxx |xxxxxxxxxxxxx |xxxxxxxxxxxxx |xxxxxxxxxxxxx |           58 |           58 |           58 |xxxxxxxxxxxxx |xxxxxxxxxxxxx |xxxxxxxxxxxxx |xxxxxxxxxxxxx |           58 |           58 |           58 |xxxxxxxxxxxxx |xxxxxxxxxxxxx |xxxxxxxxxxxxx |xxxxxxxxxxxxx |           58 |           58 |           58 |xxxxxxxxxxxxx |xxxxxxxxxxxxx |xxxxxxxxxxxxx |xxxxxxxxxxxxx |           58 |           58 |           58 |xxxxxxxxxxxxx |xxxxxxxxxxxxx |xxxxxxxxxxxxx |xxxxxxxxxxxxx |           58 |           58 |           58 |xxxxxxxxxxxxx |xxxxxxxxxxxxx |xxxxxxxxxxxxx |xxxxxxxxxxxxx |           58 |           58 |           58 |xxxxxxxxxxxxx |xxxxxxxxxxxxx |xxxxxxxxxxxxx |xxxxxxxxxxxxx |           58 |           58 |           58 |xxxxxxxxxxxxx |xxxxxxxxxxxxx |xxxxxxxxxxxxx |xxxxxxxxxxxxx |           58 |           58 |           58 |xxxxxxxxxxxxx |xxxxxxxxxxxxx |xxxxxxxxxxxxx |xxxxxxxxxxxxx |           58 |           58 |           58 |
bpred_bimod.used_ras.PP                         58 |           58 |           58 |xxxxxxxxxxxxx |xxxxxxxxxxxxx |xxxxxxxxxxxxx |xxxxxxxxxxxxx |           58 |           58 |           58 |xxxxxxxxxxxxx |xxxxxxxxxxxxx |xxxxxxxxxxxxx |xxxxxxxxxxxxx |           58 |           58 |           58 |xxxxxxxxxxxxx |xxxxxxxxxxxxx |xxxxxxxxxxxxx |xxxxxxxxxxxxx |           58 |           58 |           58 |xxxxxxxxxxxxx |xxxxxxxxxxxxx |xxxxxxxxxxxxx |xxxxxxxxxxxxx |           58 |           58 |           58 |xxxxxxxxxxxxx |xxxxxxxxxxxxx |xxxxxxxxxxxxx |xxxxxxxxxxxxx |           58 |           58 |           58 |xxxxxxxxxxxxx |xxxxxxxxxxxxx |xxxxxxxxxxxxx |xxxxxxxxxxxxx |           58 |           58 |           58 |xxxxxxxxxxxxx |xxxxxxxxxxxxx |xxxxxxxxxxxxx |xxxxxxxxxxxxx |           58 |           58 |           58 |xxxxxxxxxxxxx |xxxxxxxxxxxxx |xxxxxxxxxxxxx |xxxxxxxxxxxxx |           58 |           58 |           58 |xxxxxxxxxxxxx |xxxxxxxxxxxxx |xxxxxxxxxxxxx |xxxxxxxxxxxxx |           58 |           58 |           58 |xxxxxxxxxxxxx |xxxxxxxxxxxxx |xxxxxxxxxxxxx |xxxxxxxxxxxxx |           58 |           58 |           58 |
bpred_bimod.ras_hits.PP                         57 |           57 |           57 |xxxxxxxxxxxxx |xxxxxxxxxxxxx |xxxxxxxxxxxxx |xxxxxxxxxxxxx |           57 |           57 |           57 |xxxxxxxxxxxxx |xxxxxxxxxxxxx |xxxxxxxxxxxxx |xxxxxxxxxxxxx |           57 |           57 |           57 |xxxxxxxxxxxxx |xxxxxxxxxxxxx |xxxxxxxxxxxxx |xxxxxxxxxxxxx |           57 |           57 |           57 |xxxxxxxxxxxxx |xxxxxxxxxxxxx |xxxxxxxxxxxxx |xxxxxxxxxxxxx |           57 |           57 |           57 |xxxxxxxxxxxxx |xxxxxxxxxxxxx |xxxxxxxxxxxxx |xxxxxxxxxxxxx |           57 |           57 |           57 |xxxxxxxxxxxxx |xxxxxxxxxxxxx |xxxxxxxxxxxxx |xxxxxxxxxxxxx |           57 |           57 |           57 |xxxxxxxxxxxxx |xxxxxxxxxxxxx |xxxxxxxxxxxxx |xxxxxxxxxxxxx |           57 |           57 |           57 |xxxxxxxxxxxxx |xxxxxxxxxxxxx |xxxxxxxxxxxxx |xxxxxxxxxxxxx |           57 |           57 |           57 |xxxxxxxxxxxxx |xxxxxxxxxxxxx |xxxxxxxxxxxxx |xxxxxxxxxxxxx |           57 |           57 |           57 |xxxxxxxxxxxxx |xxxxxxxxxxxxx |xxxxxxxxxxxxx |xxxxxxxxxxxxx |           57 |           57 |           57 |
bpred_bimod.ras_rate.PP                     0.9828 |       0.9828 |       0.9828 |xxxxxxxxxxxxx |xxxxxxxxxxxxx |xxxxxxxxxxxxx |xxxxxxxxxxxxx |       0.9828 |       0.9828 |       0.9828 |xxxxxxxxxxxxx |xxxxxxxxxxxxx |xxxxxxxxxxxxx |xxxxxxxxxxxxx |       0.9828 |       0.9828 |       0.9828 |xxxxxxxxxxxxx |xxxxxxxxxxxxx |xxxxxxxxxxxxx |xxxxxxxxxxxxx |       0.9828 |       0.9828 |       0.9828 |xxxxxxxxxxxxx |xxxxxxxxxxxxx |xxxxxxxxxxxxx |xxxxxxxxxxxxx |       0.9828 |       0.9828 |       0.9828 |xxxxxxxxxxxxx |xxxxxxxxxxxxx |xxxxxxxxxxxxx |xxxxxxxxxxxxx |       0.9828 |       0.9828 |       0.9828 |xxxxxxxxxxxxx |xxxxxxxxxxxxx |xxxxxxxxxxxxx |xxxxxxxxxxxxx |       0.9828 |       0.9828 |       0.9828 |xxxxxxxxxxxxx |xxxxxxxxxxxxx |xxxxxxxxxxxxx |xxxxxxxxxxxxx |       0.9828 |       0.9828 |       0.9828 |xxxxxxxxxxxxx |xxxxxxxxxxxxx |xxxxxxxxxxxxx |xxxxxxxxxxxxx |       0.9828 |       0.9828 |       0.9828 |xxxxxxxxxxxxx |xxxxxxxxxxxxx |xxxxxxxxxxxxx |xxxxxxxxxxxxx |       0.9828 |       0.9828 |       0.9828 |xxxxxxxxxxxxx |xxxxxxxxxxxxx |xxxxxxxxxxxxx |xxxxxxxxxxxxx |       0.9828 |       0.9828 |       0.9828 |
bpred_2lev.lookups                   xxxxxxxxxxxxx |xxxxxxxxxxxxx |xxxxxxxxxxxxx |       176900 |       176900 |       176900 |       176900 |xxxxxxxxxxxxx |xxxxxxxxxxxxx |xxxxxxxxxxxxx |       385986 |       385986 |       385986 |       385986 |xxxxxxxxxxxxx |xxxxxxxxxxxxx |xxxxxxxxxxxxx |       836452 |       836452 |       836452 |       836452 |xxxxxxxxxxxxx |xxxxxxxxxxxxx |xxxxxxxxxxxxx |      1803938 |      1803938 |      1803938 |      1803938 |xxxxxxxxxxxxx |xxxxxxxxxxxxx |xxxxxxxxxxxxx |      3868096 |      3868096 |      3868096 |      3868096 |xxxxxxxxxxxxx |xxxxxxxxxxxxx |xxxxxxxxxxxxx |      8258696 |      8258696 |      8258696 |      8258696 |xxxxxxxxxxxxx |xxxxxxxxxxxxx |xxxxxxxxxxxxx |     17565570 |     17565570 |     17565570 |     17565570 |xxxxxxxxxxxxx |xxxxxxxxxxxxx |xxxxxxxxxxxxx |     37225526 |     37225526 |     37225526 |     37225526 |xxxxxxxxxxxxx |xxxxxxxxxxxxx |xxxxxxxxxxxxx |     78648266 |     78648266 |     78648266 |     78648266 |xxxxxxxxxxxxx |xxxxxxxxxxxxx |xxxxxxxxxxxxx |    165683054 |    165683054 |    165683054 |    165683054 |xxxxxxxxxxxxx |xxxxxxxxxxxxx |xxxxxxxxxxxxx |    348135260 |    348135260 |    348135260 |    348135260 |
[...]
bpred_2lev.retstack_pushes           xxxxxxxxxxxxx |xxxxxxxxxxxxx |xxxxxxxxxxxxx |           60 |           60 |           60 |           60 |xxxxxxxxxxxxx |xxxxxxxxxxxxx |xxxxxxxxxxxxx |           60 |           60 |           60 |           60 |xxxxxxxxxxxxx |xxxxxxxxxxxxx |xxxxxxxxxxxxx |           60 |           60 |           60 |           60 |xxxxxxxxxxxxx |xxxxxxxxxxxxx |xxxxxxxxxxxxx |           60 |           60 |           60 |           60 |xxxxxxxxxxxxx |xxxxxxxxxxxxx |xxxxxxxxxxxxx |           60 |           60 |           60 |           60 |xxxxxxxxxxxxx |xxxxxxxxxxxxx |xxxxxxxxxxxxx |           60 |           60 |           60 |           60 |xxxxxxxxxxxxx |xxxxxxxxxxxxx |xxxxxxxxxxxxx |           60 |           60 |           60 |           60 |xxxxxxxxxxxxx |xxxxxxxxxxxxx |xxxxxxxxxxxxx |           60 |           60 |           60 |           60 |xxxxxxxxxxxxx |xxxxxxxxxxxxx |xxxxxxxxxxxxx |           60 |           60 |           60 |           60 |xxxxxxxxxxxxx |xxxxxxxxxxxxx |xxxxxxxxxxxxx |           60 |           60 |           60 |           60 |xxxxxxxxxxxxx |xxxxxxxxxxxxx |xxxxxxxxxxxxx |           60 |           60 |           60 |           60 |
bpred_2lev.retstack_pops             xxxxxxxxxxxxx |xxxxxxxxxxxxx |xxxxxxxxxxxxx |           58 |           58 |           58 |           58 |xxxxxxxxxxxxx |xxxxxxxxxxxxx |xxxxxxxxxxxxx |           58 |           58 |           58 |           58 |xxxxxxxxxxxxx |xxxxxxxxxxxxx |xxxxxxxxxxxxx |           58 |           58 |           58 |           58 |xxxxxxxxxxxxx |xxxxxxxxxxxxx |xxxxxxxxxxxxx |           58 |           58 |           58 |           58 |xxxxxxxxxxxxx |xxxxxxxxxxxxx |xxxxxxxxxxxxx |           58 |           58 |           58 |           58 |xxxxxxxxxxxxx |xxxxxxxxxxxxx |xxxxxxxxxxxxx |           58 |           58 |           58 |           58 |xxxxxxxxxxxxx |xxxxxxxxxxxxx |xxxxxxxxxxxxx |           58 |           58 |           58 |           58 |xxxxxxxxxxxxx |xxxxxxxxxxxxx |xxxxxxxxxxxxx |           58 |           58 |           58 |           58 |xxxxxxxxxxxxx |xxxxxxxxxxxxx |xxxxxxxxxxxxx |           58 |           58 |           58 |           58 |xxxxxxxxxxxxx |xxxxxxxxxxxxx |xxxxxxxxxxxxx |           58 |           58 |           58 |           58 |xxxxxxxxxxxxx |xxxxxxxxxxxxx |xxxxxxxxxxxxx |           58 |           58 |           58 |           58 |
bpred_2lev.used_ras.PP               xxxxxxxxxxxxx |xxxxxxxxxxxxx |xxxxxxxxxxxxx |           58 |           58 |           58 |           58 |xxxxxxxxxxxxx |xxxxxxxxxxxxx |xxxxxxxxxxxxx |           58 |           58 |           58 |           58 |xxxxxxxxxxxxx |xxxxxxxxxxxxx |xxxxxxxxxxxxx |           58 |           58 |           58 |           58 |xxxxxxxxxxxxx |xxxxxxxxxxxxx |xxxxxxxxxxxxx |           58 |           58 |           58 |           58 |xxxxxxxxxxxxx |xxxxxxxxxxxxx |xxxxxxxxxxxxx |           58 |           58 |           58 |           58 |xxxxxxxxxxxxx |xxxxxxxxxxxxx |xxxxxxxxxxxxx |           58 |           58 |           58 |           58 |xxxxxxxxxxxxx |xxxxxxxxxxxxx |xxxxxxxxxxxxx |           58 |           58 |           58 |           58 |xxxxxxxxxxxxx |xxxxxxxxxxxxx |xxxxxxxxxxxxx |           58 |           58 |           58 |           58 |xxxxxxxxxxxxx |xxxxxxxxxxxxx |xxxxxxxxxxxxx |           58 |           58 |           58 |           58 |xxxxxxxxxxxxx |xxxxxxxxxxxxx |xxxxxxxxxxxxx |           58 |           58 |           58 |           58 |xxxxxxxxxxxxx |xxxxxxxxxxxxx |xxxxxxxxxxxxx |           58 |           58 |           58 |           58 |
bpred_2lev.ras_hits.PP               xxxxxxxxxxxxx |xxxxxxxxxxxxx |xxxxxxxxxxxxx |           57 |           57 |           57 |           57 |xxxxxxxxxxxxx |xxxxxxxxxxxxx |xxxxxxxxxxxxx |           57 |           57 |           57 |           57 |xxxxxxxxxxxxx |xxxxxxxxxxxxx |xxxxxxxxxxxxx |           57 |           57 |           57 |           57 |xxxxxxxxxxxxx |xxxxxxxxxxxxx |xxxxxxxxxxxxx |           57 |           57 |           57 |           57 |xxxxxxxxxxxxx |xxxxxxxxxxxxx |xxxxxxxxxxxxx |           57 |           57 |           57 |           57 |xxxxxxxxxxxxx |xxxxxxxxxxxxx |xxxxxxxxxxxxx |           57 |           57 |           57 |           57 |xxxxxxxxxxxxx |xxxxxxxxxxxxx |xxxxxxxxxxxxx |           57 |           57 |           57 |           57 |xxxxxxxxxxxxx |xxxxxxxxxxxxx |xxxxxxxxxxxxx |           57 |           57 |           57 |           57 |xxxxxxxxxxxxx |xxxxxxxxxxxxx |xxxxxxxxxxxxx |           57 |           57 |           57 |           57 |xxxxxxxxxxxxx |xxxxxxxxxxxxx |xxxxxxxxxxxxx |           57 |           57 |           57 |           57 |xxxxxxxxxxxxx |xxxxxxxxxxxxx |xxxxxxxxxxxxx |           57 |           57 |           57 |           57 |
bpred_2lev.ras_rate.PP               xxxxxxxxxxxxx |xxxxxxxxxxxxx |xxxxxxxxxxxxx |       0.9828 |       0.9828 |       0.9828 |       0.9828 |xxxxxxxxxxxxx |xxxxxxxxxxxxx |xxxxxxxxxxxxx |       0.9828 |       0.9828 |       0.9828 |       0.9828 |xxxxxxxxxxxxx |xxxxxxxxxxxxx |xxxxxxxxxxxxx |       0.9828 |       0.9828 |       0.9828 |       0.9828 |xxxxxxxxxxxxx |xxxxxxxxxxxxx |xxxxxxxxxxxxx |       0.9828 |       0.9828 |       0.9828 |       0.9828 |xxxxxxxxxxxxx |xxxxxxxxxxxxx |xxxxxxxxxxxxx |       0.9828 |       0.9828 |       0.9828 |       0.9828 |xxxxxxxxxxxxx |xxxxxxxxxxxxx |xxxxxxxxxxxxx |       0.9828 |       0.9828 |       0.9828 |       0.9828 |xxxxxxxxxxxxx |xxxxxxxxxxxxx |xxxxxxxxxxxxx |       0.9828 |       0.9828 |       0.9828 |       0.9828 |xxxxxxxxxxxxx |xxxxxxxxxxxxx |xxxxxxxxxxxxx |       0.9828 |       0.9828 |       0.9828 |       0.9828 |xxxxxxxxxxxxx |xxxxxxxxxxxxx |xxxxxxxxxxxxx |       0.9828 |       0.9828 |       0.9828 |       0.9828 |xxxxxxxxxxxxx |xxxxxxxxxxxxx |xxxxxxxxxxxxx |       0.9828 |       0.9828 |       0.9828 |       0.9828 |xxxxxxxxxxxxx |xxxxxxxxxxxxx |xxxxxxxxxxxxx |       0.9828 |       0.9828 |       0.9828 |       0.9828 |

Command list: 
	sslittle-na-sstrix-gcc -Wall -O3 -funroll-loops -finline-functions  -DRANDOM_SIZE=4096 -DOFFSET=6 -DSORT=base_heapsort sorts/base_heapsort1139170301.c simpleMain.c -o base_heapsort1882478042
	sim-cache -cache:dl1 dl1:256:32:1:l -cache:dl2 dl2:131072:32:1:l -cache:il1 il1:256:32:1:l -cache:il2 dl2 base_heapsort1882478042
	sim-cache -cache:dl1 dl1:256:32:1:l -cache:dl2 dl2:65536:32:1:l -cache:il1 il1:256:32:1:l -cache:il2 dl2 base_heapsort1882478042
	sim-cache -cache:dl1 dl1:1:32:256:l -cache:dl2 dl2:1:32:131072:l -cache:il1 il1:1:32:256:l -cache:il2 dl2 base_heapsort1882478042
	sim-cache -cache:dl1 dl1:1:32:256:l -cache:dl2 dl2:1:32:65536:l -cache:il1 il1:1:32:256:l -cache:il2 dl2 base_heapsort1882478042
	sim-bpred -bpred bimod -bpred:bimod 512 base_heapsort1882478042
	sim-bpred -bpred bimod -bpred:bimod 1024 base_heapsort1882478042
	sim-bpred -bpred bimod -bpred:bimod 2048 base_heapsort1882478042
	sim-bpred -bpred 2lev -bpred:2lev 1 512 10 1 base_heapsort1882478042
	sim-bpred -bpred 2lev -bpred:2lev 1 1024 10 1 base_heapsort1882478042
	sim-bpred -bpred 2lev -bpred:2lev 1 2048 10 1 base_heapsort1882478042
	sim-bpred -bpred 2lev -bpred:2lev 1 4096 10 1 base_heapsort1882478042
	sslittle-na-sstrix-gcc -Wall -O3 -funroll-loops -finline-functions  -DRANDOM_SIZE=8192 -DOFFSET=6 -DSORT=base_heapsort sorts/base_heapsort1139170301.c simpleMain.c -o base_heapsort1882478042
	sim-cache -cache:dl1 dl1:256:32:1:l -cache:dl2 dl2:131072:32:1:l -cache:il1 il1:256:32:1:l -cache:il2 dl2 base_heapsort1882478042
	sim-cache -cache:dl1 dl1:256:32:1:l -cache:dl2 dl2:65536:32:1:l -cache:il1 il1:256:32:1:l -cache:il2 dl2 base_heapsort1882478042
	sim-cache -cache:dl1 dl1:1:32:256:l -cache:dl2 dl2:1:32:131072:l -cache:il1 il1:1:32:256:l -cache:il2 dl2 base_heapsort1882478042
	sim-cache -cache:dl1 dl1:1:32:256:l -cache:dl2 dl2:1:32:65536:l -cache:il1 il1:1:32:256:l -cache:il2 dl2 base_heapsort1882478042
	sim-bpred -bpred bimod -bpred:bimod 512 base_heapsort1882478042
	sim-bpred -bpred bimod -bpred:bimod 1024 base_heapsort1882478042
	sim-bpred -bpred bimod -bpred:bimod 2048 base_heapsort1882478042
	sim-bpred -bpred 2lev -bpred:2lev 1 512 10 1 base_heapsort1882478042
	sim-bpred -bpred 2lev -bpred:2lev 1 1024 10 1 base_heapsort1882478042
	sim-bpred -bpred 2lev -bpred:2lev 1 2048 10 1 base_heapsort1882478042
	sim-bpred -bpred 2lev -bpred:2lev 1 4096 10 1 base_heapsort1882478042
	sslittle-na-sstrix-gcc -Wall -O3 -funroll-loops -finline-functions  -DRANDOM_SIZE=16384 -DOFFSET=6 -DSORT=base_heapsort sorts/base_heapsort1139170301.c simpleMain.c -o base_heapsort1882478042
	sim-cache -cache:dl1 dl1:256:32:1:l -cache:dl2 dl2:131072:32:1:l -cache:il1 il1:256:32:1:l -cache:il2 dl2 base_heapsort1882478042
	sim-cache -cache:dl1 dl1:256:32:1:l -cache:dl2 dl2:65536:32:1:l -cache:il1 il1:256:32:1:l -cache:il2 dl2 base_heapsort1882478042
	sim-cache -cache:dl1 dl1:1:32:256:l -cache:dl2 dl2:1:32:131072:l -cache:il1 il1:1:32:256:l -cache:il2 dl2 base_heapsort1882478042
	sim-cache -cache:dl1 dl1:1:32:256:l -cache:dl2 dl2:1:32:65536:l -cache:il1 il1:1:32:256:l -cache:il2 dl2 base_heapsort1882478042
	sim-bpred -bpred bimod -bpred:bimod 512 base_heapsort1882478042
	sim-bpred -bpred bimod -bpred:bimod 1024 base_heapsort1882478042
	sim-bpred -bpred bimod -bpred:bimod 2048 base_heapsort1882478042
	sim-bpred -bpred 2lev -bpred:2lev 1 512 10 1 base_heapsort1882478042
	sim-bpred -bpred 2lev -bpred:2lev 1 1024 10 1 base_heapsort1882478042
	sim-bpred -bpred 2lev -bpred:2lev 1 2048 10 1 base_heapsort1882478042
	sim-bpred -bpred 2lev -bpred:2lev 1 4096 10 1 base_heapsort1882478042
	sslittle-na-sstrix-gcc -Wall -O3 -funroll-loops -finline-functions  -DRANDOM_SIZE=32768 -DOFFSET=6 -DSORT=base_heapsort sorts/base_heapsort1139170301.c simpleMain.c -o base_heapsort1882478042
	sim-cache -cache:dl1 dl1:256:32:1:l -cache:dl2 dl2:131072:32:1:l -cache:il1 il1:256:32:1:l -cache:il2 dl2 base_heapsort1882478042
	sim-cache -cache:dl1 dl1:256:32:1:l -cache:dl2 dl2:65536:32:1:l -cache:il1 il1:256:32:1:l -cache:il2 dl2 base_heapsort1882478042
	sim-cache -cache:dl1 dl1:1:32:256:l -cache:dl2 dl2:1:32:131072:l -cache:il1 il1:1:32:256:l -cache:il2 dl2 base_heapsort1882478042
	sim-cache -cache:dl1 dl1:1:32:256:l -cache:dl2 dl2:1:32:65536:l -cache:il1 il1:1:32:256:l -cache:il2 dl2 base_heapsort1882478042
	sim-bpred -bpred bimod -bpred:bimod 512 base_heapsort1882478042
	sim-bpred -bpred bimod -bpred:bimod 1024 base_heapsort1882478042
	sim-bpred -bpred bimod -bpred:bimod 2048 base_heapsort1882478042
	sim-bpred -bpred 2lev -bpred:2lev 1 512 10 1 base_heapsort1882478042
	sim-bpred -bpred 2lev -bpred:2lev 1 1024 10 1 base_heapsort1882478042
	sim-bpred -bpred 2lev -bpred:2lev 1 2048 10 1 base_heapsort1882478042
	sim-bpred -bpred 2lev -bpred:2lev 1 4096 10 1 base_heapsort1882478042
	sslittle-na-sstrix-gcc -Wall -O3 -funroll-loops -finline-functions  -DRANDOM_SIZE=65536 -DOFFSET=6 -DSORT=base_heapsort sorts/base_heapsort1139170301.c simpleMain.c -o base_heapsort1882478042
	sim-cache -cache:dl1 dl1:256:32:1:l -cache:dl2 dl2:131072:32:1:l -cache:il1 il1:256:32:1:l -cache:il2 dl2 base_heapsort1882478042
	sim-cache -cache:dl1 dl1:256:32:1:l -cache:dl2 dl2:65536:32:1:l -cache:il1 il1:256:32:1:l -cache:il2 dl2 base_heapsort1882478042
	sim-cache -cache:dl1 dl1:1:32:256:l -cache:dl2 dl2:1:32:131072:l -cache:il1 il1:1:32:256:l -cache:il2 dl2 base_heapsort1882478042
	sim-cache -cache:dl1 dl1:1:32:256:l -cache:dl2 dl2:1:32:65536:l -cache:il1 il1:1:32:256:l -cache:il2 dl2 base_heapsort1882478042
	sim-bpred -bpred bimod -bpred:bimod 512 base_heapsort1882478042
	sim-bpred -bpred bimod -bpred:bimod 1024 base_heapsort1882478042
	sim-bpred -bpred bimod -bpred:bimod 2048 base_heapsort1882478042
	sim-bpred -bpred 2lev -bpred:2lev 1 512 10 1 base_heapsort1882478042
	sim-bpred -bpred 2lev -bpred:2lev 1 1024 10 1 base_heapsort1882478042
	sim-bpred -bpred 2lev -bpred:2lev 1 2048 10 1 base_heapsort1882478042
	sim-bpred -bpred 2lev -bpred:2lev 1 4096 10 1 base_heapsort1882478042
	sslittle-na-sstrix-gcc -Wall -O3 -funroll-loops -finline-functions  -DRANDOM_SIZE=131072 -DOFFSET=6 -DSORT=base_heapsort sorts/base_heapsort1139170301.c simpleMain.c -o base_heapsort1882478042
	sim-cache -cache:dl1 dl1:256:32:1:l -cache:dl2 dl2:131072:32:1:l -cache:il1 il1:256:32:1:l -cache:il2 dl2 base_heapsort1882478042
	sim-cache -cache:dl1 dl1:256:32:1:l -cache:dl2 dl2:65536:32:1:l -cache:il1 il1:256:32:1:l -cache:il2 dl2 base_heapsort1882478042
	sim-cache -cache:dl1 dl1:1:32:256:l -cache:dl2 dl2:1:32:131072:l -cache:il1 il1:1:32:256:l -cache:il2 dl2 base_heapsort1882478042
	sim-cache -cache:dl1 dl1:1:32:256:l -cache:dl2 dl2:1:32:65536:l -cache:il1 il1:1:32:256:l -cache:il2 dl2 base_heapsort1882478042
	sim-bpred -bpred bimod -bpred:bimod 512 base_heapsort1882478042
	sim-bpred -bpred bimod -bpred:bimod 1024 base_heapsort1882478042
	sim-bpred -bpred bimod -bpred:bimod 2048 base_heapsort1882478042
	sim-bpred -bpred 2lev -bpred:2lev 1 512 10 1 base_heapsort1882478042
	sim-bpred -bpred 2lev -bpred:2lev 1 1024 10 1 base_heapsort1882478042
	sim-bpred -bpred 2lev -bpred:2lev 1 2048 10 1 base_heapsort1882478042
	sim-bpred -bpred 2lev -bpred:2lev 1 4096 10 1 base_heapsort1882478042
	sslittle-na-sstrix-gcc -Wall -O3 -funroll-loops -finline-functions  -DRANDOM_SIZE=262144 -DOFFSET=6 -DSORT=base_heapsort sorts/base_heapsort1139170301.c simpleMain.c -o base_heapsort1882478042
	sim-cache -cache:dl1 dl1:256:32:1:l -cache:dl2 dl2:131072:32:1:l -cache:il1 il1:256:32:1:l -cache:il2 dl2 base_heapsort1882478042
	sim-cache -cache:dl1 dl1:256:32:1:l -cache:dl2 dl2:65536:32:1:l -cache:il1 il1:256:32:1:l -cache:il2 dl2 base_heapsort1882478042
	sim-cache -cache:dl1 dl1:1:32:256:l -cache:dl2 dl2:1:32:131072:l -cache:il1 il1:1:32:256:l -cache:il2 dl2 base_heapsort1882478042
	sim-cache -cache:dl1 dl1:1:32:256:l -cache:dl2 dl2:1:32:65536:l -cache:il1 il1:1:32:256:l -cache:il2 dl2 base_heapsort1882478042
	sim-bpred -bpred bimod -bpred:bimod 512 base_heapsort1882478042
	sim-bpred -bpred bimod -bpred:bimod 1024 base_heapsort1882478042
	sim-bpred -bpred bimod -bpred:bimod 2048 base_heapsort1882478042
	sim-bpred -bpred 2lev -bpred:2lev 1 512 10 1 base_heapsort1882478042
	sim-bpred -bpred 2lev -bpred:2lev 1 1024 10 1 base_heapsort1882478042
	sim-bpred -bpred 2lev -bpred:2lev 1 2048 10 1 base_heapsort1882478042
	sim-bpred -bpred 2lev -bpred:2lev 1 4096 10 1 base_heapsort1882478042
	sslittle-na-sstrix-gcc -Wall -O3 -funroll-loops -finline-functions  -DRANDOM_SIZE=524288 -DOFFSET=6 -DSORT=base_heapsort sorts/base_heapsort1139170301.c simpleMain.c -o base_heapsort1882478042
	sim-cache -cache:dl1 dl1:256:32:1:l -cache:dl2 dl2:131072:32:1:l -cache:il1 il1:256:32:1:l -cache:il2 dl2 base_heapsort1882478042
	sim-cache -cache:dl1 dl1:256:32:1:l -cache:dl2 dl2:65536:32:1:l -cache:il1 il1:256:32:1:l -cache:il2 dl2 base_heapsort1882478042
	sim-cache -cache:dl1 dl1:1:32:256:l -cache:dl2 dl2:1:32:131072:l -cache:il1 il1:1:32:256:l -cache:il2 dl2 base_heapsort1882478042
	sim-cache -cache:dl1 dl1:1:32:256:l -cache:dl2 dl2:1:32:65536:l -cache:il1 il1:1:32:256:l -cache:il2 dl2 base_heapsort1882478042
	sim-bpred -bpred bimod -bpred:bimod 512 base_heapsort1882478042
	sim-bpred -bpred bimod -bpred:bimod 1024 base_heapsort1882478042
	sim-bpred -bpred bimod -bpred:bimod 2048 base_heapsort1882478042
	sim-bpred -bpred 2lev -bpred:2lev 1 512 10 1 base_heapsort1882478042
	sim-bpred -bpred 2lev -bpred:2lev 1 1024 10 1 base_heapsort1882478042
	sim-bpred -bpred 2lev -bpred:2lev 1 2048 10 1 base_heapsort1882478042
	sim-bpred -bpred 2lev -bpred:2lev 1 4096 10 1 base_heapsort1882478042
	sslittle-na-sstrix-gcc -Wall -O3 -funroll-loops -finline-functions  -DRANDOM_SIZE=1048576 -DOFFSET=6 -DSORT=base_heapsort sorts/base_heapsort1139170301.c simpleMain.c -o base_heapsort1882478042
	sim-cache -cache:dl1 dl1:256:32:1:l -cache:dl2 dl2:131072:32:1:l -cache:il1 il1:256:32:1:l -cache:il2 dl2 base_heapsort1882478042
	sim-cache -cache:dl1 dl1:256:32:1:l -cache:dl2 dl2:65536:32:1:l -cache:il1 il1:256:32:1:l -cache:il2 dl2 base_heapsort1882478042
	sim-cache -cache:dl1 dl1:1:32:256:l -cache:dl2 dl2:1:32:131072:l -cache:il1 il1:1:32:256:l -cache:il2 dl2 base_heapsort1882478042
	sim-cache -cache:dl1 dl1:1:32:256:l -cache:dl2 dl2:1:32:65536:l -cache:il1 il1:1:32:256:l -cache:il2 dl2 base_heapsort1882478042
	sim-bpred -bpred bimod -bpred:bimod 512 base_heapsort1882478042
	sim-bpred -bpred bimod -bpred:bimod 1024 base_heapsort1882478042
	sim-bpred -bpred bimod -bpred:bimod 2048 base_heapsort1882478042
	sim-bpred -bpred 2lev -bpred:2lev 1 512 10 1 base_heapsort1882478042
	sim-bpred -bpred 2lev -bpred:2lev 1 1024 10 1 base_heapsort1882478042
	sim-bpred -bpred 2lev -bpred:2lev 1 2048 10 1 base_heapsort1882478042
	sim-bpred -bpred 2lev -bpred:2lev 1 4096 10 1 base_heapsort1882478042
	sslittle-na-sstrix-gcc -Wall -O3 -funroll-loops -finline-functions  -DRANDOM_SIZE=2097152 -DOFFSET=6 -DSORT=base_heapsort sorts/base_heapsort1139170301.c simpleMain.c -o base_heapsort1882478042
	sim-cache -cache:dl1 dl1:256:32:1:l -cache:dl2 dl2:131072:32:1:l -cache:il1 il1:256:32:1:l -cache:il2 dl2 base_heapsort1882478042
	sim-cache -cache:dl1 dl1:256:32:1:l -cache:dl2 dl2:65536:32:1:l -cache:il1 il1:256:32:1:l -cache:il2 dl2 base_heapsort1882478042
	sim-cache -cache:dl1 dl1:1:32:256:l -cache:dl2 dl2:1:32:131072:l -cache:il1 il1:1:32:256:l -cache:il2 dl2 base_heapsort1882478042
	sim-cache -cache:dl1 dl1:1:32:256:l -cache:dl2 dl2:1:32:65536:l -cache:il1 il1:1:32:256:l -cache:il2 dl2 base_heapsort1882478042
	sim-bpred -bpred bimod -bpred:bimod 512 base_heapsort1882478042
	sim-bpred -bpred bimod -bpred:bimod 1024 base_heapsort1882478042
	sim-bpred -bpred bimod -bpred:bimod 2048 base_heapsort1882478042
	sim-bpred -bpred 2lev -bpred:2lev 1 512 10 1 base_heapsort1882478042
	sim-bpred -bpred 2lev -bpred:2lev 1 1024 10 1 base_heapsort1882478042
	sim-bpred -bpred 2lev -bpred:2lev 1 2048 10 1 base_heapsort1882478042
	sim-bpred -bpred 2lev -bpred:2lev 1 4096 10 1 base_heapsort1882478042
	sslittle-na-sstrix-gcc -Wall -O3 -funroll-loops -finline-functions  -DRANDOM_SIZE=4194304 -DOFFSET=6 -DSORT=base_heapsort sorts/base_heapsort1139170301.c simpleMain.c -o base_heapsort1882478042
	sim-cache -cache:dl1 dl1:256:32:1:l -cache:dl2 dl2:131072:32:1:l -cache:il1 il1:256:32:1:l -cache:il2 dl2 base_heapsort1882478042
	sim-cache -cache:dl1 dl1:256:32:1:l -cache:dl2 dl2:65536:32:1:l -cache:il1 il1:256:32:1:l -cache:il2 dl2 base_heapsort1882478042
	sim-cache -cache:dl1 dl1:1:32:256:l -cache:dl2 dl2:1:32:131072:l -cache:il1 il1:1:32:256:l -cache:il2 dl2 base_heapsort1882478042
	sim-cache -cache:dl1 dl1:1:32:256:l -cache:dl2 dl2:1:32:65536:l -cache:il1 il1:1:32:256:l -cache:il2 dl2 base_heapsort1882478042
	sim-bpred -bpred bimod -bpred:bimod 512 base_heapsort1882478042
	sim-bpred -bpred bimod -bpred:bimod 1024 base_heapsort1882478042
	sim-bpred -bpred bimod -bpred:bimod 2048 base_heapsort1882478042
	sim-bpred -bpred 2lev -bpred:2lev 1 512 10 1 base_heapsort1882478042
	sim-bpred -bpred 2lev -bpred:2lev 1 1024 10 1 base_heapsort1882478042
	sim-bpred -bpred 2lev -bpred:2lev 1 2048 10 1 base_heapsort1882478042
	sim-bpred -bpred 2lev -bpred:2lev 1 4096 10 1 base_heapsort1882478042
