Thu Aug  4 03:48:42 2005
Run as: "./do_simple -c random.org9 -o 9 base_quicksort1"
-------------------------------------------------------------------------------------------------
sim-cache                                     4096 |         4096 |         4096 |         4096 |         8192 |         8192 |         8192 |         8192 |        16384 |        16384 |        16384 |        16384 |        32768 |        32768 |        32768 |        32768 |        65536 |        65536 |        65536 |        65536 |       131072 |       131072 |       131072 |       131072 |       262144 |       262144 |       262144 |       262144 |       524288 |       524288 |       524288 |       524288 |      1048576 |      1048576 |      1048576 |      1048576 |      2097152 |      2097152 |      2097152 |      2097152 |      4194304 |      4194304 |      4194304 |      4194304 |
-cache:dl1 dl1:256:32:1:l -cache:dl2 dl2:131072:32:1:l -cache:il1 il1:256:32:1:l -cache:il2 dl2
-cache:dl1 dl1:256:32:1:l -cache:dl2 dl2:65536:32:1:l -cache:il1 il1:256:32:1:l -cache:il2 dl2
-cache:dl1 dl1:1:32:256:l -cache:dl2 dl2:1:32:131072:l -cache:il1 il1:1:32:256:l -cache:il2 dl2
-cache:dl1 dl1:1:32:256:l -cache:dl2 dl2:1:32:65536:l -cache:il1 il1:1:32:256:l -cache:il2 dl2
-------------------------------------------------------------------------------------------------
sim_num_insn                                503689 |       503689 |       503689 |       503689 |      1089783 |      1089783 |      1089783 |      1089783 |      2402025 |      2402025 |      2402025 |      2402025 |      4912799 |      4912799 |      4912799 |      4912799 |     10895417 |     10895417 |     10895417 |     10895417 |     22178483 |     22178483 |     22178483 |     22178483 |     48006797 |     48006797 |     48006797 |     48006797 |    103453782 |    103453782 |    103453782 |    103453782 |    216080256 |    216080256 |    216080256 |    216080256 |    444428497 |    444428497 |    444428497 |    444428497 |    941990965 |    941990965 |    941990965 |    941990965 |
sim_num_refs                                128572 |       128572 |       128572 |       128572 |       273906 |       273906 |       273906 |       273906 |       588782 |       588782 |       588782 |       588782 |      1216100 |      1216100 |      1216100 |      1216100 |      2627605 |      2627605 |      2627605 |      2627605 |      5433778 |      5433778 |      5433778 |      5433778 |     11591989 |     11591989 |     11591989 |     11591989 |     24635299 |     24635299 |     24635299 |     24635299 |     51472224 |     51472224 |     51472224 |     51472224 |    106471840 |    106471840 |    106471840 |    106471840 |    224145436 |    224145436 |    224145436 |    224145436 |
sim_elapsed_time                                 1 |            1 |            8 |            3 |            1 |            1 |            9 |            6 |            1 |            1 |           16 |            8 |            1 |            2 |           26 |           14 |            3 |            3 |           48 |           25 |            6 |            6 |           89 |           45 |           13 |           12 |          164 |           78 |           27 |           27 |          284 |          112 |           56 |           57 |          397 |          144 |          117 |          117 |          461 |          208 |          247 |          247 |          602 |          348 |
sim_inst_rate                          503689.0000 |  503689.0000 |   62961.1250 |  167896.3333 | 1089783.0000 | 1089783.0000 |  121087.0000 |  181630.5000 | 2402025.0000 | 2402025.0000 |  150126.5625 |  300253.1250 | 4912799.0000 | 2456399.5000 |  188953.8077 |  350914.2143 | 3631805.6667 | 3631805.6667 |  226987.8542 |  435816.6800 | 3696413.8333 | 3696413.8333 |  249196.4382 |  492855.1778 | 3692830.5385 | 4000566.4167 |  292724.3720 |  615471.7564 | 3831621.5556 | 3831621.5556 |  364273.8803 |  923694.4821 | 3858576.0000 | 3790881.6842 |  544282.7607 | 1500557.3333 | 3798534.1624 | 3798534.1624 |  964053.1388 | 2136675.4663 | 3813728.6032 | 3813728.6032 | 1564769.0449 | 2706870.5891 |
il1.accesses                                503689 |       503689 |       503689 |       503689 |      1089783 |      1089783 |      1089783 |      1089783 |      2402025 |      2402025 |      2402025 |      2402025 |      4912799 |      4912799 |      4912799 |      4912799 |     10895417 |     10895417 |     10895417 |     10895417 |     22178483 |     22178483 |     22178483 |     22178483 |     48006797 |     48006797 |     48006797 |     48006797 |    103453782 |    103453782 |    103453782 |    103453782 |    216080256 |    216080256 |    216080256 |    216080256 |    444428497 |    444428497 |    444428497 |    444428497 |    941990965 |    941990965 |    941990965 |    941990965 |
il1.hits                                    503251 |       503251 |       503292 |       503292 |      1089346 |      1089346 |      1089384 |      1089384 |      2401578 |      2401578 |      2401622 |      2401622 |      4912361 |      4912361 |      4912399 |      4912399 |     10894979 |     10894979 |     10895017 |     10895017 |     22178046 |     22178046 |     22178084 |     22178084 |     48006360 |     48006360 |     48006398 |     48006398 |    103453345 |    103453345 |    103453383 |    103453383 |    216079819 |    216079819 |    216079857 |    216079857 |    444428060 |    444428060 |    444428098 |    444428098 |    941990528 |    941990528 |    941990566 |    941990566 |
il1.misses                                     438 |          438 |          397 |          397 |          437 |          437 |          399 |          399 |          447 |          447 |          403 |          403 |          438 |          438 |          400 |          400 |          438 |          438 |          400 |          400 |          437 |          437 |          399 |          399 |          437 |          437 |          399 |          399 |          437 |          437 |          399 |          399 |          437 |          437 |          399 |          399 |          437 |          437 |          399 |          399 |          437 |          437 |          399 |          399 |
il1.replacements                               199 |          199 |          141 |          141 |          198 |          198 |          143 |          143 |          209 |          209 |          147 |          147 |          200 |          200 |          144 |          144 |          200 |          200 |          144 |          144 |          200 |          200 |          143 |          143 |          200 |          200 |          143 |          143 |          200 |          200 |          143 |          143 |          200 |          200 |          143 |          143 |          200 |          200 |          143 |          143 |          200 |          200 |          143 |          143 |
il1.writebacks                                   0 |            0 |            0 |            0 |            0 |            0 |            0 |            0 |            0 |            0 |            0 |            0 |            0 |            0 |            0 |            0 |            0 |            0 |            0 |            0 |            0 |            0 |            0 |            0 |            0 |            0 |            0 |            0 |            0 |            0 |            0 |            0 |            0 |            0 |            0 |            0 |            0 |            0 |            0 |            0 |            0 |            0 |            0 |            0 |
il1.invalidations                                0 |            0 |            0 |            0 |            0 |            0 |            0 |            0 |            0 |            0 |            0 |            0 |            0 |            0 |            0 |            0 |            0 |            0 |            0 |            0 |            0 |            0 |            0 |            0 |            0 |            0 |            0 |            0 |            0 |            0 |            0 |            0 |            0 |            0 |            0 |            0 |            0 |            0 |            0 |            0 |            0 |            0 |            0 |            0 |
il1.miss_rate                               0.0009 |       0.0009 |       0.0008 |       0.0008 |       0.0004 |       0.0004 |       0.0004 |       0.0004 |       0.0002 |       0.0002 |       0.0002 |       0.0002 |       0.0001 |       0.0001 |       0.0001 |       0.0001 |       0.0000 |       0.0000 |       0.0000 |       0.0000 |       0.0000 |       0.0000 |       0.0000 |       0.0000 |       0.0000 |       0.0000 |       0.0000 |       0.0000 |       0.0000 |       0.0000 |       0.0000 |       0.0000 |       0.0000 |       0.0000 |       0.0000 |       0.0000 |       0.0000 |       0.0000 |       0.0000 |       0.0000 |       0.0000 |       0.0000 |       0.0000 |       0.0000 |
il1.repl_rate                               0.0004 |       0.0004 |       0.0003 |       0.0003 |       0.0002 |       0.0002 |       0.0001 |       0.0001 |       0.0001 |       0.0001 |       0.0001 |       0.0001 |       0.0000 |       0.0000 |       0.0000 |       0.0000 |       0.0000 |       0.0000 |       0.0000 |       0.0000 |       0.0000 |       0.0000 |       0.0000 |       0.0000 |       0.0000 |       0.0000 |       0.0000 |       0.0000 |       0.0000 |       0.0000 |       0.0000 |       0.0000 |       0.0000 |       0.0000 |       0.0000 |       0.0000 |       0.0000 |       0.0000 |       0.0000 |       0.0000 |       0.0000 |       0.0000 |       0.0000 |       0.0000 |
il1.wb_rate                                 0.0000 |       0.0000 |       0.0000 |       0.0000 |       0.0000 |       0.0000 |       0.0000 |       0.0000 |       0.0000 |       0.0000 |       0.0000 |       0.0000 |       0.0000 |       0.0000 |       0.0000 |       0.0000 |       0.0000 |       0.0000 |       0.0000 |       0.0000 |       0.0000 |       0.0000 |       0.0000 |       0.0000 |       0.0000 |       0.0000 |       0.0000 |       0.0000 |       0.0000 |       0.0000 |       0.0000 |       0.0000 |       0.0000 |       0.0000 |       0.0000 |       0.0000 |       0.0000 |       0.0000 |       0.0000 |       0.0000 |       0.0000 |       0.0000 |       0.0000 |       0.0000 |
il1.inv_rate                                0.0000 |       0.0000 |       0.0000 |       0.0000 |       0.0000 |       0.0000 |       0.0000 |       0.0000 |       0.0000 |       0.0000 |       0.0000 |       0.0000 |       0.0000 |       0.0000 |       0.0000 |       0.0000 |       0.0000 |       0.0000 |       0.0000 |       0.0000 |       0.0000 |       0.0000 |       0.0000 |       0.0000 |       0.0000 |       0.0000 |       0.0000 |       0.0000 |       0.0000 |       0.0000 |       0.0000 |       0.0000 |       0.0000 |       0.0000 |       0.0000 |       0.0000 |       0.0000 |       0.0000 |       0.0000 |       0.0000 |       0.0000 |       0.0000 |       0.0000 |       0.0000 |
dl1.accesses                                145038 |       145038 |       145038 |       145038 |       306756 |       306756 |       306756 |       306756 |       654400 |       654400 |       654400 |       654400 |      1347254 |      1347254 |      1347254 |      1347254 |      2889831 |      2889831 |      2889831 |      2889831 |      5958148 |      5958148 |      5958148 |      5958148 |     12640647 |     12640647 |     12640647 |     12640647 |     26732533 |     26732533 |     26732533 |     26732533 |     55666610 |     55666610 |     55666610 |     55666610 |    114860530 |    114860530 |    114860530 |    114860530 |    240922734 |    240922734 |    240922734 |    240922734 |
dl1.hits                                    142211 |       142211 |       142175 |       142175 |       300292 |       300292 |       300167 |       300167 |       638110 |       638110 |       637645 |       637645 |      1314784 |      1314784 |      1314489 |      1314489 |      2803085 |      2803085 |      2802977 |      2802977 |      5785342 |      5785342 |      5785003 |      5785003 |     12225187 |     12225187 |     12225827 |     12225827 |     25762338 |     25762338 |     25768470 |     25768470 |     53584899 |     53584899 |     53597529 |     53597529 |    110521180 |    110521180 |    110552446 |    110552446 |    231248741 |    231248741 |    231335351 |    231335351 |
dl1.misses                                    2827 |         2827 |         2863 |         2863 |         6464 |         6464 |         6589 |         6589 |        16290 |        16290 |        16755 |        16755 |        32470 |        32470 |        32765 |        32765 |        86746 |        86746 |        86854 |        86854 |       172806 |       172806 |       173145 |       173145 |       415460 |       415460 |       414820 |       414820 |       970195 |       970195 |       964063 |       964063 |      2081711 |      2081711 |      2069081 |      2069081 |      4339350 |      4339350 |      4308084 |      4308084 |      9673993 |      9673993 |      9587383 |      9587383 |
dl1.replacements                              2571 |         2571 |         2607 |         2607 |         6208 |         6208 |         6333 |         6333 |        16034 |        16034 |        16499 |        16499 |        32214 |        32214 |        32509 |        32509 |        86490 |        86490 |        86598 |        86598 |       172550 |       172550 |       172889 |       172889 |       415204 |       415204 |       414564 |       414564 |       969939 |       969939 |       963807 |       963807 |      2081455 |      2081455 |      2068825 |      2068825 |      4339094 |      4339094 |      4307828 |      4307828 |      9673737 |      9673737 |      9587127 |      9587127 |
dl1.writebacks                                2278 |         2278 |         2316 |         2316 |         5610 |         5610 |         5705 |         5705 |        13689 |        13689 |        14074 |        14074 |        30375 |        30375 |        30721 |        30721 |        73183 |        73183 |        73617 |        73617 |       157196 |       157196 |       158181 |       158181 |       355320 |       355320 |       356560 |       356560 |       805439 |       805439 |       805549 |       805549 |      1741218 |      1741218 |      1742557 |      1742557 |      3724382 |      3724382 |      3725071 |      3725071 |      8143506 |      8143506 |      8130128 |      8130128 |
dl1.invalidations                                0 |            0 |            0 |            0 |            0 |            0 |            0 |            0 |            0 |            0 |            0 |            0 |            0 |            0 |            0 |            0 |            0 |            0 |            0 |            0 |            0 |            0 |            0 |            0 |            0 |            0 |            0 |            0 |            0 |            0 |            0 |            0 |            0 |            0 |            0 |            0 |            0 |            0 |            0 |            0 |            0 |            0 |            0 |            0 |
dl1.miss_rate                               0.0195 |       0.0195 |       0.0197 |       0.0197 |       0.0211 |       0.0211 |       0.0215 |       0.0215 |       0.0249 |       0.0249 |       0.0256 |       0.0256 |       0.0241 |       0.0241 |       0.0243 |       0.0243 |       0.0300 |       0.0300 |       0.0301 |       0.0301 |       0.0290 |       0.0290 |       0.0291 |       0.0291 |       0.0329 |       0.0329 |       0.0328 |       0.0328 |       0.0363 |       0.0363 |       0.0361 |       0.0361 |       0.0374 |       0.0374 |       0.0372 |       0.0372 |       0.0378 |       0.0378 |       0.0375 |       0.0375 |       0.0402 |       0.0402 |       0.0398 |       0.0398 |
dl1.repl_rate                               0.0177 |       0.0177 |       0.0180 |       0.0180 |       0.0202 |       0.0202 |       0.0206 |       0.0206 |       0.0245 |       0.0245 |       0.0252 |       0.0252 |       0.0239 |       0.0239 |       0.0241 |       0.0241 |       0.0299 |       0.0299 |       0.0300 |       0.0300 |       0.0290 |       0.0290 |       0.0290 |       0.0290 |       0.0328 |       0.0328 |       0.0328 |       0.0328 |       0.0363 |       0.0363 |       0.0361 |       0.0361 |       0.0374 |       0.0374 |       0.0372 |       0.0372 |       0.0378 |       0.0378 |       0.0375 |       0.0375 |       0.0402 |       0.0402 |       0.0398 |       0.0398 |
dl1.wb_rate                                 0.0157 |       0.0157 |       0.0160 |       0.0160 |       0.0183 |       0.0183 |       0.0186 |       0.0186 |       0.0209 |       0.0209 |       0.0215 |       0.0215 |       0.0225 |       0.0225 |       0.0228 |       0.0228 |       0.0253 |       0.0253 |       0.0255 |       0.0255 |       0.0264 |       0.0264 |       0.0265 |       0.0265 |       0.0281 |       0.0281 |       0.0282 |       0.0282 |       0.0301 |       0.0301 |       0.0301 |       0.0301 |       0.0313 |       0.0313 |       0.0313 |       0.0313 |       0.0324 |       0.0324 |       0.0324 |       0.0324 |       0.0338 |       0.0338 |       0.0337 |       0.0337 |
dl1.inv_rate                                0.0000 |       0.0000 |       0.0000 |       0.0000 |       0.0000 |       0.0000 |       0.0000 |       0.0000 |       0.0000 |       0.0000 |       0.0000 |       0.0000 |       0.0000 |       0.0000 |       0.0000 |       0.0000 |       0.0000 |       0.0000 |       0.0000 |       0.0000 |       0.0000 |       0.0000 |       0.0000 |       0.0000 |       0.0000 |       0.0000 |       0.0000 |       0.0000 |       0.0000 |       0.0000 |       0.0000 |       0.0000 |       0.0000 |       0.0000 |       0.0000 |       0.0000 |       0.0000 |       0.0000 |       0.0000 |       0.0000 |       0.0000 |       0.0000 |       0.0000 |       0.0000 |
dl2.accesses                                  5543 |         5543 |         5576 |         5576 |        12511 |        12511 |        12693 |        12693 |        30426 |        30426 |        31232 |        31232 |        63283 |        63283 |        63886 |        63886 |       160367 |       160367 |       160871 |       160871 |       330439 |       330439 |       331725 |       331725 |       771217 |       771217 |       771779 |       771779 |      1776071 |      1776071 |      1770011 |      1770011 |      3823366 |      3823366 |      3812037 |      3812037 |      8064169 |      8064169 |      8033554 |      8033554 |     17817936 |     17817936 |     17717910 |     17717910 |
dl2.hits                                      4189 |         4189 |         4235 |         4235 |        10644 |        10644 |        10838 |        10838 |        27538 |        27538 |        28359 |        28359 |        58350 |        58350 |        58966 |        58966 |       151338 |       151338 |       151855 |       151855 |       313218 |       313218 |       314517 |       314517 |       737612 |       737612 |       738187 |       738187 |      1709698 |      1708940 |      1703651 |      1690584 |      3690689 |      3350199 |      3644778 |      3272529 |      7185625 |      6779778 |      7047205 |      6590919 |     14771224 |     14156865 |     14575530 |     13878416 |
dl2.misses                                    1354 |         1354 |         1341 |         1341 |         1867 |         1867 |         1855 |         1855 |         2888 |         2888 |         2873 |         2873 |         4933 |         4933 |         4920 |         4920 |         9029 |         9029 |         9016 |         9016 |        17221 |        17221 |        17208 |        17208 |        33605 |        33605 |        33592 |        33592 |        66373 |        67131 |        66360 |        79427 |       132677 |       473167 |       167259 |       539508 |       878544 |      1284391 |       986349 |      1442635 |      3046712 |      3661071 |      3142380 |      3839494 |
dl2.replacements                               146 |          146 |            0 |            0 |          145 |          145 |            0 |            0 |          148 |          148 |            0 |            0 |          147 |          147 |            0 |            0 |          147 |          147 |            0 |            0 |          147 |          147 |            0 |            0 |          147 |          147 |            0 |            0 |          147 |         1595 |            0 |        13891 |         1605 |       407631 |        36187 |       473972 |       747472 |      1218855 |       855277 |      1377099 |      2915640 |      3595535 |      3011308 |      3773958 |
dl2.writebacks                                  83 |           83 |            0 |            0 |           84 |           84 |            0 |            0 |           85 |           85 |            0 |            0 |           85 |           85 |            0 |            0 |           85 |           85 |            0 |            0 |           85 |           85 |            0 |            0 |           85 |           85 |            0 |            0 |           85 |         1293 |            0 |        13613 |         1309 |       398586 |        35909 |       465087 |       734579 |      1164634 |       834322 |      1291682 |      2617880 |      3221850 |      2701020 |      3380179 |
dl2.invalidations                                0 |            0 |            0 |            0 |            0 |            0 |            0 |            0 |            0 |            0 |            0 |            0 |            0 |            0 |            0 |            0 |            0 |            0 |            0 |            0 |            0 |            0 |            0 |            0 |            0 |            0 |            0 |            0 |            0 |            0 |            0 |            0 |            0 |            0 |            0 |            0 |            0 |            0 |            0 |            0 |            0 |            0 |            0 |            0 |
dl2.miss_rate                               0.2443 |       0.2443 |       0.2405 |       0.2405 |       0.1492 |       0.1492 |       0.1461 |       0.1461 |       0.0949 |       0.0949 |       0.0920 |       0.0920 |       0.0780 |       0.0780 |       0.0770 |       0.0770 |       0.0563 |       0.0563 |       0.0560 |       0.0560 |       0.0521 |       0.0521 |       0.0519 |       0.0519 |       0.0436 |       0.0436 |       0.0435 |       0.0435 |       0.0374 |       0.0378 |       0.0375 |       0.0449 |       0.0347 |       0.1238 |       0.0439 |       0.1415 |       0.1089 |       0.1593 |       0.1228 |       0.1796 |       0.1710 |       0.2055 |       0.1774 |       0.2167 |
dl2.repl_rate                               0.0263 |       0.0263 |       0.0000 |       0.0000 |       0.0116 |       0.0116 |       0.0000 |       0.0000 |       0.0049 |       0.0049 |       0.0000 |       0.0000 |       0.0023 |       0.0023 |       0.0000 |       0.0000 |       0.0009 |       0.0009 |       0.0000 |       0.0000 |       0.0004 |       0.0004 |       0.0000 |       0.0000 |       0.0002 |       0.0002 |       0.0000 |       0.0000 |       0.0001 |       0.0009 |       0.0000 |       0.0078 |       0.0004 |       0.1066 |       0.0095 |       0.1243 |       0.0927 |       0.1511 |       0.1065 |       0.1714 |       0.1636 |       0.2018 |       0.1700 |       0.2130 |
dl2.wb_rate                                 0.0150 |       0.0150 |       0.0000 |       0.0000 |       0.0067 |       0.0067 |       0.0000 |       0.0000 |       0.0028 |       0.0028 |       0.0000 |       0.0000 |       0.0013 |       0.0013 |       0.0000 |       0.0000 |       0.0005 |       0.0005 |       0.0000 |       0.0000 |       0.0003 |       0.0003 |       0.0000 |       0.0000 |       0.0001 |       0.0001 |       0.0000 |       0.0000 |       0.0000 |       0.0007 |       0.0000 |       0.0077 |       0.0003 |       0.1043 |       0.0094 |       0.1220 |       0.0911 |       0.1444 |       0.1039 |       0.1608 |       0.1469 |       0.1808 |       0.1524 |       0.1908 |
dl2.inv_rate                                0.0000 |       0.0000 |       0.0000 |       0.0000 |       0.0000 |       0.0000 |       0.0000 |       0.0000 |       0.0000 |       0.0000 |       0.0000 |       0.0000 |       0.0000 |       0.0000 |       0.0000 |       0.0000 |       0.0000 |       0.0000 |       0.0000 |       0.0000 |       0.0000 |       0.0000 |       0.0000 |       0.0000 |       0.0000 |       0.0000 |       0.0000 |       0.0000 |       0.0000 |       0.0000 |       0.0000 |       0.0000 |       0.0000 |       0.0000 |       0.0000 |       0.0000 |       0.0000 |       0.0000 |       0.0000 |       0.0000 |       0.0000 |       0.0000 |       0.0000 |       0.0000 |
itlb.accesses                               503689 |       503689 |       503689 |       503689 |      1089783 |      1089783 |      1089783 |      1089783 |      2402025 |      2402025 |      2402025 |      2402025 |      4912799 |      4912799 |      4912799 |      4912799 |     10895417 |     10895417 |     10895417 |     10895417 |     22178483 |     22178483 |     22178483 |     22178483 |     48006797 |     48006797 |     48006797 |     48006797 |    103453782 |    103453782 |    103453782 |    103453782 |    216080256 |    216080256 |    216080256 |    216080256 |    444428497 |    444428497 |    444428497 |    444428497 |    941990965 |    941990965 |    941990965 |    941990965 |
itlb.hits                                   503678 |       503678 |       503678 |       503678 |      1089773 |      1089773 |      1089773 |      1089773 |      2402015 |      2402015 |      2402015 |      2402015 |      4912789 |      4912789 |      4912789 |      4912789 |     10895407 |     10895407 |     10895407 |     10895407 |     22178473 |     22178473 |     22178473 |     22178473 |     48006787 |     48006787 |     48006787 |     48006787 |    103453772 |    103453772 |    103453772 |    103453772 |    216080246 |    216080246 |    216080246 |    216080246 |    444428487 |    444428487 |    444428487 |    444428487 |    941990955 |    941990955 |    941990955 |    941990955 |
itlb.misses                                     11 |           11 |           11 |           11 |           10 |           10 |           10 |           10 |           10 |           10 |           10 |           10 |           10 |           10 |           10 |           10 |           10 |           10 |           10 |           10 |           10 |           10 |           10 |           10 |           10 |           10 |           10 |           10 |           10 |           10 |           10 |           10 |           10 |           10 |           10 |           10 |           10 |           10 |           10 |           10 |           10 |           10 |           10 |           10 |
itlb.replacements                                0 |            0 |            0 |            0 |            0 |            0 |            0 |            0 |            0 |            0 |            0 |            0 |            0 |            0 |            0 |            0 |            0 |            0 |            0 |            0 |            0 |            0 |            0 |            0 |            0 |            0 |            0 |            0 |            0 |            0 |            0 |            0 |            0 |            0 |            0 |            0 |            0 |            0 |            0 |            0 |            0 |            0 |            0 |            0 |
itlb.writebacks                                  0 |            0 |            0 |            0 |            0 |            0 |            0 |            0 |            0 |            0 |            0 |            0 |            0 |            0 |            0 |            0 |            0 |            0 |            0 |            0 |            0 |            0 |            0 |            0 |            0 |            0 |            0 |            0 |            0 |            0 |            0 |            0 |            0 |            0 |            0 |            0 |            0 |            0 |            0 |            0 |            0 |            0 |            0 |            0 |
itlb.invalidations                               0 |            0 |            0 |            0 |            0 |            0 |            0 |            0 |            0 |            0 |            0 |            0 |            0 |            0 |            0 |            0 |            0 |            0 |            0 |            0 |            0 |            0 |            0 |            0 |            0 |            0 |            0 |            0 |            0 |            0 |            0 |            0 |            0 |            0 |            0 |            0 |            0 |            0 |            0 |            0 |            0 |            0 |            0 |            0 |
itlb.miss_rate                              0.0000 |       0.0000 |       0.0000 |       0.0000 |       0.0000 |       0.0000 |       0.0000 |       0.0000 |       0.0000 |       0.0000 |       0.0000 |       0.0000 |       0.0000 |       0.0000 |       0.0000 |       0.0000 |       0.0000 |       0.0000 |       0.0000 |       0.0000 |       0.0000 |       0.0000 |       0.0000 |       0.0000 |       0.0000 |       0.0000 |       0.0000 |       0.0000 |       0.0000 |       0.0000 |       0.0000 |       0.0000 |       0.0000 |       0.0000 |       0.0000 |       0.0000 |       0.0000 |       0.0000 |       0.0000 |       0.0000 |       0.0000 |       0.0000 |       0.0000 |       0.0000 |
itlb.repl_rate                              0.0000 |       0.0000 |       0.0000 |       0.0000 |       0.0000 |       0.0000 |       0.0000 |       0.0000 |       0.0000 |       0.0000 |       0.0000 |       0.0000 |       0.0000 |       0.0000 |       0.0000 |       0.0000 |       0.0000 |       0.0000 |       0.0000 |       0.0000 |       0.0000 |       0.0000 |       0.0000 |       0.0000 |       0.0000 |       0.0000 |       0.0000 |       0.0000 |       0.0000 |       0.0000 |       0.0000 |       0.0000 |       0.0000 |       0.0000 |       0.0000 |       0.0000 |       0.0000 |       0.0000 |       0.0000 |       0.0000 |       0.0000 |       0.0000 |       0.0000 |       0.0000 |
itlb.wb_rate                                0.0000 |       0.0000 |       0.0000 |       0.0000 |       0.0000 |       0.0000 |       0.0000 |       0.0000 |       0.0000 |       0.0000 |       0.0000 |       0.0000 |       0.0000 |       0.0000 |       0.0000 |       0.0000 |       0.0000 |       0.0000 |       0.0000 |       0.0000 |       0.0000 |       0.0000 |       0.0000 |       0.0000 |       0.0000 |       0.0000 |       0.0000 |       0.0000 |       0.0000 |       0.0000 |       0.0000 |       0.0000 |       0.0000 |       0.0000 |       0.0000 |       0.0000 |       0.0000 |       0.0000 |       0.0000 |       0.0000 |       0.0000 |       0.0000 |       0.0000 |       0.0000 |
itlb.inv_rate                               0.0000 |       0.0000 |       0.0000 |       0.0000 |       0.0000 |       0.0000 |       0.0000 |       0.0000 |       0.0000 |       0.0000 |       0.0000 |       0.0000 |       0.0000 |       0.0000 |       0.0000 |       0.0000 |       0.0000 |       0.0000 |       0.0000 |       0.0000 |       0.0000 |       0.0000 |       0.0000 |       0.0000 |       0.0000 |       0.0000 |       0.0000 |       0.0000 |       0.0000 |       0.0000 |       0.0000 |       0.0000 |       0.0000 |       0.0000 |       0.0000 |       0.0000 |       0.0000 |       0.0000 |       0.0000 |       0.0000 |       0.0000 |       0.0000 |       0.0000 |       0.0000 |
dtlb.accesses                               145038 |       145038 |       145038 |       145038 |       306756 |       306756 |       306756 |       306756 |       654400 |       654400 |       654400 |       654400 |      1347254 |      1347254 |      1347254 |      1347254 |      2889831 |      2889831 |      2889831 |      2889831 |      5958148 |      5958148 |      5958148 |      5958148 |     12640647 |     12640647 |     12640647 |     12640647 |     26732533 |     26732533 |     26732533 |     26732533 |     55666610 |     55666610 |     55666610 |     55666610 |    114860530 |    114860530 |    114860530 |    114860530 |    240922734 |    240922734 |    240922734 |    240922734 |
dtlb.hits                                   145026 |       145026 |       145026 |       145026 |       306740 |       306740 |       306740 |       306740 |       654376 |       654376 |       654376 |       654376 |      1347214 |      1347214 |      1347214 |      1347214 |      2889759 |      2889759 |      2889759 |      2889759 |      5957972 |      5957972 |      5957972 |      5957972 |     12639641 |     12639641 |     12639641 |     12639641 |     26729550 |     26729550 |     26729550 |     26729550 |     55659021 |     55659021 |     55659021 |     55659021 |    114843753 |    114843753 |    114843753 |    114843753 |    240882150 |    240882150 |    240882150 |    240882150 |
dtlb.misses                                     12 |           12 |           12 |           12 |           16 |           16 |           16 |           16 |           24 |           24 |           24 |           24 |           40 |           40 |           40 |           40 |           72 |           72 |           72 |           72 |          176 |          176 |          176 |          176 |         1006 |         1006 |         1006 |         1006 |         2983 |         2983 |         2983 |         2983 |         7589 |         7589 |         7589 |         7589 |        16777 |        16777 |        16777 |        16777 |        40584 |        40584 |        40584 |        40584 |
dtlb.replacements                                0 |            0 |            0 |            0 |            0 |            0 |            0 |            0 |            0 |            0 |            0 |            0 |            0 |            0 |            0 |            0 |            0 |            0 |            0 |            0 |           48 |           48 |           48 |           48 |          878 |          878 |          878 |          878 |         2855 |         2855 |         2855 |         2855 |         7461 |         7461 |         7461 |         7461 |        16649 |        16649 |        16649 |        16649 |        40456 |        40456 |        40456 |        40456 |
dtlb.writebacks                                  0 |            0 |            0 |            0 |            0 |            0 |            0 |            0 |            0 |            0 |            0 |            0 |            0 |            0 |            0 |            0 |            0 |            0 |            0 |            0 |           46 |           46 |           46 |           46 |          876 |          876 |          876 |          876 |         2853 |         2853 |         2853 |         2853 |         7459 |         7459 |         7459 |         7459 |        16645 |        16645 |        16645 |        16645 |        40452 |        40452 |        40452 |        40452 |
dtlb.invalidations                               0 |            0 |            0 |            0 |            0 |            0 |            0 |            0 |            0 |            0 |            0 |            0 |            0 |            0 |            0 |            0 |            0 |            0 |            0 |            0 |            0 |            0 |            0 |            0 |            0 |            0 |            0 |            0 |            0 |            0 |            0 |            0 |            0 |            0 |            0 |            0 |            0 |            0 |            0 |            0 |            0 |            0 |            0 |            0 |
dtlb.miss_rate                              0.0001 |       0.0001 |       0.0001 |       0.0001 |       0.0001 |       0.0001 |       0.0001 |       0.0001 |       0.0000 |       0.0000 |       0.0000 |       0.0000 |       0.0000 |       0.0000 |       0.0000 |       0.0000 |       0.0000 |       0.0000 |       0.0000 |       0.0000 |       0.0000 |       0.0000 |       0.0000 |       0.0000 |       0.0001 |       0.0001 |       0.0001 |       0.0001 |       0.0001 |       0.0001 |       0.0001 |       0.0001 |       0.0001 |       0.0001 |       0.0001 |       0.0001 |       0.0001 |       0.0001 |       0.0001 |       0.0001 |       0.0002 |       0.0002 |       0.0002 |       0.0002 |
dtlb.repl_rate                              0.0000 |       0.0000 |       0.0000 |       0.0000 |       0.0000 |       0.0000 |       0.0000 |       0.0000 |       0.0000 |       0.0000 |       0.0000 |       0.0000 |       0.0000 |       0.0000 |       0.0000 |       0.0000 |       0.0000 |       0.0000 |       0.0000 |       0.0000 |       0.0000 |       0.0000 |       0.0000 |       0.0000 |       0.0001 |       0.0001 |       0.0001 |       0.0001 |       0.0001 |       0.0001 |       0.0001 |       0.0001 |       0.0001 |       0.0001 |       0.0001 |       0.0001 |       0.0001 |       0.0001 |       0.0001 |       0.0001 |       0.0002 |       0.0002 |       0.0002 |       0.0002 |
dtlb.wb_rate                                0.0000 |       0.0000 |       0.0000 |       0.0000 |       0.0000 |       0.0000 |       0.0000 |       0.0000 |       0.0000 |       0.0000 |       0.0000 |       0.0000 |       0.0000 |       0.0000 |       0.0000 |       0.0000 |       0.0000 |       0.0000 |       0.0000 |       0.0000 |       0.0000 |       0.0000 |       0.0000 |       0.0000 |       0.0001 |       0.0001 |       0.0001 |       0.0001 |       0.0001 |       0.0001 |       0.0001 |       0.0001 |       0.0001 |       0.0001 |       0.0001 |       0.0001 |       0.0001 |       0.0001 |       0.0001 |       0.0001 |       0.0002 |       0.0002 |       0.0002 |       0.0002 |
dtlb.inv_rate                               0.0000 |       0.0000 |       0.0000 |       0.0000 |       0.0000 |       0.0000 |       0.0000 |       0.0000 |       0.0000 |       0.0000 |       0.0000 |       0.0000 |       0.0000 |       0.0000 |       0.0000 |       0.0000 |       0.0000 |       0.0000 |       0.0000 |       0.0000 |       0.0000 |       0.0000 |       0.0000 |       0.0000 |       0.0000 |       0.0000 |       0.0000 |       0.0000 |       0.0000 |       0.0000 |       0.0000 |       0.0000 |       0.0000 |       0.0000 |       0.0000 |       0.0000 |       0.0000 |       0.0000 |       0.0000 |       0.0000 |       0.0000 |       0.0000 |       0.0000 |       0.0000 |
ld_text_base                            0x00400000 |   0x00400000 |   0x00400000 |   0x00400000 |   0x00400000 |   0x00400000 |   0x00400000 |   0x00400000 |   0x00400000 |   0x00400000 |   0x00400000 |   0x00400000 |   0x00400000 |   0x00400000 |   0x00400000 |   0x00400000 |   0x00400000 |   0x00400000 |   0x00400000 |   0x00400000 |   0x00400000 |   0x00400000 |   0x00400000 |   0x00400000 |   0x00400000 |   0x00400000 |   0x00400000 |   0x00400000 |   0x00400000 |   0x00400000 |   0x00400000 |   0x00400000 |   0x00400000 |   0x00400000 |   0x00400000 |   0x00400000 |   0x00400000 |   0x00400000 |   0x00400000 |   0x00400000 |   0x00400000 |   0x00400000 |   0x00400000 |   0x00400000 |
ld_text_size                                 73136 |        73136 |        73136 |        73136 |        73168 |        73168 |        73168 |        73168 |        73184 |        73184 |        73184 |        73184 |        73200 |        73200 |        73200 |        73200 |        73200 |        73200 |        73200 |        73200 |        73200 |        73200 |        73200 |        73200 |        73200 |        73200 |        73200 |        73200 |        73200 |        73200 |        73200 |        73200 |        73200 |        73200 |        73200 |        73200 |        73200 |        73200 |        73200 |        73200 |        73200 |        73200 |        73200 |        73200 |
ld_data_base                            0x10000000 |   0x10000000 |   0x10000000 |   0x10000000 |   0x10000000 |   0x10000000 |   0x10000000 |   0x10000000 |   0x10000000 |   0x10000000 |   0x10000000 |   0x10000000 |   0x10000000 |   0x10000000 |   0x10000000 |   0x10000000 |   0x10000000 |   0x10000000 |   0x10000000 |   0x10000000 |   0x10000000 |   0x10000000 |   0x10000000 |   0x10000000 |   0x10000000 |   0x10000000 |   0x10000000 |   0x10000000 |   0x10000000 |   0x10000000 |   0x10000000 |   0x10000000 |   0x10000000 |   0x10000000 |   0x10000000 |   0x10000000 |   0x10000000 |   0x10000000 |   0x10000000 |   0x10000000 |   0x10000000 |   0x10000000 |   0x10000000 |   0x10000000 |
ld_data_size                                  8192 |         8192 |         8192 |         8192 |         8192 |         8192 |         8192 |         8192 |         8192 |         8192 |         8192 |         8192 |         8192 |         8192 |         8192 |         8192 |         8192 |         8192 |         8192 |         8192 |         8192 |         8192 |         8192 |         8192 |         8192 |         8192 |         8192 |         8192 |         8192 |         8192 |         8192 |         8192 |         8192 |         8192 |         8192 |         8192 |         8192 |         8192 |         8192 |         8192 |         8192 |         8192 |         8192 |         8192 |
ld_stack_base                           0x7fffc000 |   0x7fffc000 |   0x7fffc000 |   0x7fffc000 |   0x7fffc000 |   0x7fffc000 |   0x7fffc000 |   0x7fffc000 |   0x7fffc000 |   0x7fffc000 |   0x7fffc000 |   0x7fffc000 |   0x7fffc000 |   0x7fffc000 |   0x7fffc000 |   0x7fffc000 |   0x7fffc000 |   0x7fffc000 |   0x7fffc000 |   0x7fffc000 |   0x7fffc000 |   0x7fffc000 |   0x7fffc000 |   0x7fffc000 |   0x7fffc000 |   0x7fffc000 |   0x7fffc000 |   0x7fffc000 |   0x7fffc000 |   0x7fffc000 |   0x7fffc000 |   0x7fffc000 |   0x7fffc000 |   0x7fffc000 |   0x7fffc000 |   0x7fffc000 |   0x7fffc000 |   0x7fffc000 |   0x7fffc000 |   0x7fffc000 |   0x7fffc000 |   0x7fffc000 |   0x7fffc000 |   0x7fffc000 |
ld_stack_size                                16384 |        16384 |        16384 |        16384 |        16384 |        16384 |        16384 |        16384 |        16384 |        16384 |        16384 |        16384 |        16384 |        16384 |        16384 |        16384 |        16384 |        16384 |        16384 |        16384 |        16384 |        16384 |        16384 |        16384 |        16384 |        16384 |        16384 |        16384 |        16384 |        16384 |        16384 |        16384 |        16384 |        16384 |        16384 |        16384 |        16384 |        16384 |        16384 |        16384 |        16384 |        16384 |        16384 |        16384 |
ld_prog_entry                           0x00400140 |   0x00400140 |   0x00400140 |   0x00400140 |   0x00400140 |   0x00400140 |   0x00400140 |   0x00400140 |   0x00400140 |   0x00400140 |   0x00400140 |   0x00400140 |   0x00400140 |   0x00400140 |   0x00400140 |   0x00400140 |   0x00400140 |   0x00400140 |   0x00400140 |   0x00400140 |   0x00400140 |   0x00400140 |   0x00400140 |   0x00400140 |   0x00400140 |   0x00400140 |   0x00400140 |   0x00400140 |   0x00400140 |   0x00400140 |   0x00400140 |   0x00400140 |   0x00400140 |   0x00400140 |   0x00400140 |   0x00400140 |   0x00400140 |   0x00400140 |   0x00400140 |   0x00400140 |   0x00400140 |   0x00400140 |   0x00400140 |   0x00400140 |
ld_environ_base                         0x7fff8000 |   0x7fff8000 |   0x7fff8000 |   0x7fff8000 |   0x7fff8000 |   0x7fff8000 |   0x7fff8000 |   0x7fff8000 |   0x7fff8000 |   0x7fff8000 |   0x7fff8000 |   0x7fff8000 |   0x7fff8000 |   0x7fff8000 |   0x7fff8000 |   0x7fff8000 |   0x7fff8000 |   0x7fff8000 |   0x7fff8000 |   0x7fff8000 |   0x7fff8000 |   0x7fff8000 |   0x7fff8000 |   0x7fff8000 |   0x7fff8000 |   0x7fff8000 |   0x7fff8000 |   0x7fff8000 |   0x7fff8000 |   0x7fff8000 |   0x7fff8000 |   0x7fff8000 |   0x7fff8000 |   0x7fff8000 |   0x7fff8000 |   0x7fff8000 |   0x7fff8000 |   0x7fff8000 |   0x7fff8000 |   0x7fff8000 |   0x7fff8000 |   0x7fff8000 |   0x7fff8000 |   0x7fff8000 |
ld_target_big_endian                             0 |            0 |            0 |            0 |            0 |            0 |            0 |            0 |            0 |            0 |            0 |            0 |            0 |            0 |            0 |            0 |            0 |            0 |            0 |            0 |            0 |            0 |            0 |            0 |            0 |            0 |            0 |            0 |            0 |            0 |            0 |            0 |            0 |            0 |            0 |            0 |            0 |            0 |            0 |            0 |            0 |            0 |            0 |            0 |
mem.page_count                                  30 |           30 |           30 |           30 |           34 |           34 |           34 |           34 |           42 |           42 |           42 |           42 |           58 |           58 |           58 |           58 |           90 |           90 |           90 |           90 |          154 |          154 |          154 |          154 |          282 |          282 |          282 |          282 |          538 |          538 |          538 |          538 |         1050 |         1050 |         1050 |         1050 |         2074 |         2074 |         2074 |         2074 |         4122 |         4122 |         4122 |         4122 |
mem.page_mem                                  120k |         120k |         120k |         120k |         136k |         136k |         136k |         136k |         168k |         168k |         168k |         168k |         232k |         232k |         232k |         232k |         360k |         360k |         360k |         360k |         616k |         616k |         616k |         616k |        1128k |        1128k |        1128k |        1128k |        2152k |        2152k |        2152k |        2152k |        4200k |        4200k |        4200k |        4200k |        8296k |        8296k |        8296k |        8296k |       16488k |       16488k |       16488k |       16488k |
mem.ptab_misses                                 30 |           30 |           30 |           30 |           34 |           34 |           34 |           34 |           42 |           42 |           42 |           42 |           58 |           58 |           58 |           58 |           90 |           90 |           90 |           90 |          154 |          154 |          154 |          154 |          282 |          282 |          282 |          282 |          538 |          538 |          538 |          538 |         1050 |         1050 |         1050 |         1050 |         2074 |         2074 |         2074 |         2074 |         4122 |         4122 |         4122 |         4122 |
mem.ptab_accesses                          2758258 |      2758258 |      2758258 |      2758258 |      5426262 |      5426262 |      5426262 |      5426262 |     11370614 |     11370614 |     11370614 |     11370614 |     22799514 |     22799514 |     22799514 |     22799514 |     49815140 |     49815140 |     49815140 |     49815140 |    101084038 |    101084038 |    101084038 |    101084038 |    217762292 |    217762292 |    217762292 |    217762292 |    467734004 |    467734004 |    467734004 |    467734004 |    976108054 |    976108054 |    976108054 |    976108054 |   2007888858 |   2007888858 |   2007888858 |   2007888858 |   4250263138 |   4250263138 |   4250263138 |   4250263138 |
mem.ptab_miss_rate                          0.0000 |       0.0000 |       0.0000 |       0.0000 |       0.0000 |       0.0000 |       0.0000 |       0.0000 |       0.0000 |       0.0000 |       0.0000 |       0.0000 |       0.0000 |       0.0000 |       0.0000 |       0.0000 |       0.0000 |       0.0000 |       0.0000 |       0.0000 |       0.0000 |       0.0000 |       0.0000 |       0.0000 |       0.0000 |       0.0000 |       0.0000 |       0.0000 |       0.0000 |       0.0000 |       0.0000 |       0.0000 |       0.0000 |       0.0000 |       0.0000 |       0.0000 |       0.0000 |       0.0000 |       0.0000 |       0.0000 |       0.0000 |       0.0000 |       0.0000 |       0.0000 |
-------------------------------------------------------------------------------------------------
sim-bpred                                     4096 |         4096 |         4096 |         4096 |         4096 |         4096 |         4096 |         8192 |         8192 |         8192 |         8192 |         8192 |         8192 |         8192 |        16384 |        16384 |        16384 |        16384 |        16384 |        16384 |        16384 |        32768 |        32768 |        32768 |        32768 |        32768 |        32768 |        32768 |        65536 |        65536 |        65536 |        65536 |        65536 |        65536 |        65536 |       131072 |       131072 |       131072 |       131072 |       131072 |       131072 |       131072 |       262144 |       262144 |       262144 |       262144 |       262144 |       262144 |       262144 |       524288 |       524288 |       524288 |       524288 |       524288 |       524288 |       524288 |      1048576 |      1048576 |      1048576 |      1048576 |      1048576 |      1048576 |      1048576 |      2097152 |      2097152 |      2097152 |      2097152 |      2097152 |      2097152 |      2097152 |      4194304 |      4194304 |      4194304 |      4194304 |      4194304 |      4194304 |      4194304 |
-bpred bimod -bpred:bimod 512
-bpred bimod -bpred:bimod 1024
-bpred bimod -bpred:bimod 2048
-bpred 2lev -bpred:2lev 1 512 10 1
-bpred 2lev -bpred:2lev 1 1024 10 1
-bpred 2lev -bpred:2lev 1 2048 10 1
-bpred 2lev -bpred:2lev 1 4096 10 1
-------------------------------------------------------------------------------------------------
sim_num_insn                                503689 |       503689 |       503689 |       503689 |       503689 |       503689 |       503689 |      1089783 |      1089783 |      1089783 |      1089783 |      1089783 |      1089783 |      1089783 |      2402025 |      2402025 |      2402025 |      2402025 |      2402025 |      2402025 |      2402025 |      4912799 |      4912799 |      4912799 |      4912799 |      4912799 |      4912799 |      4912799 |     10895417 |     10895417 |     10895417 |     10895417 |     10895417 |     10895417 |     10895417 |     22178483 |     22178483 |     22178483 |     22178483 |     22178483 |     22178483 |     22178483 |     48006797 |     48006797 |     48006797 |     48006797 |     48006797 |     48006797 |     48006797 |    103453782 |    103453782 |    103453782 |    103453782 |    103453782 |    103453782 |    103453782 |    216080256 |    216080256 |    216080256 |    216080256 |    216080256 |    216080256 |    216080256 |    444428497 |    444428497 |    444428497 |    444428497 |    444428497 |    444428497 |    444428497 |    941990965 |    941990965 |    941990965 |    941990965 |    941990965 |    941990965 |    941990965 |
sim_num_refs                                128572 |       128572 |       128572 |       128572 |       128572 |       128572 |       128572 |       273906 |       273906 |       273906 |       273906 |       273906 |       273906 |       273906 |       588782 |       588782 |       588782 |       588782 |       588782 |       588782 |       588782 |      1216100 |      1216100 |      1216100 |      1216100 |      1216100 |      1216100 |      1216100 |      2627605 |      2627605 |      2627605 |      2627605 |      2627605 |      2627605 |      2627605 |      5433778 |      5433778 |      5433778 |      5433778 |      5433778 |      5433778 |      5433778 |     11591989 |     11591989 |     11591989 |     11591989 |     11591989 |     11591989 |     11591989 |     24635299 |     24635299 |     24635299 |     24635299 |     24635299 |     24635299 |     24635299 |     51472224 |     51472224 |     51472224 |     51472224 |     51472224 |     51472224 |     51472224 |    106471840 |    106471840 |    106471840 |    106471840 |    106471840 |    106471840 |    106471840 |    224145436 |    224145436 |    224145436 |    224145436 |    224145436 |    224145436 |    224145436 |
sim_elapsed_time                                 1 |            1 |            1 |            1 |            1 |            1 |            1 |            1 |            1 |            1 |            1 |            1 |            1 |            1 |            1 |            1 |            1 |            1 |            1 |            1 |            1 |            1 |            1 |            1 |            1 |            1 |            1 |            1 |            1 |            2 |            1 |            2 |            1 |            1 |            2 |            3 |            3 |            2 |            3 |            3 |            3 |            3 |            6 |            6 |            6 |            6 |            6 |            6 |            6 |           13 |           13 |           13 |           14 |           13 |           13 |           14 |           27 |           27 |           28 |           27 |           28 |           27 |           28 |           56 |           56 |           56 |           56 |           57 |           57 |           57 |          119 |          117 |          118 |          120 |          119 |          121 |          120 |
sim_inst_rate                          503689.0000 |  503689.0000 |  503689.0000 |  503689.0000 |  503689.0000 |  503689.0000 |  503689.0000 | 1089783.0000 | 1089783.0000 | 1089783.0000 | 1089783.0000 | 1089783.0000 | 1089783.0000 | 1089783.0000 | 2402025.0000 | 2402025.0000 | 2402025.0000 | 2402025.0000 | 2402025.0000 | 2402025.0000 | 2402025.0000 | 4912799.0000 | 4912799.0000 | 4912799.0000 | 4912799.0000 | 4912799.0000 | 4912799.0000 | 4912799.0000 |10895417.0000 | 5447708.5000 |10895417.0000 | 5447708.5000 |10895417.0000 |10895417.0000 | 5447708.5000 | 7392827.6667 | 7392827.6667 |11089241.5000 | 7392827.6667 | 7392827.6667 | 7392827.6667 | 7392827.6667 | 8001132.8333 | 8001132.8333 | 8001132.8333 | 8001132.8333 | 8001132.8333 | 8001132.8333 | 8001132.8333 | 7957983.2308 | 7957983.2308 | 7957983.2308 | 7389555.8571 | 7957983.2308 | 7957983.2308 | 7389555.8571 | 8002972.4444 | 8002972.4444 | 7717152.0000 | 8002972.4444 | 7717152.0000 | 8002972.4444 | 7717152.0000 | 7936223.1607 | 7936223.1607 | 7936223.1607 | 7936223.1607 | 7796991.1754 | 7796991.1754 | 7796991.1754 | 7915890.4622 | 8051204.8291 | 7982974.2797 | 7849924.7083 | 7915890.4622 | 7785049.2975 | 7849924.7083 |
sim_num_branches                             96743 |        96743 |        96743 |        96743 |        96743 |        96743 |        96743 |       216429 |       216429 |       216429 |       216429 |       216429 |       216429 |       216429 |       478377 |       478377 |       478377 |       478377 |       478377 |       478377 |       478377 |       991439 |       991439 |       991439 |       991439 |       991439 |       991439 |       991439 |      2242579 |      2242579 |      2242579 |      2242579 |      2242579 |      2242579 |      2242579 |      4538176 |      4538176 |      4538176 |      4538176 |      4538176 |      4538176 |      4538176 |      9899617 |      9899617 |      9899617 |      9899617 |      9899617 |      9899617 |      9899617 |     21447195 |     21447195 |     21447195 |     21447195 |     21447195 |     21447195 |     21447195 |     44833690 |     44833690 |     44833690 |     44833690 |     44833690 |     44833690 |     44833690 |     92771925 |     92771925 |     92771925 |     92771925 |     92771925 |     92771925 |     92771925 |    195157592 |    195157592 |    195157592 |    195157592 |    195157592 |    195157592 |    195157592 |
sim_IPB                                     5.2065 |       5.2065 |       5.2065 |       5.2065 |       5.2065 |       5.2065 |       5.2065 |       5.0353 |       5.0353 |       5.0353 |       5.0353 |       5.0353 |       5.0353 |       5.0353 |       5.0212 |       5.0212 |       5.0212 |       5.0212 |       5.0212 |       5.0212 |       5.0212 |       4.9552 |       4.9552 |       4.9552 |       4.9552 |       4.9552 |       4.9552 |       4.9552 |       4.8584 |       4.8584 |       4.8584 |       4.8584 |       4.8584 |       4.8584 |       4.8584 |       4.8871 |       4.8871 |       4.8871 |       4.8871 |       4.8871 |       4.8871 |       4.8871 |       4.8494 |       4.8494 |       4.8494 |       4.8494 |       4.8494 |       4.8494 |       4.8494 |       4.8237 |       4.8237 |       4.8237 |       4.8237 |       4.8237 |       4.8237 |       4.8237 |       4.8196 |       4.8196 |       4.8196 |       4.8196 |       4.8196 |       4.8196 |       4.8196 |       4.7905 |       4.7905 |       4.7905 |       4.7905 |       4.7905 |       4.7905 |       4.7905 |       4.8268 |       4.8268 |       4.8268 |       4.8268 |       4.8268 |       4.8268 |       4.8268 |
bpred_bimod.lookups                          96743 |        96743 |        96743 |xxxxxxxxxxxxx |xxxxxxxxxxxxx |xxxxxxxxxxxxx |xxxxxxxxxxxxx |       216429 |       216429 |       216429 |xxxxxxxxxxxxx |xxxxxxxxxxxxx |xxxxxxxxxxxxx |xxxxxxxxxxxxx |       478377 |       478377 |       478377 |xxxxxxxxxxxxx |xxxxxxxxxxxxx |xxxxxxxxxxxxx |xxxxxxxxxxxxx |       991439 |       991439 |       991439 |xxxxxxxxxxxxx |xxxxxxxxxxxxx |xxxxxxxxxxxxx |xxxxxxxxxxxxx |      2242579 |      2242579 |      2242579 |xxxxxxxxxxxxx |xxxxxxxxxxxxx |xxxxxxxxxxxxx |xxxxxxxxxxxxx |      4538176 |      4538176 |      4538176 |xxxxxxxxxxxxx |xxxxxxxxxxxxx |xxxxxxxxxxxxx |xxxxxxxxxxxxx |      9899617 |      9899617 |      9899617 |xxxxxxxxxxxxx |xxxxxxxxxxxxx |xxxxxxxxxxxxx |xxxxxxxxxxxxx |     21447195 |     21447195 |     21447195 |xxxxxxxxxxxxx |xxxxxxxxxxxxx |xxxxxxxxxxxxx |xxxxxxxxxxxxx |     44833690 |     44833690 |     44833690 |xxxxxxxxxxxxx |xxxxxxxxxxxxx |xxxxxxxxxxxxx |xxxxxxxxxxxxx |     92771925 |     92771925 |     92771925 |xxxxxxxxxxxxx |xxxxxxxxxxxxx |xxxxxxxxxxxxx |xxxxxxxxxxxxx |    195157592 |    195157592 |    195157592 |
bpred_bimod.updates                          96743 |        96743 |        96743 |xxxxxxxxxxxxx |xxxxxxxxxxxxx |xxxxxxxxxxxxx |xxxxxxxxxxxxx |       216429 |       216429 |       216429 |xxxxxxxxxxxxx |xxxxxxxxxxxxx |xxxxxxxxxxxxx |xxxxxxxxxxxxx |       478377 |       478377 |       478377 |xxxxxxxxxxxxx |xxxxxxxxxxxxx |xxxxxxxxxxxxx |xxxxxxxxxxxxx |       991439 |       991439 |       991439 |xxxxxxxxxxxxx |xxxxxxxxxxxxx |xxxxxxxxxxxxx |xxxxxxxxxxxxx |      2242579 |      2242579 |      2242579 |xxxxxxxxxxxxx |xxxxxxxxxxxxx |xxxxxxxxxxxxx |xxxxxxxxxxxxx |      4538176 |      4538176 |      4538176 |xxxxxxxxxxxxx |xxxxxxxxxxxxx |xxxxxxxxxxxxx |xxxxxxxxxxxxx |      9899617 |      9899617 |      9899617 |xxxxxxxxxxxxx |xxxxxxxxxxxxx |xxxxxxxxxxxxx |xxxxxxxxxxxxx |     21447195 |     21447195 |     21447195 |xxxxxxxxxxxxx |xxxxxxxxxxxxx |xxxxxxxxxxxxx |xxxxxxxxxxxxx |     44833690 |     44833690 |     44833690 |xxxxxxxxxxxxx |xxxxxxxxxxxxx |xxxxxxxxxxxxx |xxxxxxxxxxxxx |     92771925 |     92771925 |     92771925 |xxxxxxxxxxxxx |xxxxxxxxxxxxx |xxxxxxxxxxxxx |xxxxxxxxxxxxx |    195157592 |    195157592 |    195157592 |
bpred_bimod.addr_hits                        75646 |        75647 |        75649 |xxxxxxxxxxxxx |xxxxxxxxxxxxx |xxxxxxxxxxxxx |xxxxxxxxxxxxx |       169516 |       169515 |       169516 |xxxxxxxxxxxxx |xxxxxxxxxxxxx |xxxxxxxxxxxxx |xxxxxxxxxxxxx |       383305 |       383307 |       383307 |xxxxxxxxxxxxx |xxxxxxxxxxxxx |xxxxxxxxxxxxx |xxxxxxxxxxxxx |       778381 |       778382 |       778386 |xxxxxxxxxxxxx |xxxxxxxxxxxxx |xxxxxxxxxxxxx |xxxxxxxxxxxxx |      1807255 |      1807256 |      1807259 |xxxxxxxxxxxxx |xxxxxxxxxxxxx |xxxxxxxxxxxxx |xxxxxxxxxxxxx |      3576987 |      3576988 |      3576989 |xxxxxxxxxxxxx |xxxxxxxxxxxxx |xxxxxxxxxxxxx |xxxxxxxxxxxxx |      7886153 |      7886154 |      7886155 |xxxxxxxxxxxxx |xxxxxxxxxxxxx |xxxxxxxxxxxxx |xxxxxxxxxxxxx |     17350723 |     17350724 |     17350725 |xxxxxxxxxxxxx |xxxxxxxxxxxxx |xxxxxxxxxxxxx |xxxxxxxxxxxxx |     36173792 |     36173793 |     36173796 |xxxxxxxxxxxxx |xxxxxxxxxxxxx |xxxxxxxxxxxxx |xxxxxxxxxxxxx |     74251234 |     74251235 |     74251238 |xxxxxxxxxxxxx |xxxxxxxxxxxxx |xxxxxxxxxxxxx |xxxxxxxxxxxxx |    157074833 |    157074834 |    157074837 |
bpred_bimod.dir_hits                         75758 |        75756 |        75758 |xxxxxxxxxxxxx |xxxxxxxxxxxxx |xxxxxxxxxxxxx |xxxxxxxxxxxxx |       169626 |       169623 |       169625 |xxxxxxxxxxxxx |xxxxxxxxxxxxx |xxxxxxxxxxxxx |xxxxxxxxxxxxx |       383417 |       383416 |       383417 |xxxxxxxxxxxxx |xxxxxxxxxxxxx |xxxxxxxxxxxxx |xxxxxxxxxxxxx |       778493 |       778492 |       778495 |xxxxxxxxxxxxx |xxxxxxxxxxxxx |xxxxxxxxxxxxx |xxxxxxxxxxxxx |      1807366 |      1807364 |      1807367 |xxxxxxxxxxxxx |xxxxxxxxxxxxx |xxxxxxxxxxxxx |xxxxxxxxxxxxx |      3577101 |      3577100 |      3577100 |xxxxxxxxxxxxx |xxxxxxxxxxxxx |xxxxxxxxxxxxx |xxxxxxxxxxxxx |      7886267 |      7886266 |      7886266 |xxxxxxxxxxxxx |xxxxxxxxxxxxx |xxxxxxxxxxxxx |xxxxxxxxxxxxx |     17350836 |     17350835 |     17350835 |xxxxxxxxxxxxx |xxxxxxxxxxxxx |xxxxxxxxxxxxx |xxxxxxxxxxxxx |     36173904 |     36173903 |     36173906 |xxxxxxxxxxxxx |xxxxxxxxxxxxx |xxxxxxxxxxxxx |xxxxxxxxxxxxx |     74251346 |     74251345 |     74251348 |xxxxxxxxxxxxx |xxxxxxxxxxxxx |xxxxxxxxxxxxx |xxxxxxxxxxxxx |    157074944 |    157074943 |    157074945 |
bpred_bimod.misses                           20985 |        20987 |        20985 |xxxxxxxxxxxxx |xxxxxxxxxxxxx |xxxxxxxxxxxxx |xxxxxxxxxxxxx |        46803 |        46806 |        46804 |xxxxxxxxxxxxx |xxxxxxxxxxxxx |xxxxxxxxxxxxx |xxxxxxxxxxxxx |        94960 |        94961 |        94960 |xxxxxxxxxxxxx |xxxxxxxxxxxxx |xxxxxxxxxxxxx |xxxxxxxxxxxxx |       212946 |       212947 |       212944 |xxxxxxxxxxxxx |xxxxxxxxxxxxx |xxxxxxxxxxxxx |xxxxxxxxxxxxx |       435213 |       435215 |       435212 |xxxxxxxxxxxxx |xxxxxxxxxxxxx |xxxxxxxxxxxxx |xxxxxxxxxxxxx |       961075 |       961076 |       961076 |xxxxxxxxxxxxx |xxxxxxxxxxxxx |xxxxxxxxxxxxx |xxxxxxxxxxxxx |      2013350 |      2013351 |      2013351 |xxxxxxxxxxxxx |xxxxxxxxxxxxx |xxxxxxxxxxxxx |xxxxxxxxxxxxx |      4096359 |      4096360 |      4096360 |xxxxxxxxxxxxx |xxxxxxxxxxxxx |xxxxxxxxxxxxx |xxxxxxxxxxxxx |      8659786 |      8659787 |      8659784 |xxxxxxxxxxxxx |xxxxxxxxxxxxx |xxxxxxxxxxxxx |xxxxxxxxxxxxx |     18520579 |     18520580 |     18520577 |xxxxxxxxxxxxx |xxxxxxxxxxxxx |xxxxxxxxxxxxx |xxxxxxxxxxxxx |     38082648 |     38082649 |     38082647 |
bpred_bimod.jr_hits                             64 |           64 |           64 |xxxxxxxxxxxxx |xxxxxxxxxxxxx |xxxxxxxxxxxxx |xxxxxxxxxxxxx |           64 |           64 |           64 |xxxxxxxxxxxxx |xxxxxxxxxxxxx |xxxxxxxxxxxxx |xxxxxxxxxxxxx |           64 |           64 |           64 |xxxxxxxxxxxxx |xxxxxxxxxxxxx |xxxxxxxxxxxxx |xxxxxxxxxxxxx |           64 |           64 |           64 |xxxxxxxxxxxxx |xxxxxxxxxxxxx |xxxxxxxxxxxxx |xxxxxxxxxxxxx |           64 |           64 |           64 |xxxxxxxxxxxxx |xxxxxxxxxxxxx |xxxxxxxxxxxxx |xxxxxxxxxxxxx |           64 |           64 |           64 |xxxxxxxxxxxxx |xxxxxxxxxxxxx |xxxxxxxxxxxxx |xxxxxxxxxxxxx |           64 |           64 |           64 |xxxxxxxxxxxxx |xxxxxxxxxxxxx |xxxxxxxxxxxxx |xxxxxxxxxxxxx |           64 |           64 |           64 |xxxxxxxxxxxxx |xxxxxxxxxxxxx |xxxxxxxxxxxxx |xxxxxxxxxxxxx |           64 |           64 |           64 |xxxxxxxxxxxxx |xxxxxxxxxxxxx |xxxxxxxxxxxxx |xxxxxxxxxxxxx |           64 |           64 |           64 |xxxxxxxxxxxxx |xxxxxxxxxxxxx |xxxxxxxxxxxxx |xxxxxxxxxxxxx |           64 |           64 |           64 |
bpred_bimod.jr_seen                             64 |           64 |           64 |xxxxxxxxxxxxx |xxxxxxxxxxxxx |xxxxxxxxxxxxx |xxxxxxxxxxxxx |           64 |           64 |           64 |xxxxxxxxxxxxx |xxxxxxxxxxxxx |xxxxxxxxxxxxx |xxxxxxxxxxxxx |           64 |           64 |           64 |xxxxxxxxxxxxx |xxxxxxxxxxxxx |xxxxxxxxxxxxx |xxxxxxxxxxxxx |           64 |           64 |           64 |xxxxxxxxxxxxx |xxxxxxxxxxxxx |xxxxxxxxxxxxx |xxxxxxxxxxxxx |           64 |           64 |           64 |xxxxxxxxxxxxx |xxxxxxxxxxxxx |xxxxxxxxxxxxx |xxxxxxxxxxxxx |           64 |           64 |           64 |xxxxxxxxxxxxx |xxxxxxxxxxxxx |xxxxxxxxxxxxx |xxxxxxxxxxxxx |           64 |           64 |           64 |xxxxxxxxxxxxx |xxxxxxxxxxxxx |xxxxxxxxxxxxx |xxxxxxxxxxxxx |           64 |           64 |           64 |xxxxxxxxxxxxx |xxxxxxxxxxxxx |xxxxxxxxxxxxx |xxxxxxxxxxxxx |           64 |           64 |           64 |xxxxxxxxxxxxx |xxxxxxxxxxxxx |xxxxxxxxxxxxx |xxxxxxxxxxxxx |           64 |           64 |           64 |xxxxxxxxxxxxx |xxxxxxxxxxxxx |xxxxxxxxxxxxx |xxxxxxxxxxxxx |           64 |           64 |           64 |
bpred_bimod.jr_non_ras_hits.PP                   0 |            0 |            0 |xxxxxxxxxxxxx |xxxxxxxxxxxxx |xxxxxxxxxxxxx |xxxxxxxxxxxxx |            0 |            0 |            0 |xxxxxxxxxxxxx |xxxxxxxxxxxxx |xxxxxxxxxxxxx |xxxxxxxxxxxxx |            0 |            0 |            0 |xxxxxxxxxxxxx |xxxxxxxxxxxxx |xxxxxxxxxxxxx |xxxxxxxxxxxxx |            0 |            0 |            0 |xxxxxxxxxxxxx |xxxxxxxxxxxxx |xxxxxxxxxxxxx |xxxxxxxxxxxxx |            0 |            0 |            0 |xxxxxxxxxxxxx |xxxxxxxxxxxxx |xxxxxxxxxxxxx |xxxxxxxxxxxxx |            0 |            0 |            0 |xxxxxxxxxxxxx |xxxxxxxxxxxxx |xxxxxxxxxxxxx |xxxxxxxxxxxxx |            0 |            0 |            0 |xxxxxxxxxxxxx |xxxxxxxxxxxxx |xxxxxxxxxxxxx |xxxxxxxxxxxxx |            0 |            0 |            0 |xxxxxxxxxxxxx |xxxxxxxxxxxxx |xxxxxxxxxxxxx |xxxxxxxxxxxxx |            0 |            0 |            0 |xxxxxxxxxxxxx |xxxxxxxxxxxxx |xxxxxxxxxxxxx |xxxxxxxxxxxxx |            0 |            0 |            0 |xxxxxxxxxxxxx |xxxxxxxxxxxxx |xxxxxxxxxxxxx |xxxxxxxxxxxxx |            0 |            0 |            0 |
bpred_bimod.jr_non_ras_seen.PP                   0 |            0 |            0 |xxxxxxxxxxxxx |xxxxxxxxxxxxx |xxxxxxxxxxxxx |xxxxxxxxxxxxx |            0 |            0 |            0 |xxxxxxxxxxxxx |xxxxxxxxxxxxx |xxxxxxxxxxxxx |xxxxxxxxxxxxx |            0 |            0 |            0 |xxxxxxxxxxxxx |xxxxxxxxxxxxx |xxxxxxxxxxxxx |xxxxxxxxxxxxx |            0 |            0 |            0 |xxxxxxxxxxxxx |xxxxxxxxxxxxx |xxxxxxxxxxxxx |xxxxxxxxxxxxx |            0 |            0 |            0 |xxxxxxxxxxxxx |xxxxxxxxxxxxx |xxxxxxxxxxxxx |xxxxxxxxxxxxx |            0 |            0 |            0 |xxxxxxxxxxxxx |xxxxxxxxxxxxx |xxxxxxxxxxxxx |xxxxxxxxxxxxx |            0 |            0 |            0 |xxxxxxxxxxxxx |xxxxxxxxxxxxx |xxxxxxxxxxxxx |xxxxxxxxxxxxx |            0 |            0 |            0 |xxxxxxxxxxxxx |xxxxxxxxxxxxx |xxxxxxxxxxxxx |xxxxxxxxxxxxx |            0 |            0 |            0 |xxxxxxxxxxxxx |xxxxxxxxxxxxx |xxxxxxxxxxxxx |xxxxxxxxxxxxx |            0 |            0 |            0 |xxxxxxxxxxxxx |xxxxxxxxxxxxx |xxxxxxxxxxxxx |xxxxxxxxxxxxx |            0 |            0 |            0 |
bpred_bimod.bpred_addr_rate                 0.7819 |       0.7819 |       0.7820 |xxxxxxxxxxxxx |xxxxxxxxxxxxx |xxxxxxxxxxxxx |xxxxxxxxxxxxx |       0.7832 |       0.7832 |       0.7832 |xxxxxxxxxxxxx |xxxxxxxxxxxxx |xxxxxxxxxxxxx |xxxxxxxxxxxxx |       0.8013 |       0.8013 |       0.8013 |xxxxxxxxxxxxx |xxxxxxxxxxxxx |xxxxxxxxxxxxx |xxxxxxxxxxxxx |       0.7851 |       0.7851 |       0.7851 |xxxxxxxxxxxxx |xxxxxxxxxxxxx |xxxxxxxxxxxxx |xxxxxxxxxxxxx |       0.8059 |       0.8059 |       0.8059 |xxxxxxxxxxxxx |xxxxxxxxxxxxx |xxxxxxxxxxxxx |xxxxxxxxxxxxx |       0.7882 |       0.7882 |       0.7882 |xxxxxxxxxxxxx |xxxxxxxxxxxxx |xxxxxxxxxxxxx |xxxxxxxxxxxxx |       0.7966 |       0.7966 |       0.7966 |xxxxxxxxxxxxx |xxxxxxxxxxxxx |xxxxxxxxxxxxx |xxxxxxxxxxxxx |       0.8090 |       0.8090 |       0.8090 |xxxxxxxxxxxxx |xxxxxxxxxxxxx |xxxxxxxxxxxxx |xxxxxxxxxxxxx |       0.8068 |       0.8068 |       0.8068 |xxxxxxxxxxxxx |xxxxxxxxxxxxx |xxxxxxxxxxxxx |xxxxxxxxxxxxx |       0.8004 |       0.8004 |       0.8004 |xxxxxxxxxxxxx |xxxxxxxxxxxxx |xxxxxxxxxxxxx |xxxxxxxxxxxxx |       0.8049 |       0.8049 |       0.8049 |
bpred_bimod.bpred_dir_rate                  0.7831 |       0.7831 |       0.7831 |xxxxxxxxxxxxx |xxxxxxxxxxxxx |xxxxxxxxxxxxx |xxxxxxxxxxxxx |       0.7837 |       0.7837 |       0.7837 |xxxxxxxxxxxxx |xxxxxxxxxxxxx |xxxxxxxxxxxxx |xxxxxxxxxxxxx |       0.8015 |       0.8015 |       0.8015 |xxxxxxxxxxxxx |xxxxxxxxxxxxx |xxxxxxxxxxxxx |xxxxxxxxxxxxx |       0.7852 |       0.7852 |       0.7852 |xxxxxxxxxxxxx |xxxxxxxxxxxxx |xxxxxxxxxxxxx |xxxxxxxxxxxxx |       0.8059 |       0.8059 |       0.8059 |xxxxxxxxxxxxx |xxxxxxxxxxxxx |xxxxxxxxxxxxx |xxxxxxxxxxxxx |       0.7882 |       0.7882 |       0.7882 |xxxxxxxxxxxxx |xxxxxxxxxxxxx |xxxxxxxxxxxxx |xxxxxxxxxxxxx |       0.7966 |       0.7966 |       0.7966 |xxxxxxxxxxxxx |xxxxxxxxxxxxx |xxxxxxxxxxxxx |xxxxxxxxxxxxx |       0.8090 |       0.8090 |       0.8090 |xxxxxxxxxxxxx |xxxxxxxxxxxxx |xxxxxxxxxxxxx |xxxxxxxxxxxxx |       0.8068 |       0.8068 |       0.8068 |xxxxxxxxxxxxx |xxxxxxxxxxxxx |xxxxxxxxxxxxx |xxxxxxxxxxxxx |       0.8004 |       0.8004 |       0.8004 |xxxxxxxxxxxxx |xxxxxxxxxxxxx |xxxxxxxxxxxxx |xxxxxxxxxxxxx |       0.8049 |       0.8049 |       0.8049 |
bpred_bimod.bpred_jr_rate                   1.0000 |       1.0000 |       1.0000 |xxxxxxxxxxxxx |xxxxxxxxxxxxx |xxxxxxxxxxxxx |xxxxxxxxxxxxx |       1.0000 |       1.0000 |       1.0000 |xxxxxxxxxxxxx |xxxxxxxxxxxxx |xxxxxxxxxxxxx |xxxxxxxxxxxxx |       1.0000 |       1.0000 |       1.0000 |xxxxxxxxxxxxx |xxxxxxxxxxxxx |xxxxxxxxxxxxx |xxxxxxxxxxxxx |       1.0000 |       1.0000 |       1.0000 |xxxxxxxxxxxxx |xxxxxxxxxxxxx |xxxxxxxxxxxxx |xxxxxxxxxxxxx |       1.0000 |       1.0000 |       1.0000 |xxxxxxxxxxxxx |xxxxxxxxxxxxx |xxxxxxxxxxxxx |xxxxxxxxxxxxx |       1.0000 |       1.0000 |       1.0000 |xxxxxxxxxxxxx |xxxxxxxxxxxxx |xxxxxxxxxxxxx |xxxxxxxxxxxxx |       1.0000 |       1.0000 |       1.0000 |xxxxxxxxxxxxx |xxxxxxxxxxxxx |xxxxxxxxxxxxx |xxxxxxxxxxxxx |       1.0000 |       1.0000 |       1.0000 |xxxxxxxxxxxxx |xxxxxxxxxxxxx |xxxxxxxxxxxxx |xxxxxxxxxxxxx |       1.0000 |       1.0000 |       1.0000 |xxxxxxxxxxxxx |xxxxxxxxxxxxx |xxxxxxxxxxxxx |xxxxxxxxxxxxx |       1.0000 |       1.0000 |       1.0000 |xxxxxxxxxxxxx |xxxxxxxxxxxxx |xxxxxxxxxxxxx |xxxxxxxxxxxxx |       1.0000 |       1.0000 |       1.0000 |
bpred_bimod.bpred_jr_non_ras_rate.PP       <error: |      <error: |      <error: |xxxxxxxxxxxxx |xxxxxxxxxxxxx |xxxxxxxxxxxxx |xxxxxxxxxxxxx |      <error: |      <error: |      <error: |xxxxxxxxxxxxx |xxxxxxxxxxxxx |xxxxxxxxxxxxx |xxxxxxxxxxxxx |      <error: |      <error: |      <error: |xxxxxxxxxxxxx |xxxxxxxxxxxxx |xxxxxxxxxxxxx |xxxxxxxxxxxxx |      <error: |      <error: |      <error: |xxxxxxxxxxxxx |xxxxxxxxxxxxx |xxxxxxxxxxxxx |xxxxxxxxxxxxx |      <error: |      <error: |      <error: |xxxxxxxxxxxxx |xxxxxxxxxxxxx |xxxxxxxxxxxxx |xxxxxxxxxxxxx |      <error: |      <error: |      <error: |xxxxxxxxxxxxx |xxxxxxxxxxxxx |xxxxxxxxxxxxx |xxxxxxxxxxxxx |      <error: |      <error: |      <error: |xxxxxxxxxxxxx |xxxxxxxxxxxxx |xxxxxxxxxxxxx |xxxxxxxxxxxxx |      <error: |      <error: |      <error: |xxxxxxxxxxxxx |xxxxxxxxxxxxx |xxxxxxxxxxxxx |xxxxxxxxxxxxx |      <error: |      <error: |      <error: |xxxxxxxxxxxxx |xxxxxxxxxxxxx |xxxxxxxxxxxxx |xxxxxxxxxxxxx |      <error: |      <error: |      <error: |xxxxxxxxxxxxx |xxxxxxxxxxxxx |xxxxxxxxxxxxx |xxxxxxxxxxxxx |      <error: |      <error: |      <error: |
bpred_bimod.retstack_pushes                     66 |           66 |           66 |xxxxxxxxxxxxx |xxxxxxxxxxxxx |xxxxxxxxxxxxx |xxxxxxxxxxxxx |           66 |           66 |           66 |xxxxxxxxxxxxx |xxxxxxxxxxxxx |xxxxxxxxxxxxx |xxxxxxxxxxxxx |           66 |           66 |           66 |xxxxxxxxxxxxx |xxxxxxxxxxxxx |xxxxxxxxxxxxx |xxxxxxxxxxxxx |           66 |           66 |           66 |xxxxxxxxxxxxx |xxxxxxxxxxxxx |xxxxxxxxxxxxx |xxxxxxxxxxxxx |           66 |           66 |           66 |xxxxxxxxxxxxx |xxxxxxxxxxxxx |xxxxxxxxxxxxx |xxxxxxxxxxxxx |           66 |           66 |           66 |xxxxxxxxxxxxx |xxxxxxxxxxxxx |xxxxxxxxxxxxx |xxxxxxxxxxxxx |           66 |           66 |           66 |xxxxxxxxxxxxx |xxxxxxxxxxxxx |xxxxxxxxxxxxx |xxxxxxxxxxxxx |           66 |           66 |           66 |xxxxxxxxxxxxx |xxxxxxxxxxxxx |xxxxxxxxxxxxx |xxxxxxxxxxxxx |           66 |           66 |           66 |xxxxxxxxxxxxx |xxxxxxxxxxxxx |xxxxxxxxxxxxx |xxxxxxxxxxxxx |           66 |           66 |           66 |xxxxxxxxxxxxx |xxxxxxxxxxxxx |xxxxxxxxxxxxx |xxxxxxxxxxxxx |           66 |           66 |           66 |
bpred_bimod.retstack_pops                       64 |           64 |           64 |xxxxxxxxxxxxx |xxxxxxxxxxxxx |xxxxxxxxxxxxx |xxxxxxxxxxxxx |           64 |           64 |           64 |xxxxxxxxxxxxx |xxxxxxxxxxxxx |xxxxxxxxxxxxx |xxxxxxxxxxxxx |           64 |           64 |           64 |xxxxxxxxxxxxx |xxxxxxxxxxxxx |xxxxxxxxxxxxx |xxxxxxxxxxxxx |           64 |           64 |           64 |xxxxxxxxxxxxx |xxxxxxxxxxxxx |xxxxxxxxxxxxx |xxxxxxxxxxxxx |           64 |           64 |           64 |xxxxxxxxxxxxx |xxxxxxxxxxxxx |xxxxxxxxxxxxx |xxxxxxxxxxxxx |           64 |           64 |           64 |xxxxxxxxxxxxx |xxxxxxxxxxxxx |xxxxxxxxxxxxx |xxxxxxxxxxxxx |           64 |           64 |           64 |xxxxxxxxxxxxx |xxxxxxxxxxxxx |xxxxxxxxxxxxx |xxxxxxxxxxxxx |           64 |           64 |           64 |xxxxxxxxxxxxx |xxxxxxxxxxxxx |xxxxxxxxxxxxx |xxxxxxxxxxxxx |           64 |           64 |           64 |xxxxxxxxxxxxx |xxxxxxxxxxxxx |xxxxxxxxxxxxx |xxxxxxxxxxxxx |           64 |           64 |           64 |xxxxxxxxxxxxx |xxxxxxxxxxxxx |xxxxxxxxxxxxx |xxxxxxxxxxxxx |           64 |           64 |           64 |
bpred_bimod.used_ras.PP                         64 |           64 |           64 |xxxxxxxxxxxxx |xxxxxxxxxxxxx |xxxxxxxxxxxxx |xxxxxxxxxxxxx |           64 |           64 |           64 |xxxxxxxxxxxxx |xxxxxxxxxxxxx |xxxxxxxxxxxxx |xxxxxxxxxxxxx |           64 |           64 |           64 |xxxxxxxxxxxxx |xxxxxxxxxxxxx |xxxxxxxxxxxxx |xxxxxxxxxxxxx |           64 |           64 |           64 |xxxxxxxxxxxxx |xxxxxxxxxxxxx |xxxxxxxxxxxxx |xxxxxxxxxxxxx |           64 |           64 |           64 |xxxxxxxxxxxxx |xxxxxxxxxxxxx |xxxxxxxxxxxxx |xxxxxxxxxxxxx |           64 |           64 |           64 |xxxxxxxxxxxxx |xxxxxxxxxxxxx |xxxxxxxxxxxxx |xxxxxxxxxxxxx |           64 |           64 |           64 |xxxxxxxxxxxxx |xxxxxxxxxxxxx |xxxxxxxxxxxxx |xxxxxxxxxxxxx |           64 |           64 |           64 |xxxxxxxxxxxxx |xxxxxxxxxxxxx |xxxxxxxxxxxxx |xxxxxxxxxxxxx |           64 |           64 |           64 |xxxxxxxxxxxxx |xxxxxxxxxxxxx |xxxxxxxxxxxxx |xxxxxxxxxxxxx |           64 |           64 |           64 |xxxxxxxxxxxxx |xxxxxxxxxxxxx |xxxxxxxxxxxxx |xxxxxxxxxxxxx |           64 |           64 |           64 |
bpred_bimod.ras_hits.PP                         64 |           64 |           64 |xxxxxxxxxxxxx |xxxxxxxxxxxxx |xxxxxxxxxxxxx |xxxxxxxxxxxxx |           64 |           64 |           64 |xxxxxxxxxxxxx |xxxxxxxxxxxxx |xxxxxxxxxxxxx |xxxxxxxxxxxxx |           64 |           64 |           64 |xxxxxxxxxxxxx |xxxxxxxxxxxxx |xxxxxxxxxxxxx |xxxxxxxxxxxxx |           64 |           64 |           64 |xxxxxxxxxxxxx |xxxxxxxxxxxxx |xxxxxxxxxxxxx |xxxxxxxxxxxxx |           64 |           64 |           64 |xxxxxxxxxxxxx |xxxxxxxxxxxxx |xxxxxxxxxxxxx |xxxxxxxxxxxxx |           64 |           64 |           64 |xxxxxxxxxxxxx |xxxxxxxxxxxxx |xxxxxxxxxxxxx |xxxxxxxxxxxxx |           64 |           64 |           64 |xxxxxxxxxxxxx |xxxxxxxxxxxxx |xxxxxxxxxxxxx |xxxxxxxxxxxxx |           64 |           64 |           64 |xxxxxxxxxxxxx |xxxxxxxxxxxxx |xxxxxxxxxxxxx |xxxxxxxxxxxxx |           64 |           64 |           64 |xxxxxxxxxxxxx |xxxxxxxxxxxxx |xxxxxxxxxxxxx |xxxxxxxxxxxxx |           64 |           64 |           64 |xxxxxxxxxxxxx |xxxxxxxxxxxxx |xxxxxxxxxxxxx |xxxxxxxxxxxxx |           64 |           64 |           64 |
bpred_bimod.ras_rate.PP                     1.0000 |       1.0000 |       1.0000 |xxxxxxxxxxxxx |xxxxxxxxxxxxx |xxxxxxxxxxxxx |xxxxxxxxxxxxx |       1.0000 |       1.0000 |       1.0000 |xxxxxxxxxxxxx |xxxxxxxxxxxxx |xxxxxxxxxxxxx |xxxxxxxxxxxxx |       1.0000 |       1.0000 |       1.0000 |xxxxxxxxxxxxx |xxxxxxxxxxxxx |xxxxxxxxxxxxx |xxxxxxxxxxxxx |       1.0000 |       1.0000 |       1.0000 |xxxxxxxxxxxxx |xxxxxxxxxxxxx |xxxxxxxxxxxxx |xxxxxxxxxxxxx |       1.0000 |       1.0000 |       1.0000 |xxxxxxxxxxxxx |xxxxxxxxxxxxx |xxxxxxxxxxxxx |xxxxxxxxxxxxx |       1.0000 |       1.0000 |       1.0000 |xxxxxxxxxxxxx |xxxxxxxxxxxxx |xxxxxxxxxxxxx |xxxxxxxxxxxxx |       1.0000 |       1.0000 |       1.0000 |xxxxxxxxxxxxx |xxxxxxxxxxxxx |xxxxxxxxxxxxx |xxxxxxxxxxxxx |       1.0000 |       1.0000 |       1.0000 |xxxxxxxxxxxxx |xxxxxxxxxxxxx |xxxxxxxxxxxxx |xxxxxxxxxxxxx |       1.0000 |       1.0000 |       1.0000 |xxxxxxxxxxxxx |xxxxxxxxxxxxx |xxxxxxxxxxxxx |xxxxxxxxxxxxx |       1.0000 |       1.0000 |       1.0000 |xxxxxxxxxxxxx |xxxxxxxxxxxxx |xxxxxxxxxxxxx |xxxxxxxxxxxxx |       1.0000 |       1.0000 |       1.0000 |
bpred_2lev.lookups                   xxxxxxxxxxxxx |xxxxxxxxxxxxx |xxxxxxxxxxxxx |        96743 |        96743 |        96743 |        96743 |xxxxxxxxxxxxx |xxxxxxxxxxxxx |xxxxxxxxxxxxx |       216429 |       216429 |       216429 |       216429 |xxxxxxxxxxxxx |xxxxxxxxxxxxx |xxxxxxxxxxxxx |       478377 |       478377 |       478377 |       478377 |xxxxxxxxxxxxx |xxxxxxxxxxxxx |xxxxxxxxxxxxx |       991439 |       991439 |       991439 |       991439 |xxxxxxxxxxxxx |xxxxxxxxxxxxx |xxxxxxxxxxxxx |      2242579 |      2242579 |      2242579 |      2242579 |xxxxxxxxxxxxx |xxxxxxxxxxxxx |xxxxxxxxxxxxx |      4538176 |      4538176 |      4538176 |      4538176 |xxxxxxxxxxxxx |xxxxxxxxxxxxx |xxxxxxxxxxxxx |      9899617 |      9899617 |      9899617 |      9899617 |xxxxxxxxxxxxx |xxxxxxxxxxxxx |xxxxxxxxxxxxx |     21447195 |     21447195 |     21447195 |     21447195 |xxxxxxxxxxxxx |xxxxxxxxxxxxx |xxxxxxxxxxxxx |     44833690 |     44833690 |     44833690 |     44833690 |xxxxxxxxxxxxx |xxxxxxxxxxxxx |xxxxxxxxxxxxx |     92771925 |     92771925 |     92771925 |     92771925 |xxxxxxxxxxxxx |xxxxxxxxxxxxx |xxxxxxxxxxxxx |    195157592 |    195157592 |    195157592 |    195157592 |
[...]
bpred_2lev.retstack_pushes           xxxxxxxxxxxxx |xxxxxxxxxxxxx |xxxxxxxxxxxxx |           66 |           66 |           66 |           66 |xxxxxxxxxxxxx |xxxxxxxxxxxxx |xxxxxxxxxxxxx |           66 |           66 |           66 |           66 |xxxxxxxxxxxxx |xxxxxxxxxxxxx |xxxxxxxxxxxxx |           66 |           66 |           66 |           66 |xxxxxxxxxxxxx |xxxxxxxxxxxxx |xxxxxxxxxxxxx |           66 |           66 |           66 |           66 |xxxxxxxxxxxxx |xxxxxxxxxxxxx |xxxxxxxxxxxxx |           66 |           66 |           66 |           66 |xxxxxxxxxxxxx |xxxxxxxxxxxxx |xxxxxxxxxxxxx |           66 |           66 |           66 |           66 |xxxxxxxxxxxxx |xxxxxxxxxxxxx |xxxxxxxxxxxxx |           66 |           66 |           66 |           66 |xxxxxxxxxxxxx |xxxxxxxxxxxxx |xxxxxxxxxxxxx |           66 |           66 |           66 |           66 |xxxxxxxxxxxxx |xxxxxxxxxxxxx |xxxxxxxxxxxxx |           66 |           66 |           66 |           66 |xxxxxxxxxxxxx |xxxxxxxxxxxxx |xxxxxxxxxxxxx |           66 |           66 |           66 |           66 |xxxxxxxxxxxxx |xxxxxxxxxxxxx |xxxxxxxxxxxxx |           66 |           66 |           66 |           66 |
bpred_2lev.retstack_pops             xxxxxxxxxxxxx |xxxxxxxxxxxxx |xxxxxxxxxxxxx |           64 |           64 |           64 |           64 |xxxxxxxxxxxxx |xxxxxxxxxxxxx |xxxxxxxxxxxxx |           64 |           64 |           64 |           64 |xxxxxxxxxxxxx |xxxxxxxxxxxxx |xxxxxxxxxxxxx |           64 |           64 |           64 |           64 |xxxxxxxxxxxxx |xxxxxxxxxxxxx |xxxxxxxxxxxxx |           64 |           64 |           64 |           64 |xxxxxxxxxxxxx |xxxxxxxxxxxxx |xxxxxxxxxxxxx |           64 |           64 |           64 |           64 |xxxxxxxxxxxxx |xxxxxxxxxxxxx |xxxxxxxxxxxxx |           64 |           64 |           64 |           64 |xxxxxxxxxxxxx |xxxxxxxxxxxxx |xxxxxxxxxxxxx |           64 |           64 |           64 |           64 |xxxxxxxxxxxxx |xxxxxxxxxxxxx |xxxxxxxxxxxxx |           64 |           64 |           64 |           64 |xxxxxxxxxxxxx |xxxxxxxxxxxxx |xxxxxxxxxxxxx |           64 |           64 |           64 |           64 |xxxxxxxxxxxxx |xxxxxxxxxxxxx |xxxxxxxxxxxxx |           64 |           64 |           64 |           64 |xxxxxxxxxxxxx |xxxxxxxxxxxxx |xxxxxxxxxxxxx |           64 |           64 |           64 |           64 |
bpred_2lev.used_ras.PP               xxxxxxxxxxxxx |xxxxxxxxxxxxx |xxxxxxxxxxxxx |           64 |           64 |           64 |           64 |xxxxxxxxxxxxx |xxxxxxxxxxxxx |xxxxxxxxxxxxx |           64 |           64 |           64 |           64 |xxxxxxxxxxxxx |xxxxxxxxxxxxx |xxxxxxxxxxxxx |           64 |           64 |           64 |           64 |xxxxxxxxxxxxx |xxxxxxxxxxxxx |xxxxxxxxxxxxx |           64 |           64 |           64 |           64 |xxxxxxxxxxxxx |xxxxxxxxxxxxx |xxxxxxxxxxxxx |           64 |           64 |           64 |           64 |xxxxxxxxxxxxx |xxxxxxxxxxxxx |xxxxxxxxxxxxx |           64 |           64 |           64 |           64 |xxxxxxxxxxxxx |xxxxxxxxxxxxx |xxxxxxxxxxxxx |           64 |           64 |           64 |           64 |xxxxxxxxxxxxx |xxxxxxxxxxxxx |xxxxxxxxxxxxx |           64 |           64 |           64 |           64 |xxxxxxxxxxxxx |xxxxxxxxxxxxx |xxxxxxxxxxxxx |           64 |           64 |           64 |           64 |xxxxxxxxxxxxx |xxxxxxxxxxxxx |xxxxxxxxxxxxx |           64 |           64 |           64 |           64 |xxxxxxxxxxxxx |xxxxxxxxxxxxx |xxxxxxxxxxxxx |           64 |           64 |           64 |           64 |
bpred_2lev.ras_hits.PP               xxxxxxxxxxxxx |xxxxxxxxxxxxx |xxxxxxxxxxxxx |           64 |           64 |           64 |           64 |xxxxxxxxxxxxx |xxxxxxxxxxxxx |xxxxxxxxxxxxx |           64 |           64 |           64 |           64 |xxxxxxxxxxxxx |xxxxxxxxxxxxx |xxxxxxxxxxxxx |           64 |           64 |           64 |           64 |xxxxxxxxxxxxx |xxxxxxxxxxxxx |xxxxxxxxxxxxx |           64 |           64 |           64 |           64 |xxxxxxxxxxxxx |xxxxxxxxxxxxx |xxxxxxxxxxxxx |           64 |           64 |           64 |           64 |xxxxxxxxxxxxx |xxxxxxxxxxxxx |xxxxxxxxxxxxx |           64 |           64 |           64 |           64 |xxxxxxxxxxxxx |xxxxxxxxxxxxx |xxxxxxxxxxxxx |           64 |           64 |           64 |           64 |xxxxxxxxxxxxx |xxxxxxxxxxxxx |xxxxxxxxxxxxx |           64 |           64 |           64 |           64 |xxxxxxxxxxxxx |xxxxxxxxxxxxx |xxxxxxxxxxxxx |           64 |           64 |           64 |           64 |xxxxxxxxxxxxx |xxxxxxxxxxxxx |xxxxxxxxxxxxx |           64 |           64 |           64 |           64 |xxxxxxxxxxxxx |xxxxxxxxxxxxx |xxxxxxxxxxxxx |           64 |           64 |           64 |           64 |
bpred_2lev.ras_rate.PP               xxxxxxxxxxxxx |xxxxxxxxxxxxx |xxxxxxxxxxxxx |       1.0000 |       1.0000 |       1.0000 |       1.0000 |xxxxxxxxxxxxx |xxxxxxxxxxxxx |xxxxxxxxxxxxx |       1.0000 |       1.0000 |       1.0000 |       1.0000 |xxxxxxxxxxxxx |xxxxxxxxxxxxx |xxxxxxxxxxxxx |       1.0000 |       1.0000 |       1.0000 |       1.0000 |xxxxxxxxxxxxx |xxxxxxxxxxxxx |xxxxxxxxxxxxx |       1.0000 |       1.0000 |       1.0000 |       1.0000 |xxxxxxxxxxxxx |xxxxxxxxxxxxx |xxxxxxxxxxxxx |       1.0000 |       1.0000 |       1.0000 |       1.0000 |xxxxxxxxxxxxx |xxxxxxxxxxxxx |xxxxxxxxxxxxx |       1.0000 |       1.0000 |       1.0000 |       1.0000 |xxxxxxxxxxxxx |xxxxxxxxxxxxx |xxxxxxxxxxxxx |       1.0000 |       1.0000 |       1.0000 |       1.0000 |xxxxxxxxxxxxx |xxxxxxxxxxxxx |xxxxxxxxxxxxx |       1.0000 |       1.0000 |       1.0000 |       1.0000 |xxxxxxxxxxxxx |xxxxxxxxxxxxx |xxxxxxxxxxxxx |       1.0000 |       1.0000 |       1.0000 |       1.0000 |xxxxxxxxxxxxx |xxxxxxxxxxxxx |xxxxxxxxxxxxx |       1.0000 |       1.0000 |       1.0000 |       1.0000 |xxxxxxxxxxxxx |xxxxxxxxxxxxx |xxxxxxxxxxxxx |       1.0000 |       1.0000 |       1.0000 |       1.0000 |

Command list: 
	sslittle-na-sstrix-gcc -Wall -O3 -funroll-loops -finline-functions  -DRANDOM_SIZE=4096 -DOFFSET=9 -DSORT=base_quicksort1 sorts/base_quicksort166333049.c simpleMain.c -o base_quicksort1596363375
	sim-cache -cache:dl1 dl1:256:32:1:l -cache:dl2 dl2:131072:32:1:l -cache:il1 il1:256:32:1:l -cache:il2 dl2 base_quicksort1596363375
	sim-cache -cache:dl1 dl1:256:32:1:l -cache:dl2 dl2:65536:32:1:l -cache:il1 il1:256:32:1:l -cache:il2 dl2 base_quicksort1596363375
	sim-cache -cache:dl1 dl1:1:32:256:l -cache:dl2 dl2:1:32:131072:l -cache:il1 il1:1:32:256:l -cache:il2 dl2 base_quicksort1596363375
	sim-cache -cache:dl1 dl1:1:32:256:l -cache:dl2 dl2:1:32:65536:l -cache:il1 il1:1:32:256:l -cache:il2 dl2 base_quicksort1596363375
	sim-bpred -bpred bimod -bpred:bimod 512 base_quicksort1596363375
	sim-bpred -bpred bimod -bpred:bimod 1024 base_quicksort1596363375
	sim-bpred -bpred bimod -bpred:bimod 2048 base_quicksort1596363375
	sim-bpred -bpred 2lev -bpred:2lev 1 512 10 1 base_quicksort1596363375
	sim-bpred -bpred 2lev -bpred:2lev 1 1024 10 1 base_quicksort1596363375
	sim-bpred -bpred 2lev -bpred:2lev 1 2048 10 1 base_quicksort1596363375
	sim-bpred -bpred 2lev -bpred:2lev 1 4096 10 1 base_quicksort1596363375
	sslittle-na-sstrix-gcc -Wall -O3 -funroll-loops -finline-functions  -DRANDOM_SIZE=8192 -DOFFSET=9 -DSORT=base_quicksort1 sorts/base_quicksort166333049.c simpleMain.c -o base_quicksort1596363375
	sim-cache -cache:dl1 dl1:256:32:1:l -cache:dl2 dl2:131072:32:1:l -cache:il1 il1:256:32:1:l -cache:il2 dl2 base_quicksort1596363375
	sim-cache -cache:dl1 dl1:256:32:1:l -cache:dl2 dl2:65536:32:1:l -cache:il1 il1:256:32:1:l -cache:il2 dl2 base_quicksort1596363375
	sim-cache -cache:dl1 dl1:1:32:256:l -cache:dl2 dl2:1:32:131072:l -cache:il1 il1:1:32:256:l -cache:il2 dl2 base_quicksort1596363375
	sim-cache -cache:dl1 dl1:1:32:256:l -cache:dl2 dl2:1:32:65536:l -cache:il1 il1:1:32:256:l -cache:il2 dl2 base_quicksort1596363375
	sim-bpred -bpred bimod -bpred:bimod 512 base_quicksort1596363375
	sim-bpred -bpred bimod -bpred:bimod 1024 base_quicksort1596363375
	sim-bpred -bpred bimod -bpred:bimod 2048 base_quicksort1596363375
	sim-bpred -bpred 2lev -bpred:2lev 1 512 10 1 base_quicksort1596363375
	sim-bpred -bpred 2lev -bpred:2lev 1 1024 10 1 base_quicksort1596363375
	sim-bpred -bpred 2lev -bpred:2lev 1 2048 10 1 base_quicksort1596363375
	sim-bpred -bpred 2lev -bpred:2lev 1 4096 10 1 base_quicksort1596363375
	sslittle-na-sstrix-gcc -Wall -O3 -funroll-loops -finline-functions  -DRANDOM_SIZE=16384 -DOFFSET=9 -DSORT=base_quicksort1 sorts/base_quicksort166333049.c simpleMain.c -o base_quicksort1596363375
	sim-cache -cache:dl1 dl1:256:32:1:l -cache:dl2 dl2:131072:32:1:l -cache:il1 il1:256:32:1:l -cache:il2 dl2 base_quicksort1596363375
	sim-cache -cache:dl1 dl1:256:32:1:l -cache:dl2 dl2:65536:32:1:l -cache:il1 il1:256:32:1:l -cache:il2 dl2 base_quicksort1596363375
	sim-cache -cache:dl1 dl1:1:32:256:l -cache:dl2 dl2:1:32:131072:l -cache:il1 il1:1:32:256:l -cache:il2 dl2 base_quicksort1596363375
	sim-cache -cache:dl1 dl1:1:32:256:l -cache:dl2 dl2:1:32:65536:l -cache:il1 il1:1:32:256:l -cache:il2 dl2 base_quicksort1596363375
	sim-bpred -bpred bimod -bpred:bimod 512 base_quicksort1596363375
	sim-bpred -bpred bimod -bpred:bimod 1024 base_quicksort1596363375
	sim-bpred -bpred bimod -bpred:bimod 2048 base_quicksort1596363375
	sim-bpred -bpred 2lev -bpred:2lev 1 512 10 1 base_quicksort1596363375
	sim-bpred -bpred 2lev -bpred:2lev 1 1024 10 1 base_quicksort1596363375
	sim-bpred -bpred 2lev -bpred:2lev 1 2048 10 1 base_quicksort1596363375
	sim-bpred -bpred 2lev -bpred:2lev 1 4096 10 1 base_quicksort1596363375
	sslittle-na-sstrix-gcc -Wall -O3 -funroll-loops -finline-functions  -DRANDOM_SIZE=32768 -DOFFSET=9 -DSORT=base_quicksort1 sorts/base_quicksort166333049.c simpleMain.c -o base_quicksort1596363375
	sim-cache -cache:dl1 dl1:256:32:1:l -cache:dl2 dl2:131072:32:1:l -cache:il1 il1:256:32:1:l -cache:il2 dl2 base_quicksort1596363375
	sim-cache -cache:dl1 dl1:256:32:1:l -cache:dl2 dl2:65536:32:1:l -cache:il1 il1:256:32:1:l -cache:il2 dl2 base_quicksort1596363375
	sim-cache -cache:dl1 dl1:1:32:256:l -cache:dl2 dl2:1:32:131072:l -cache:il1 il1:1:32:256:l -cache:il2 dl2 base_quicksort1596363375
	sim-cache -cache:dl1 dl1:1:32:256:l -cache:dl2 dl2:1:32:65536:l -cache:il1 il1:1:32:256:l -cache:il2 dl2 base_quicksort1596363375
	sim-bpred -bpred bimod -bpred:bimod 512 base_quicksort1596363375
	sim-bpred -bpred bimod -bpred:bimod 1024 base_quicksort1596363375
	sim-bpred -bpred bimod -bpred:bimod 2048 base_quicksort1596363375
	sim-bpred -bpred 2lev -bpred:2lev 1 512 10 1 base_quicksort1596363375
	sim-bpred -bpred 2lev -bpred:2lev 1 1024 10 1 base_quicksort1596363375
	sim-bpred -bpred 2lev -bpred:2lev 1 2048 10 1 base_quicksort1596363375
	sim-bpred -bpred 2lev -bpred:2lev 1 4096 10 1 base_quicksort1596363375
	sslittle-na-sstrix-gcc -Wall -O3 -funroll-loops -finline-functions  -DRANDOM_SIZE=65536 -DOFFSET=9 -DSORT=base_quicksort1 sorts/base_quicksort166333049.c simpleMain.c -o base_quicksort1596363375
	sim-cache -cache:dl1 dl1:256:32:1:l -cache:dl2 dl2:131072:32:1:l -cache:il1 il1:256:32:1:l -cache:il2 dl2 base_quicksort1596363375
	sim-cache -cache:dl1 dl1:256:32:1:l -cache:dl2 dl2:65536:32:1:l -cache:il1 il1:256:32:1:l -cache:il2 dl2 base_quicksort1596363375
	sim-cache -cache:dl1 dl1:1:32:256:l -cache:dl2 dl2:1:32:131072:l -cache:il1 il1:1:32:256:l -cache:il2 dl2 base_quicksort1596363375
	sim-cache -cache:dl1 dl1:1:32:256:l -cache:dl2 dl2:1:32:65536:l -cache:il1 il1:1:32:256:l -cache:il2 dl2 base_quicksort1596363375
	sim-bpred -bpred bimod -bpred:bimod 512 base_quicksort1596363375
	sim-bpred -bpred bimod -bpred:bimod 1024 base_quicksort1596363375
	sim-bpred -bpred bimod -bpred:bimod 2048 base_quicksort1596363375
	sim-bpred -bpred 2lev -bpred:2lev 1 512 10 1 base_quicksort1596363375
	sim-bpred -bpred 2lev -bpred:2lev 1 1024 10 1 base_quicksort1596363375
	sim-bpred -bpred 2lev -bpred:2lev 1 2048 10 1 base_quicksort1596363375
	sim-bpred -bpred 2lev -bpred:2lev 1 4096 10 1 base_quicksort1596363375
	sslittle-na-sstrix-gcc -Wall -O3 -funroll-loops -finline-functions  -DRANDOM_SIZE=131072 -DOFFSET=9 -DSORT=base_quicksort1 sorts/base_quicksort166333049.c simpleMain.c -o base_quicksort1596363375
	sim-cache -cache:dl1 dl1:256:32:1:l -cache:dl2 dl2:131072:32:1:l -cache:il1 il1:256:32:1:l -cache:il2 dl2 base_quicksort1596363375
	sim-cache -cache:dl1 dl1:256:32:1:l -cache:dl2 dl2:65536:32:1:l -cache:il1 il1:256:32:1:l -cache:il2 dl2 base_quicksort1596363375
	sim-cache -cache:dl1 dl1:1:32:256:l -cache:dl2 dl2:1:32:131072:l -cache:il1 il1:1:32:256:l -cache:il2 dl2 base_quicksort1596363375
	sim-cache -cache:dl1 dl1:1:32:256:l -cache:dl2 dl2:1:32:65536:l -cache:il1 il1:1:32:256:l -cache:il2 dl2 base_quicksort1596363375
	sim-bpred -bpred bimod -bpred:bimod 512 base_quicksort1596363375
	sim-bpred -bpred bimod -bpred:bimod 1024 base_quicksort1596363375
	sim-bpred -bpred bimod -bpred:bimod 2048 base_quicksort1596363375
	sim-bpred -bpred 2lev -bpred:2lev 1 512 10 1 base_quicksort1596363375
	sim-bpred -bpred 2lev -bpred:2lev 1 1024 10 1 base_quicksort1596363375
	sim-bpred -bpred 2lev -bpred:2lev 1 2048 10 1 base_quicksort1596363375
	sim-bpred -bpred 2lev -bpred:2lev 1 4096 10 1 base_quicksort1596363375
	sslittle-na-sstrix-gcc -Wall -O3 -funroll-loops -finline-functions  -DRANDOM_SIZE=262144 -DOFFSET=9 -DSORT=base_quicksort1 sorts/base_quicksort166333049.c simpleMain.c -o base_quicksort1596363375
	sim-cache -cache:dl1 dl1:256:32:1:l -cache:dl2 dl2:131072:32:1:l -cache:il1 il1:256:32:1:l -cache:il2 dl2 base_quicksort1596363375
	sim-cache -cache:dl1 dl1:256:32:1:l -cache:dl2 dl2:65536:32:1:l -cache:il1 il1:256:32:1:l -cache:il2 dl2 base_quicksort1596363375
	sim-cache -cache:dl1 dl1:1:32:256:l -cache:dl2 dl2:1:32:131072:l -cache:il1 il1:1:32:256:l -cache:il2 dl2 base_quicksort1596363375
	sim-cache -cache:dl1 dl1:1:32:256:l -cache:dl2 dl2:1:32:65536:l -cache:il1 il1:1:32:256:l -cache:il2 dl2 base_quicksort1596363375
	sim-bpred -bpred bimod -bpred:bimod 512 base_quicksort1596363375
	sim-bpred -bpred bimod -bpred:bimod 1024 base_quicksort1596363375
	sim-bpred -bpred bimod -bpred:bimod 2048 base_quicksort1596363375
	sim-bpred -bpred 2lev -bpred:2lev 1 512 10 1 base_quicksort1596363375
	sim-bpred -bpred 2lev -bpred:2lev 1 1024 10 1 base_quicksort1596363375
	sim-bpred -bpred 2lev -bpred:2lev 1 2048 10 1 base_quicksort1596363375
	sim-bpred -bpred 2lev -bpred:2lev 1 4096 10 1 base_quicksort1596363375
	sslittle-na-sstrix-gcc -Wall -O3 -funroll-loops -finline-functions  -DRANDOM_SIZE=524288 -DOFFSET=9 -DSORT=base_quicksort1 sorts/base_quicksort166333049.c simpleMain.c -o base_quicksort1596363375
	sim-cache -cache:dl1 dl1:256:32:1:l -cache:dl2 dl2:131072:32:1:l -cache:il1 il1:256:32:1:l -cache:il2 dl2 base_quicksort1596363375
	sim-cache -cache:dl1 dl1:256:32:1:l -cache:dl2 dl2:65536:32:1:l -cache:il1 il1:256:32:1:l -cache:il2 dl2 base_quicksort1596363375
	sim-cache -cache:dl1 dl1:1:32:256:l -cache:dl2 dl2:1:32:131072:l -cache:il1 il1:1:32:256:l -cache:il2 dl2 base_quicksort1596363375
	sim-cache -cache:dl1 dl1:1:32:256:l -cache:dl2 dl2:1:32:65536:l -cache:il1 il1:1:32:256:l -cache:il2 dl2 base_quicksort1596363375
	sim-bpred -bpred bimod -bpred:bimod 512 base_quicksort1596363375
	sim-bpred -bpred bimod -bpred:bimod 1024 base_quicksort1596363375
	sim-bpred -bpred bimod -bpred:bimod 2048 base_quicksort1596363375
	sim-bpred -bpred 2lev -bpred:2lev 1 512 10 1 base_quicksort1596363375
	sim-bpred -bpred 2lev -bpred:2lev 1 1024 10 1 base_quicksort1596363375
	sim-bpred -bpred 2lev -bpred:2lev 1 2048 10 1 base_quicksort1596363375
	sim-bpred -bpred 2lev -bpred:2lev 1 4096 10 1 base_quicksort1596363375
	sslittle-na-sstrix-gcc -Wall -O3 -funroll-loops -finline-functions  -DRANDOM_SIZE=1048576 -DOFFSET=9 -DSORT=base_quicksort1 sorts/base_quicksort166333049.c simpleMain.c -o base_quicksort1596363375
	sim-cache -cache:dl1 dl1:256:32:1:l -cache:dl2 dl2:131072:32:1:l -cache:il1 il1:256:32:1:l -cache:il2 dl2 base_quicksort1596363375
	sim-cache -cache:dl1 dl1:256:32:1:l -cache:dl2 dl2:65536:32:1:l -cache:il1 il1:256:32:1:l -cache:il2 dl2 base_quicksort1596363375
	sim-cache -cache:dl1 dl1:1:32:256:l -cache:dl2 dl2:1:32:131072:l -cache:il1 il1:1:32:256:l -cache:il2 dl2 base_quicksort1596363375
	sim-cache -cache:dl1 dl1:1:32:256:l -cache:dl2 dl2:1:32:65536:l -cache:il1 il1:1:32:256:l -cache:il2 dl2 base_quicksort1596363375
	sim-bpred -bpred bimod -bpred:bimod 512 base_quicksort1596363375
	sim-bpred -bpred bimod -bpred:bimod 1024 base_quicksort1596363375
	sim-bpred -bpred bimod -bpred:bimod 2048 base_quicksort1596363375
	sim-bpred -bpred 2lev -bpred:2lev 1 512 10 1 base_quicksort1596363375
	sim-bpred -bpred 2lev -bpred:2lev 1 1024 10 1 base_quicksort1596363375
	sim-bpred -bpred 2lev -bpred:2lev 1 2048 10 1 base_quicksort1596363375
	sim-bpred -bpred 2lev -bpred:2lev 1 4096 10 1 base_quicksort1596363375
	sslittle-na-sstrix-gcc -Wall -O3 -funroll-loops -finline-functions  -DRANDOM_SIZE=2097152 -DOFFSET=9 -DSORT=base_quicksort1 sorts/base_quicksort166333049.c simpleMain.c -o base_quicksort1596363375
	sim-cache -cache:dl1 dl1:256:32:1:l -cache:dl2 dl2:131072:32:1:l -cache:il1 il1:256:32:1:l -cache:il2 dl2 base_quicksort1596363375
	sim-cache -cache:dl1 dl1:256:32:1:l -cache:dl2 dl2:65536:32:1:l -cache:il1 il1:256:32:1:l -cache:il2 dl2 base_quicksort1596363375
	sim-cache -cache:dl1 dl1:1:32:256:l -cache:dl2 dl2:1:32:131072:l -cache:il1 il1:1:32:256:l -cache:il2 dl2 base_quicksort1596363375
	sim-cache -cache:dl1 dl1:1:32:256:l -cache:dl2 dl2:1:32:65536:l -cache:il1 il1:1:32:256:l -cache:il2 dl2 base_quicksort1596363375
	sim-bpred -bpred bimod -bpred:bimod 512 base_quicksort1596363375
	sim-bpred -bpred bimod -bpred:bimod 1024 base_quicksort1596363375
	sim-bpred -bpred bimod -bpred:bimod 2048 base_quicksort1596363375
	sim-bpred -bpred 2lev -bpred:2lev 1 512 10 1 base_quicksort1596363375
	sim-bpred -bpred 2lev -bpred:2lev 1 1024 10 1 base_quicksort1596363375
	sim-bpred -bpred 2lev -bpred:2lev 1 2048 10 1 base_quicksort1596363375
	sim-bpred -bpred 2lev -bpred:2lev 1 4096 10 1 base_quicksort1596363375
	sslittle-na-sstrix-gcc -Wall -O3 -funroll-loops -finline-functions  -DRANDOM_SIZE=4194304 -DOFFSET=9 -DSORT=base_quicksort1 sorts/base_quicksort166333049.c simpleMain.c -o base_quicksort1596363375
	sim-cache -cache:dl1 dl1:256:32:1:l -cache:dl2 dl2:131072:32:1:l -cache:il1 il1:256:32:1:l -cache:il2 dl2 base_quicksort1596363375
	sim-cache -cache:dl1 dl1:256:32:1:l -cache:dl2 dl2:65536:32:1:l -cache:il1 il1:256:32:1:l -cache:il2 dl2 base_quicksort1596363375
	sim-cache -cache:dl1 dl1:1:32:256:l -cache:dl2 dl2:1:32:131072:l -cache:il1 il1:1:32:256:l -cache:il2 dl2 base_quicksort1596363375
	sim-cache -cache:dl1 dl1:1:32:256:l -cache:dl2 dl2:1:32:65536:l -cache:il1 il1:1:32:256:l -cache:il2 dl2 base_quicksort1596363375
	sim-bpred -bpred bimod -bpred:bimod 512 base_quicksort1596363375
	sim-bpred -bpred bimod -bpred:bimod 1024 base_quicksort1596363375
	sim-bpred -bpred bimod -bpred:bimod 2048 base_quicksort1596363375
	sim-bpred -bpred 2lev -bpred:2lev 1 512 10 1 base_quicksort1596363375
	sim-bpred -bpred 2lev -bpred:2lev 1 1024 10 1 base_quicksort1596363375
	sim-bpred -bpred 2lev -bpred:2lev 1 2048 10 1 base_quicksort1596363375
	sim-bpred -bpred 2lev -bpred:2lev 1 4096 10 1 base_quicksort1596363375
