Sat Jul 30 00:29:55 2005
Run as: "./do_simple -c random.org8 -o 8 base_mergesort"
-------------------------------------------------------------------------------------------------
sim-cache                                     4096 |         4096 |         4096 |         4096 |         8192 |         8192 |         8192 |         8192 |        16384 |        16384 |        16384 |        16384 |        32768 |        32768 |        32768 |        32768 |        65536 |        65536 |        65536 |        65536 |       131072 |       131072 |       131072 |       131072 |       262144 |       262144 |       262144 |       262144 |       524288 |       524288 |       524288 |       524288 |      1048576 |      1048576 |      1048576 |      1048576 |      2097152 |      2097152 |      2097152 |      2097152 |      4194304 |      4194304 |      4194304 |      4194304 |
-cache:dl1 dl1:256:32:1:l -cache:dl2 dl2:131072:32:1:l -cache:il1 il1:256:32:1:l -cache:il2 dl2
-cache:dl1 dl1:256:32:1:l -cache:dl2 dl2:65536:32:1:l -cache:il1 il1:256:32:1:l -cache:il2 dl2
-cache:dl1 dl1:1:32:256:l -cache:dl2 dl2:1:32:131072:l -cache:il1 il1:1:32:256:l -cache:il2 dl2
-cache:dl1 dl1:1:32:256:l -cache:dl2 dl2:1:32:65536:l -cache:il1 il1:1:32:256:l -cache:il2 dl2
-------------------------------------------------------------------------------------------------
sim_num_insn                                750689 |       750689 |       750689 |       750689 |      1651743 |      1651743 |      1651743 |      1651743 |      3525896 |      3525896 |      3525896 |      3525896 |      7674992 |      7674992 |      7674992 |      7674992 |     16252545 |     16252545 |     16252545 |     16252545 |     34985805 |     34985805 |     34985805 |     34985805 |     73642294 |     73642294 |     73642294 |     73642294 |    157276281 |    157276281 |    157276281 |    157276281 |    329242741 |    329242741 |    329242741 |    329242741 |    698359656 |    698359656 |    698359656 |    698359656 |   1455349481 |   1455349481 |   1455349481 |   1455349481 |
sim_num_refs                                205553 |       205553 |       205553 |       205553 |       460812 |       460812 |       460812 |       460812 |       958609 |       958609 |       958609 |       958609 |      2127744 |      2127744 |      2127744 |      2127744 |      4413717 |      4413717 |      4413717 |      4413717 |      9674682 |      9674682 |      9674682 |      9674682 |     20002989 |     20002989 |     20002989 |     20002989 |     43416618 |     43416618 |     43416618 |     43416618 |     89459179 |     89459179 |     89459179 |     89459179 |    192546850 |    192546850 |    192546850 |    192546850 |    395549717 |    395549717 |    395549717 |    395549717 |
sim_elapsed_time                                 1 |            1 |            9 |            5 |            1 |            1 |           16 |            8 |            1 |            1 |           26 |           14 |            2 |            2 |           48 |           24 |            4 |            4 |           88 |           43 |           10 |            9 |          162 |           75 |           19 |           20 |          278 |          107 |           42 |           42 |          386 |          132 |           88 |           88 |          440 |          185 |          188 |          187 |          556 |          300 |          387 |          388 |          791 |          527 |
sim_inst_rate                          750689.0000 |  750689.0000 |   83409.8889 |  150137.8000 | 1651743.0000 | 1651743.0000 |  103233.9375 |  206467.8750 | 3525896.0000 | 3525896.0000 |  135611.3846 |  251849.7143 | 3837496.0000 | 3837496.0000 |  159895.6667 |  319791.3333 | 4063136.2500 | 4063136.2500 |  184688.0114 |  377966.1628 | 3498580.5000 | 3887311.6667 |  215961.7593 |  466477.4000 | 3875910.2105 | 3682114.7000 |  264900.3381 |  688245.7383 | 3744673.3571 | 3744673.3571 |  407451.5052 | 1191486.9773 | 3741394.7841 | 3741394.7841 |  748278.9568 | 1779690.4919 | 3714679.0213 | 3734543.6150 | 1256042.5468 | 2327865.5200 | 3760592.9742 | 3750900.7242 | 1839885.5638 | 2761573.9677 |
il1.accesses                                750689 |       750689 |       750689 |       750689 |      1651743 |      1651743 |      1651743 |      1651743 |      3525896 |      3525896 |      3525896 |      3525896 |      7674992 |      7674992 |      7674992 |      7674992 |     16252545 |     16252545 |     16252545 |     16252545 |     34985805 |     34985805 |     34985805 |     34985805 |     73642294 |     73642294 |     73642294 |     73642294 |    157276281 |    157276281 |    157276281 |    157276281 |    329242741 |    329242741 |    329242741 |    329242741 |    698359656 |    698359656 |    698359656 |    698359656 |   1455349481 |   1455349481 |   1455349481 |   1455349481 |
il1.hits                                    750216 |       750216 |       750269 |       750269 |      1651219 |      1651219 |      1651282 |      1651282 |      3525383 |      3525383 |      3525463 |      3525463 |      7674468 |      7674468 |      7674530 |      7674530 |     16252041 |     16252041 |     16252106 |     16252106 |     34985280 |     34985280 |     34985343 |     34985343 |     73641789 |     73641789 |     73641855 |     73641855 |    157275756 |    157275756 |    157275819 |    157275819 |    329242201 |    329242201 |    329242269 |    329242269 |    698359106 |    698359106 |    698359182 |    698359182 |   1455348941 |   1455348941 |   1455349009 |   1455349009 |
il1.misses                                     473 |          473 |          420 |          420 |          524 |          524 |          461 |          461 |          513 |          513 |          433 |          433 |          524 |          524 |          462 |          462 |          504 |          504 |          439 |          439 |          525 |          525 |          462 |          462 |          505 |          505 |          439 |          439 |          525 |          525 |          462 |          462 |          540 |          540 |          472 |          472 |          550 |          550 |          474 |          474 |          540 |          540 |          472 |          472 |
il1.replacements                               269 |          269 |          164 |          164 |          307 |          307 |          205 |          205 |          313 |          313 |          177 |          177 |          308 |          308 |          206 |          206 |          302 |          302 |          183 |          183 |          309 |          309 |          206 |          206 |          303 |          303 |          183 |          183 |          309 |          309 |          206 |          206 |          311 |          311 |          216 |          216 |          321 |          321 |          218 |          218 |          311 |          311 |          216 |          216 |
il1.writebacks                                   0 |            0 |            0 |            0 |            0 |            0 |            0 |            0 |            0 |            0 |            0 |            0 |            0 |            0 |            0 |            0 |            0 |            0 |            0 |            0 |            0 |            0 |            0 |            0 |            0 |            0 |            0 |            0 |            0 |            0 |            0 |            0 |            0 |            0 |            0 |            0 |            0 |            0 |            0 |            0 |            0 |            0 |            0 |            0 |
il1.invalidations                                0 |            0 |            0 |            0 |            0 |            0 |            0 |            0 |            0 |            0 |            0 |            0 |            0 |            0 |            0 |            0 |            0 |            0 |            0 |            0 |            0 |            0 |            0 |            0 |            0 |            0 |            0 |            0 |            0 |            0 |            0 |            0 |            0 |            0 |            0 |            0 |            0 |            0 |            0 |            0 |            0 |            0 |            0 |            0 |
il1.miss_rate                               0.0006 |       0.0006 |       0.0006 |       0.0006 |       0.0003 |       0.0003 |       0.0003 |       0.0003 |       0.0001 |       0.0001 |       0.0001 |       0.0001 |       0.0001 |       0.0001 |       0.0001 |       0.0001 |       0.0000 |       0.0000 |       0.0000 |       0.0000 |       0.0000 |       0.0000 |       0.0000 |       0.0000 |       0.0000 |       0.0000 |       0.0000 |       0.0000 |       0.0000 |       0.0000 |       0.0000 |       0.0000 |       0.0000 |       0.0000 |       0.0000 |       0.0000 |       0.0000 |       0.0000 |       0.0000 |       0.0000 |       0.0000 |       0.0000 |       0.0000 |       0.0000 |
il1.repl_rate                               0.0004 |       0.0004 |       0.0002 |       0.0002 |       0.0002 |       0.0002 |       0.0001 |       0.0001 |       0.0001 |       0.0001 |       0.0001 |       0.0001 |       0.0000 |       0.0000 |       0.0000 |       0.0000 |       0.0000 |       0.0000 |       0.0000 |       0.0000 |       0.0000 |       0.0000 |       0.0000 |       0.0000 |       0.0000 |       0.0000 |       0.0000 |       0.0000 |       0.0000 |       0.0000 |       0.0000 |       0.0000 |       0.0000 |       0.0000 |       0.0000 |       0.0000 |       0.0000 |       0.0000 |       0.0000 |       0.0000 |       0.0000 |       0.0000 |       0.0000 |       0.0000 |
il1.wb_rate                                 0.0000 |       0.0000 |       0.0000 |       0.0000 |       0.0000 |       0.0000 |       0.0000 |       0.0000 |       0.0000 |       0.0000 |       0.0000 |       0.0000 |       0.0000 |       0.0000 |       0.0000 |       0.0000 |       0.0000 |       0.0000 |       0.0000 |       0.0000 |       0.0000 |       0.0000 |       0.0000 |       0.0000 |       0.0000 |       0.0000 |       0.0000 |       0.0000 |       0.0000 |       0.0000 |       0.0000 |       0.0000 |       0.0000 |       0.0000 |       0.0000 |       0.0000 |       0.0000 |       0.0000 |       0.0000 |       0.0000 |       0.0000 |       0.0000 |       0.0000 |       0.0000 |
il1.inv_rate                                0.0000 |       0.0000 |       0.0000 |       0.0000 |       0.0000 |       0.0000 |       0.0000 |       0.0000 |       0.0000 |       0.0000 |       0.0000 |       0.0000 |       0.0000 |       0.0000 |       0.0000 |       0.0000 |       0.0000 |       0.0000 |       0.0000 |       0.0000 |       0.0000 |       0.0000 |       0.0000 |       0.0000 |       0.0000 |       0.0000 |       0.0000 |       0.0000 |       0.0000 |       0.0000 |       0.0000 |       0.0000 |       0.0000 |       0.0000 |       0.0000 |       0.0000 |       0.0000 |       0.0000 |       0.0000 |       0.0000 |       0.0000 |       0.0000 |       0.0000 |       0.0000 |
dl1.accesses                                222019 |       222019 |       222019 |       222019 |       493662 |       493662 |       493662 |       493662 |      1024227 |      1024227 |      1024227 |      1024227 |      2258898 |      2258898 |      2258898 |      2258898 |      4675943 |      4675943 |      4675943 |      4675943 |     10199052 |     10199052 |     10199052 |     10199052 |     21051647 |     21051647 |     21051647 |     21051647 |     45513852 |     45513852 |     45513852 |     45513852 |     93653565 |     93653565 |     93653565 |     93653565 |    200935540 |    200935540 |    200935540 |    200935540 |    412327015 |    412327015 |    412327015 |    412327015 |
dl1.hits                                    210133 |       210133 |       210293 |       210293 |       466042 |       466042 |       466562 |       466562 |       969078 |       969078 |       970491 |       970491 |      2131739 |      2131739 |      2135494 |      2135494 |      4420078 |      4420078 |      4429599 |      4429599 |      9618443 |      9618443 |      9641280 |      9641280 |     19883507 |     19883507 |     19936567 |     19936567 |     42901888 |     42901888 |     43022000 |     43022000 |     88400100 |     88400100 |     88669166 |     88669166 |    189323953 |    189323953 |    189919009 |    189919009 |    388991279 |    388991279 |    390294808 |    390294808 |
dl1.misses                                   11886 |        11886 |        11726 |        11726 |        27620 |        27620 |        27100 |        27100 |        55149 |        55149 |        53736 |        53736 |       127159 |       127159 |       123404 |       123404 |       255865 |       255865 |       246344 |       246344 |       580609 |       580609 |       557772 |       557772 |      1168140 |      1168140 |      1115080 |      1115080 |      2611964 |      2611964 |      2491852 |      2491852 |      5253465 |      5253465 |      4984399 |      4984399 |     11611587 |     11611587 |     11016531 |     11016531 |     23335736 |     23335736 |     22032207 |     22032207 |
dl1.replacements                             11630 |        11630 |        11470 |        11470 |        27364 |        27364 |        26844 |        26844 |        54893 |        54893 |        53480 |        53480 |       126903 |       126903 |       123148 |       123148 |       255609 |       255609 |       246088 |       246088 |       580353 |       580353 |       557516 |       557516 |      1167884 |      1167884 |      1114824 |      1114824 |      2611708 |      2611708 |      2491596 |      2491596 |      5253209 |      5253209 |      4984143 |      4984143 |     11611331 |     11611331 |     11016275 |     11016275 |     23335480 |     23335480 |     22031951 |     22031951 |
dl1.writebacks                                6555 |         6555 |         6449 |         6449 |        14847 |        14847 |        14649 |        14649 |        29523 |        29523 |        28993 |        28993 |        67073 |        67073 |        65881 |        65881 |       134273 |       134273 |       131454 |       131454 |       301869 |       301869 |       295382 |       295382 |       605237 |       605237 |       590458 |       590458 |      1344669 |      1344669 |      1311688 |      1311688 |      2697226 |      2697226 |      2623831 |      2623831 |      5931801 |      5931801 |      5771659 |      5771659 |     11891838 |     11891838 |     11543013 |     11543013 |
dl1.invalidations                                0 |            0 |            0 |            0 |            0 |            0 |            0 |            0 |            0 |            0 |            0 |            0 |            0 |            0 |            0 |            0 |            0 |            0 |            0 |            0 |            0 |            0 |            0 |            0 |            0 |            0 |            0 |            0 |            0 |            0 |            0 |            0 |            0 |            0 |            0 |            0 |            0 |            0 |            0 |            0 |            0 |            0 |            0 |            0 |
dl1.miss_rate                               0.0535 |       0.0535 |       0.0528 |       0.0528 |       0.0559 |       0.0559 |       0.0549 |       0.0549 |       0.0538 |       0.0538 |       0.0525 |       0.0525 |       0.0563 |       0.0563 |       0.0546 |       0.0546 |       0.0547 |       0.0547 |       0.0527 |       0.0527 |       0.0569 |       0.0569 |       0.0547 |       0.0547 |       0.0555 |       0.0555 |       0.0530 |       0.0530 |       0.0574 |       0.0574 |       0.0547 |       0.0547 |       0.0561 |       0.0561 |       0.0532 |       0.0532 |       0.0578 |       0.0578 |       0.0548 |       0.0548 |       0.0566 |       0.0566 |       0.0534 |       0.0534 |
dl1.repl_rate                               0.0524 |       0.0524 |       0.0517 |       0.0517 |       0.0554 |       0.0554 |       0.0544 |       0.0544 |       0.0536 |       0.0536 |       0.0522 |       0.0522 |       0.0562 |       0.0562 |       0.0545 |       0.0545 |       0.0547 |       0.0547 |       0.0526 |       0.0526 |       0.0569 |       0.0569 |       0.0547 |       0.0547 |       0.0555 |       0.0555 |       0.0530 |       0.0530 |       0.0574 |       0.0574 |       0.0547 |       0.0547 |       0.0561 |       0.0561 |       0.0532 |       0.0532 |       0.0578 |       0.0578 |       0.0548 |       0.0548 |       0.0566 |       0.0566 |       0.0534 |       0.0534 |
dl1.wb_rate                                 0.0295 |       0.0295 |       0.0290 |       0.0290 |       0.0301 |       0.0301 |       0.0297 |       0.0297 |       0.0288 |       0.0288 |       0.0283 |       0.0283 |       0.0297 |       0.0297 |       0.0292 |       0.0292 |       0.0287 |       0.0287 |       0.0281 |       0.0281 |       0.0296 |       0.0296 |       0.0290 |       0.0290 |       0.0288 |       0.0288 |       0.0280 |       0.0280 |       0.0295 |       0.0295 |       0.0288 |       0.0288 |       0.0288 |       0.0288 |       0.0280 |       0.0280 |       0.0295 |       0.0295 |       0.0287 |       0.0287 |       0.0288 |       0.0288 |       0.0280 |       0.0280 |
dl1.inv_rate                                0.0000 |       0.0000 |       0.0000 |       0.0000 |       0.0000 |       0.0000 |       0.0000 |       0.0000 |       0.0000 |       0.0000 |       0.0000 |       0.0000 |       0.0000 |       0.0000 |       0.0000 |       0.0000 |       0.0000 |       0.0000 |       0.0000 |       0.0000 |       0.0000 |       0.0000 |       0.0000 |       0.0000 |       0.0000 |       0.0000 |       0.0000 |       0.0000 |       0.0000 |       0.0000 |       0.0000 |       0.0000 |       0.0000 |       0.0000 |       0.0000 |       0.0000 |       0.0000 |       0.0000 |       0.0000 |       0.0000 |       0.0000 |       0.0000 |       0.0000 |       0.0000 |
dl2.accesses                                 18914 |        18914 |        18595 |        18595 |        42991 |        42991 |        42210 |        42210 |        85185 |        85185 |        83162 |        83162 |       194756 |       194756 |       189747 |       189747 |       390642 |       390642 |       378237 |       378237 |       883003 |       883003 |       853616 |       853616 |      1773882 |      1773882 |      1705977 |      1705977 |      3957158 |      3957158 |      3804002 |      3804002 |      7951231 |      7951231 |      7608702 |      7608702 |     17543938 |     17543938 |     16788664 |     16788664 |     35228114 |     35228114 |     33575692 |     33575692 |
dl2.hits                                     17041 |        17041 |        16748 |        16748 |        40078 |        40078 |        39327 |        39327 |        80247 |        80247 |        78257 |        78257 |       185696 |       185696 |       180719 |       180719 |       373410 |       373410 |       361038 |       361038 |       849367 |       849367 |       820012 |       820012 |      1707498 |      1658055 |      1639626 |      1543337 |      3768564 |      1661646 |      3471472 |      1312774 |      3362017 |      2968342 |      2626328 |      2626269 |      6527378 |      6527050 |      5776141 |      5776141 |     13195726 |     13194823 |     11551583 |     11551583 |
dl2.misses                                    1873 |         1873 |         1847 |         1847 |         2913 |         2913 |         2883 |         2883 |         4938 |         4938 |         4905 |         4905 |         9060 |         9060 |         9028 |         9028 |        17232 |        17232 |        17199 |        17199 |        33636 |        33636 |        33604 |        33604 |        66384 |       115827 |        66351 |       162640 |       188594 |      2295512 |       332530 |      2491228 |      4589214 |      4982889 |      4982374 |      4982433 |     11016560 |     11016888 |     11012523 |     11012523 |     22032388 |     22033291 |     22024109 |     22024109 |
dl2.replacements                               254 |          254 |            0 |            0 |          283 |          283 |            0 |            0 |          282 |          282 |            0 |            0 |          306 |          306 |            0 |            0 |          287 |          287 |            0 |            0 |          307 |          307 |            0 |            0 |          288 |        51402 |            0 |        97104 |        58632 |      2229976 |       201458 |      2425692 |      4458142 |      4917353 |      4851302 |      4916897 |     10885488 |     10951352 |     10881451 |     10946987 |     21901316 |     21967755 |     21893037 |     21958573 |
dl2.writebacks                                 175 |          175 |            0 |            0 |          186 |          186 |            0 |            0 |          183 |          183 |            0 |            0 |          208 |          208 |            0 |            0 |          188 |          188 |            0 |            0 |          208 |          208 |            0 |            0 |          188 |        27970 |            0 |        96866 |        31873 |      1182729 |       201203 |      1278406 |      2449132 |      2581007 |      2557073 |      2589841 |      5641611 |      5707211 |      5703537 |      5736305 |     11455306 |     11499174 |     11472163 |     11504931 |
dl2.invalidations                                0 |            0 |            0 |            0 |            0 |            0 |            0 |            0 |            0 |            0 |            0 |            0 |            0 |            0 |            0 |            0 |            0 |            0 |            0 |            0 |            0 |            0 |            0 |            0 |            0 |            0 |            0 |            0 |            0 |            0 |            0 |            0 |            0 |            0 |            0 |            0 |            0 |            0 |            0 |            0 |            0 |            0 |            0 |            0 |
dl2.miss_rate                               0.0990 |       0.0990 |       0.0993 |       0.0993 |       0.0678 |       0.0678 |       0.0683 |       0.0683 |       0.0580 |       0.0580 |       0.0590 |       0.0590 |       0.0465 |       0.0465 |       0.0476 |       0.0476 |       0.0441 |       0.0441 |       0.0455 |       0.0455 |       0.0381 |       0.0381 |       0.0394 |       0.0394 |       0.0374 |       0.0653 |       0.0389 |       0.0953 |       0.0477 |       0.5801 |       0.0874 |       0.6549 |       0.5772 |       0.6267 |       0.6548 |       0.6548 |       0.6279 |       0.6280 |       0.6559 |       0.6559 |       0.6254 |       0.6254 |       0.6560 |       0.6560 |
dl2.repl_rate                               0.0134 |       0.0134 |       0.0000 |       0.0000 |       0.0066 |       0.0066 |       0.0000 |       0.0000 |       0.0033 |       0.0033 |       0.0000 |       0.0000 |       0.0016 |       0.0016 |       0.0000 |       0.0000 |       0.0007 |       0.0007 |       0.0000 |       0.0000 |       0.0003 |       0.0003 |       0.0000 |       0.0000 |       0.0002 |       0.0290 |       0.0000 |       0.0569 |       0.0148 |       0.5635 |       0.0530 |       0.6377 |       0.5607 |       0.6184 |       0.6376 |       0.6462 |       0.6205 |       0.6242 |       0.6481 |       0.6520 |       0.6217 |       0.6236 |       0.6521 |       0.6540 |
dl2.wb_rate                                 0.0093 |       0.0093 |       0.0000 |       0.0000 |       0.0043 |       0.0043 |       0.0000 |       0.0000 |       0.0021 |       0.0021 |       0.0000 |       0.0000 |       0.0011 |       0.0011 |       0.0000 |       0.0000 |       0.0005 |       0.0005 |       0.0000 |       0.0000 |       0.0002 |       0.0002 |       0.0000 |       0.0000 |       0.0001 |       0.0158 |       0.0000 |       0.0568 |       0.0081 |       0.2989 |       0.0529 |       0.3361 |       0.3080 |       0.3246 |       0.3361 |       0.3404 |       0.3216 |       0.3253 |       0.3397 |       0.3417 |       0.3252 |       0.3264 |       0.3417 |       0.3427 |
dl2.inv_rate                                0.0000 |       0.0000 |       0.0000 |       0.0000 |       0.0000 |       0.0000 |       0.0000 |       0.0000 |       0.0000 |       0.0000 |       0.0000 |       0.0000 |       0.0000 |       0.0000 |       0.0000 |       0.0000 |       0.0000 |       0.0000 |       0.0000 |       0.0000 |       0.0000 |       0.0000 |       0.0000 |       0.0000 |       0.0000 |       0.0000 |       0.0000 |       0.0000 |       0.0000 |       0.0000 |       0.0000 |       0.0000 |       0.0000 |       0.0000 |       0.0000 |       0.0000 |       0.0000 |       0.0000 |       0.0000 |       0.0000 |       0.0000 |       0.0000 |       0.0000 |       0.0000 |
itlb.accesses                               750689 |       750689 |       750689 |       750689 |      1651743 |      1651743 |      1651743 |      1651743 |      3525896 |      3525896 |      3525896 |      3525896 |      7674992 |      7674992 |      7674992 |      7674992 |     16252545 |     16252545 |     16252545 |     16252545 |     34985805 |     34985805 |     34985805 |     34985805 |     73642294 |     73642294 |     73642294 |     73642294 |    157276281 |    157276281 |    157276281 |    157276281 |    329242741 |    329242741 |    329242741 |    329242741 |    698359656 |    698359656 |    698359656 |    698359656 |   1455349481 |   1455349481 |   1455349481 |   1455349481 |
itlb.hits                                   750678 |       750678 |       750678 |       750678 |      1651732 |      1651732 |      1651732 |      1651732 |      3525886 |      3525886 |      3525886 |      3525886 |      7674982 |      7674982 |      7674982 |      7674982 |     16252535 |     16252535 |     16252535 |     16252535 |     34985795 |     34985795 |     34985795 |     34985795 |     73642284 |     73642284 |     73642284 |     73642284 |    157276271 |    157276271 |    157276271 |    157276271 |    329242731 |    329242731 |    329242731 |    329242731 |    698359646 |    698359646 |    698359646 |    698359646 |   1455349471 |   1455349471 |   1455349471 |   1455349471 |
itlb.misses                                     11 |           11 |           11 |           11 |           11 |           11 |           11 |           11 |           10 |           10 |           10 |           10 |           10 |           10 |           10 |           10 |           10 |           10 |           10 |           10 |           10 |           10 |           10 |           10 |           10 |           10 |           10 |           10 |           10 |           10 |           10 |           10 |           10 |           10 |           10 |           10 |           10 |           10 |           10 |           10 |           10 |           10 |           10 |           10 |
itlb.replacements                                0 |            0 |            0 |            0 |            0 |            0 |            0 |            0 |            0 |            0 |            0 |            0 |            0 |            0 |            0 |            0 |            0 |            0 |            0 |            0 |            0 |            0 |            0 |            0 |            0 |            0 |            0 |            0 |            0 |            0 |            0 |            0 |            0 |            0 |            0 |            0 |            0 |            0 |            0 |            0 |            0 |            0 |            0 |            0 |
itlb.writebacks                                  0 |            0 |            0 |            0 |            0 |            0 |            0 |            0 |            0 |            0 |            0 |            0 |            0 |            0 |            0 |            0 |            0 |            0 |            0 |            0 |            0 |            0 |            0 |            0 |            0 |            0 |            0 |            0 |            0 |            0 |            0 |            0 |            0 |            0 |            0 |            0 |            0 |            0 |            0 |            0 |            0 |            0 |            0 |            0 |
itlb.invalidations                               0 |            0 |            0 |            0 |            0 |            0 |            0 |            0 |            0 |            0 |            0 |            0 |            0 |            0 |            0 |            0 |            0 |            0 |            0 |            0 |            0 |            0 |            0 |            0 |            0 |            0 |            0 |            0 |            0 |            0 |            0 |            0 |            0 |            0 |            0 |            0 |            0 |            0 |            0 |            0 |            0 |            0 |            0 |            0 |
itlb.miss_rate                              0.0000 |       0.0000 |       0.0000 |       0.0000 |       0.0000 |       0.0000 |       0.0000 |       0.0000 |       0.0000 |       0.0000 |       0.0000 |       0.0000 |       0.0000 |       0.0000 |       0.0000 |       0.0000 |       0.0000 |       0.0000 |       0.0000 |       0.0000 |       0.0000 |       0.0000 |       0.0000 |       0.0000 |       0.0000 |       0.0000 |       0.0000 |       0.0000 |       0.0000 |       0.0000 |       0.0000 |       0.0000 |       0.0000 |       0.0000 |       0.0000 |       0.0000 |       0.0000 |       0.0000 |       0.0000 |       0.0000 |       0.0000 |       0.0000 |       0.0000 |       0.0000 |
itlb.repl_rate                              0.0000 |       0.0000 |       0.0000 |       0.0000 |       0.0000 |       0.0000 |       0.0000 |       0.0000 |       0.0000 |       0.0000 |       0.0000 |       0.0000 |       0.0000 |       0.0000 |       0.0000 |       0.0000 |       0.0000 |       0.0000 |       0.0000 |       0.0000 |       0.0000 |       0.0000 |       0.0000 |       0.0000 |       0.0000 |       0.0000 |       0.0000 |       0.0000 |       0.0000 |       0.0000 |       0.0000 |       0.0000 |       0.0000 |       0.0000 |       0.0000 |       0.0000 |       0.0000 |       0.0000 |       0.0000 |       0.0000 |       0.0000 |       0.0000 |       0.0000 |       0.0000 |
itlb.wb_rate                                0.0000 |       0.0000 |       0.0000 |       0.0000 |       0.0000 |       0.0000 |       0.0000 |       0.0000 |       0.0000 |       0.0000 |       0.0000 |       0.0000 |       0.0000 |       0.0000 |       0.0000 |       0.0000 |       0.0000 |       0.0000 |       0.0000 |       0.0000 |       0.0000 |       0.0000 |       0.0000 |       0.0000 |       0.0000 |       0.0000 |       0.0000 |       0.0000 |       0.0000 |       0.0000 |       0.0000 |       0.0000 |       0.0000 |       0.0000 |       0.0000 |       0.0000 |       0.0000 |       0.0000 |       0.0000 |       0.0000 |       0.0000 |       0.0000 |       0.0000 |       0.0000 |
itlb.inv_rate                               0.0000 |       0.0000 |       0.0000 |       0.0000 |       0.0000 |       0.0000 |       0.0000 |       0.0000 |       0.0000 |       0.0000 |       0.0000 |       0.0000 |       0.0000 |       0.0000 |       0.0000 |       0.0000 |       0.0000 |       0.0000 |       0.0000 |       0.0000 |       0.0000 |       0.0000 |       0.0000 |       0.0000 |       0.0000 |       0.0000 |       0.0000 |       0.0000 |       0.0000 |       0.0000 |       0.0000 |       0.0000 |       0.0000 |       0.0000 |       0.0000 |       0.0000 |       0.0000 |       0.0000 |       0.0000 |       0.0000 |       0.0000 |       0.0000 |       0.0000 |       0.0000 |
dtlb.accesses                               222019 |       222019 |       222019 |       222019 |       493662 |       493662 |       493662 |       493662 |      1024227 |      1024227 |      1024227 |      1024227 |      2258898 |      2258898 |      2258898 |      2258898 |      4675943 |      4675943 |      4675943 |      4675943 |     10199052 |     10199052 |     10199052 |     10199052 |     21051647 |     21051647 |     21051647 |     21051647 |     45513852 |     45513852 |     45513852 |     45513852 |     93653565 |     93653565 |     93653565 |     93653565 |    200935540 |    200935540 |    200935540 |    200935540 |    412327015 |    412327015 |    412327015 |    412327015 |
dtlb.hits                                   222004 |       222004 |       222004 |       222004 |       493639 |       493639 |       493639 |       493639 |      1024188 |      1024188 |      1024188 |      1024188 |      2258827 |      2258827 |      2258827 |      2258827 |      4675743 |      4675743 |      4675743 |      4675743 |     10194809 |     10194809 |     10194809 |     10194809 |     21042909 |     21042909 |     21042909 |     21042909 |     45494351 |     45494351 |     45494351 |     45494351 |     93614588 |     93614588 |     93614588 |     93614588 |    200849419 |    200849419 |    200849419 |    200849419 |    412154804 |    412154804 |    412154804 |    412154804 |
dtlb.misses                                     15 |           15 |           15 |           15 |           23 |           23 |           23 |           23 |           39 |           39 |           39 |           39 |           71 |           71 |           71 |           71 |          200 |          200 |          200 |          200 |         4243 |         4243 |         4243 |         4243 |         8738 |         8738 |         8738 |         8738 |        19501 |        19501 |        19501 |        19501 |        38977 |        38977 |        38977 |        38977 |        86121 |        86121 |        86121 |        86121 |       172211 |       172211 |       172211 |       172211 |
dtlb.replacements                                0 |            0 |            0 |            0 |            0 |            0 |            0 |            0 |            0 |            0 |            0 |            0 |            0 |            0 |            0 |            0 |           72 |           72 |           72 |           72 |         4115 |         4115 |         4115 |         4115 |         8610 |         8610 |         8610 |         8610 |        19373 |        19373 |        19373 |        19373 |        38849 |        38849 |        38849 |        38849 |        85993 |        85993 |        85993 |        85993 |       172083 |       172083 |       172083 |       172083 |
dtlb.writebacks                                  0 |            0 |            0 |            0 |            0 |            0 |            0 |            0 |            0 |            0 |            0 |            0 |            0 |            0 |            0 |            0 |           42 |           42 |           42 |           42 |         2152 |         2152 |         2152 |         2152 |         4564 |         4564 |         4564 |         4564 |        10205 |        10205 |        10205 |        10205 |        20458 |        20458 |        20458 |        20458 |        45063 |        45063 |        45063 |        45063 |        90172 |        90172 |        90172 |        90172 |
dtlb.invalidations                               0 |            0 |            0 |            0 |            0 |            0 |            0 |            0 |            0 |            0 |            0 |            0 |            0 |            0 |            0 |            0 |            0 |            0 |            0 |            0 |            0 |            0 |            0 |            0 |            0 |            0 |            0 |            0 |            0 |            0 |            0 |            0 |            0 |            0 |            0 |            0 |            0 |            0 |            0 |            0 |            0 |            0 |            0 |            0 |
dtlb.miss_rate                              0.0001 |       0.0001 |       0.0001 |       0.0001 |       0.0000 |       0.0000 |       0.0000 |       0.0000 |       0.0000 |       0.0000 |       0.0000 |       0.0000 |       0.0000 |       0.0000 |       0.0000 |       0.0000 |       0.0000 |       0.0000 |       0.0000 |       0.0000 |       0.0004 |       0.0004 |       0.0004 |       0.0004 |       0.0004 |       0.0004 |       0.0004 |       0.0004 |       0.0004 |       0.0004 |       0.0004 |       0.0004 |       0.0004 |       0.0004 |       0.0004 |       0.0004 |       0.0004 |       0.0004 |       0.0004 |       0.0004 |       0.0004 |       0.0004 |       0.0004 |       0.0004 |
dtlb.repl_rate                              0.0000 |       0.0000 |       0.0000 |       0.0000 |       0.0000 |       0.0000 |       0.0000 |       0.0000 |       0.0000 |       0.0000 |       0.0000 |       0.0000 |       0.0000 |       0.0000 |       0.0000 |       0.0000 |       0.0000 |       0.0000 |       0.0000 |       0.0000 |       0.0004 |       0.0004 |       0.0004 |       0.0004 |       0.0004 |       0.0004 |       0.0004 |       0.0004 |       0.0004 |       0.0004 |       0.0004 |       0.0004 |       0.0004 |       0.0004 |       0.0004 |       0.0004 |       0.0004 |       0.0004 |       0.0004 |       0.0004 |       0.0004 |       0.0004 |       0.0004 |       0.0004 |
dtlb.wb_rate                                0.0000 |       0.0000 |       0.0000 |       0.0000 |       0.0000 |       0.0000 |       0.0000 |       0.0000 |       0.0000 |       0.0000 |       0.0000 |       0.0000 |       0.0000 |       0.0000 |       0.0000 |       0.0000 |       0.0000 |       0.0000 |       0.0000 |       0.0000 |       0.0002 |       0.0002 |       0.0002 |       0.0002 |       0.0002 |       0.0002 |       0.0002 |       0.0002 |       0.0002 |       0.0002 |       0.0002 |       0.0002 |       0.0002 |       0.0002 |       0.0002 |       0.0002 |       0.0002 |       0.0002 |       0.0002 |       0.0002 |       0.0002 |       0.0002 |       0.0002 |       0.0002 |
dtlb.inv_rate                               0.0000 |       0.0000 |       0.0000 |       0.0000 |       0.0000 |       0.0000 |       0.0000 |       0.0000 |       0.0000 |       0.0000 |       0.0000 |       0.0000 |       0.0000 |       0.0000 |       0.0000 |       0.0000 |       0.0000 |       0.0000 |       0.0000 |       0.0000 |       0.0000 |       0.0000 |       0.0000 |       0.0000 |       0.0000 |       0.0000 |       0.0000 |       0.0000 |       0.0000 |       0.0000 |       0.0000 |       0.0000 |       0.0000 |       0.0000 |       0.0000 |       0.0000 |       0.0000 |       0.0000 |       0.0000 |       0.0000 |       0.0000 |       0.0000 |       0.0000 |       0.0000 |
ld_text_base                            0x00400000 |   0x00400000 |   0x00400000 |   0x00400000 |   0x00400000 |   0x00400000 |   0x00400000 |   0x00400000 |   0x00400000 |   0x00400000 |   0x00400000 |   0x00400000 |   0x00400000 |   0x00400000 |   0x00400000 |   0x00400000 |   0x00400000 |   0x00400000 |   0x00400000 |   0x00400000 |   0x00400000 |   0x00400000 |   0x00400000 |   0x00400000 |   0x00400000 |   0x00400000 |   0x00400000 |   0x00400000 |   0x00400000 |   0x00400000 |   0x00400000 |   0x00400000 |   0x00400000 |   0x00400000 |   0x00400000 |   0x00400000 |   0x00400000 |   0x00400000 |   0x00400000 |   0x00400000 |   0x00400000 |   0x00400000 |   0x00400000 |   0x00400000 |
ld_text_size                                 74928 |        74928 |        74928 |        74928 |        74960 |        74960 |        74960 |        74960 |        74976 |        74976 |        74976 |        74976 |        74992 |        74992 |        74992 |        74992 |        74992 |        74992 |        74992 |        74992 |        74992 |        74992 |        74992 |        74992 |        74992 |        74992 |        74992 |        74992 |        74992 |        74992 |        74992 |        74992 |        74992 |        74992 |        74992 |        74992 |        74992 |        74992 |        74992 |        74992 |        74992 |        74992 |        74992 |        74992 |
ld_data_base                            0x10000000 |   0x10000000 |   0x10000000 |   0x10000000 |   0x10000000 |   0x10000000 |   0x10000000 |   0x10000000 |   0x10000000 |   0x10000000 |   0x10000000 |   0x10000000 |   0x10000000 |   0x10000000 |   0x10000000 |   0x10000000 |   0x10000000 |   0x10000000 |   0x10000000 |   0x10000000 |   0x10000000 |   0x10000000 |   0x10000000 |   0x10000000 |   0x10000000 |   0x10000000 |   0x10000000 |   0x10000000 |   0x10000000 |   0x10000000 |   0x10000000 |   0x10000000 |   0x10000000 |   0x10000000 |   0x10000000 |   0x10000000 |   0x10000000 |   0x10000000 |   0x10000000 |   0x10000000 |   0x10000000 |   0x10000000 |   0x10000000 |   0x10000000 |
ld_data_size                                  8192 |         8192 |         8192 |         8192 |         8192 |         8192 |         8192 |         8192 |         8192 |         8192 |         8192 |         8192 |         8192 |         8192 |         8192 |         8192 |         8192 |         8192 |         8192 |         8192 |         8192 |         8192 |         8192 |         8192 |         8192 |         8192 |         8192 |         8192 |         8192 |         8192 |         8192 |         8192 |         8192 |         8192 |         8192 |         8192 |         8192 |         8192 |         8192 |         8192 |         8192 |         8192 |         8192 |         8192 |
ld_stack_base                           0x7fffc000 |   0x7fffc000 |   0x7fffc000 |   0x7fffc000 |   0x7fffc000 |   0x7fffc000 |   0x7fffc000 |   0x7fffc000 |   0x7fffc000 |   0x7fffc000 |   0x7fffc000 |   0x7fffc000 |   0x7fffc000 |   0x7fffc000 |   0x7fffc000 |   0x7fffc000 |   0x7fffc000 |   0x7fffc000 |   0x7fffc000 |   0x7fffc000 |   0x7fffc000 |   0x7fffc000 |   0x7fffc000 |   0x7fffc000 |   0x7fffc000 |   0x7fffc000 |   0x7fffc000 |   0x7fffc000 |   0x7fffc000 |   0x7fffc000 |   0x7fffc000 |   0x7fffc000 |   0x7fffc000 |   0x7fffc000 |   0x7fffc000 |   0x7fffc000 |   0x7fffc000 |   0x7fffc000 |   0x7fffc000 |   0x7fffc000 |   0x7fffc000 |   0x7fffc000 |   0x7fffc000 |   0x7fffc000 |
ld_stack_size                                16384 |        16384 |        16384 |        16384 |        16384 |        16384 |        16384 |        16384 |        16384 |        16384 |        16384 |        16384 |        16384 |        16384 |        16384 |        16384 |        16384 |        16384 |        16384 |        16384 |        16384 |        16384 |        16384 |        16384 |        16384 |        16384 |        16384 |        16384 |        16384 |        16384 |        16384 |        16384 |        16384 |        16384 |        16384 |        16384 |        16384 |        16384 |        16384 |        16384 |        16384 |        16384 |        16384 |        16384 |
ld_prog_entry                           0x00400140 |   0x00400140 |   0x00400140 |   0x00400140 |   0x00400140 |   0x00400140 |   0x00400140 |   0x00400140 |   0x00400140 |   0x00400140 |   0x00400140 |   0x00400140 |   0x00400140 |   0x00400140 |   0x00400140 |   0x00400140 |   0x00400140 |   0x00400140 |   0x00400140 |   0x00400140 |   0x00400140 |   0x00400140 |   0x00400140 |   0x00400140 |   0x00400140 |   0x00400140 |   0x00400140 |   0x00400140 |   0x00400140 |   0x00400140 |   0x00400140 |   0x00400140 |   0x00400140 |   0x00400140 |   0x00400140 |   0x00400140 |   0x00400140 |   0x00400140 |   0x00400140 |   0x00400140 |   0x00400140 |   0x00400140 |   0x00400140 |   0x00400140 |
ld_environ_base                         0x7fff8000 |   0x7fff8000 |   0x7fff8000 |   0x7fff8000 |   0x7fff8000 |   0x7fff8000 |   0x7fff8000 |   0x7fff8000 |   0x7fff8000 |   0x7fff8000 |   0x7fff8000 |   0x7fff8000 |   0x7fff8000 |   0x7fff8000 |   0x7fff8000 |   0x7fff8000 |   0x7fff8000 |   0x7fff8000 |   0x7fff8000 |   0x7fff8000 |   0x7fff8000 |   0x7fff8000 |   0x7fff8000 |   0x7fff8000 |   0x7fff8000 |   0x7fff8000 |   0x7fff8000 |   0x7fff8000 |   0x7fff8000 |   0x7fff8000 |   0x7fff8000 |   0x7fff8000 |   0x7fff8000 |   0x7fff8000 |   0x7fff8000 |   0x7fff8000 |   0x7fff8000 |   0x7fff8000 |   0x7fff8000 |   0x7fff8000 |   0x7fff8000 |   0x7fff8000 |   0x7fff8000 |   0x7fff8000 |
ld_target_big_endian                             0 |            0 |            0 |            0 |            0 |            0 |            0 |            0 |            0 |            0 |            0 |            0 |            0 |            0 |            0 |            0 |            0 |            0 |            0 |            0 |            0 |            0 |            0 |            0 |            0 |            0 |            0 |            0 |            0 |            0 |            0 |            0 |            0 |            0 |            0 |            0 |            0 |            0 |            0 |            0 |            0 |            0 |            0 |            0 |
mem.page_count                                  34 |           34 |           34 |           34 |           42 |           42 |           42 |           42 |           58 |           58 |           58 |           58 |           90 |           90 |           90 |           90 |          154 |          154 |          154 |          154 |          282 |          282 |          282 |          282 |          538 |          538 |          538 |          538 |         1050 |         1050 |         1050 |         1050 |         2080 |         2080 |         2080 |         2080 |         4134 |         4134 |         4134 |         4134 |         8242 |         8242 |         8242 |         8242 |
mem.page_mem                                  136k |         136k |         136k |         136k |         168k |         168k |         168k |         168k |         232k |         232k |         232k |         232k |         360k |         360k |         360k |         360k |         616k |         616k |         616k |         616k |        1128k |        1128k |        1128k |        1128k |        2152k |        2152k |        2152k |        2152k |        4200k |        4200k |        4200k |        4200k |        8320k |        8320k |        8320k |        8320k |       16536k |       16536k |       16536k |       16536k |       32968k |       32968k |       32968k |       32968k |
mem.ptab_misses                                 34 |           34 |           34 |           34 |           42 |           42 |           42 |           42 |           58 |           58 |           58 |           58 |           90 |           90 |           90 |           90 |          154 |          154 |          154 |          154 |          282 |          282 |          282 |          282 |          538 |          538 |          538 |          538 |         1050 |         1050 |         1050 |         1050 |       105421 |       105421 |       105421 |       105421 |       112099 |       112099 |       112099 |       112099 |       123157 |       123157 |       123157 |       123157 |
mem.ptab_accesses                          3910936 |      3910936 |      3910936 |      3910936 |      8058630 |      8058630 |      8058630 |      8058630 |     16616468 |     16616468 |     16616468 |     16616468 |     35682290 |     35682290 |     35682290 |     35682290 |     74826592 |     74826592 |     74826592 |     74826592 |    160805850 |    160805850 |    160805850 |    160805850 |    337136996 |    337136996 |    337136996 |    337136996 |    720597354 |    720597354 |    720597354 |    720597354 |   1504742620 |   1504742620 |   1504742620 |   1504742620 |   3195774230 |   3195774230 |   3195774230 |   3195774230 |   6646516480 |   6646516480 |   6646516480 |   6646516480 |
mem.ptab_miss_rate                          0.0000 |       0.0000 |       0.0000 |       0.0000 |       0.0000 |       0.0000 |       0.0000 |       0.0000 |       0.0000 |       0.0000 |       0.0000 |       0.0000 |       0.0000 |       0.0000 |       0.0000 |       0.0000 |       0.0000 |       0.0000 |       0.0000 |       0.0000 |       0.0000 |       0.0000 |       0.0000 |       0.0000 |       0.0000 |       0.0000 |       0.0000 |       0.0000 |       0.0000 |       0.0000 |       0.0000 |       0.0000 |       0.0001 |       0.0001 |       0.0001 |       0.0001 |       0.0000 |       0.0000 |       0.0000 |       0.0000 |       0.0000 |       0.0000 |       0.0000 |       0.0000 |
-------------------------------------------------------------------------------------------------
sim-bpred                                     4096 |         4096 |         4096 |         4096 |         4096 |         4096 |         4096 |         8192 |         8192 |         8192 |         8192 |         8192 |         8192 |         8192 |        16384 |        16384 |        16384 |        16384 |        16384 |        16384 |        16384 |        32768 |        32768 |        32768 |        32768 |        32768 |        32768 |        32768 |        65536 |        65536 |        65536 |        65536 |        65536 |        65536 |        65536 |       131072 |       131072 |       131072 |       131072 |       131072 |       131072 |       131072 |       262144 |       262144 |       262144 |       262144 |       262144 |       262144 |       262144 |       524288 |       524288 |       524288 |       524288 |       524288 |       524288 |       524288 |      1048576 |      1048576 |      1048576 |      1048576 |      1048576 |      1048576 |      1048576 |      2097152 |      2097152 |      2097152 |      2097152 |      2097152 |      2097152 |      2097152 |      4194304 |      4194304 |      4194304 |      4194304 |      4194304 |      4194304 |      4194304 |
-bpred bimod -bpred:bimod 512
-bpred bimod -bpred:bimod 1024
-bpred bimod -bpred:bimod 2048
-bpred 2lev -bpred:2lev 1 512 10 1
-bpred 2lev -bpred:2lev 1 1024 10 1
-bpred 2lev -bpred:2lev 1 2048 10 1
-bpred 2lev -bpred:2lev 1 4096 10 1
-------------------------------------------------------------------------------------------------
sim_num_insn                                750689 |       750689 |       750689 |       750689 |       750689 |       750689 |       750689 |      1651743 |      1651743 |      1651743 |      1651743 |      1651743 |      1651743 |      1651743 |      3525896 |      3525896 |      3525896 |      3525896 |      3525896 |      3525896 |      3525896 |      7674992 |      7674992 |      7674992 |      7674992 |      7674992 |      7674992 |      7674992 |     16252545 |     16252545 |     16252545 |     16252545 |     16252545 |     16252545 |     16252545 |     34985805 |     34985805 |     34985805 |     34985805 |     34985805 |     34985805 |     34985805 |     73642294 |     73642294 |     73642294 |     73642294 |     73642294 |     73642294 |     73642294 |    157276281 |    157276281 |    157276281 |    157276281 |    157276281 |    157276281 |    157276281 |    329242741 |    329242741 |    329242741 |    329242741 |    329242741 |    329242741 |    329242741 |    698359656 |    698359656 |    698359656 |    698359656 |    698359656 |    698359656 |    698359656 |   1455349481 |   1455349481 |   1455349481 |   1455349481 |   1455349481 |   1455349481 |   1455349481 |
sim_num_refs                                205553 |       205553 |       205553 |       205553 |       205553 |       205553 |       205553 |       460812 |       460812 |       460812 |       460812 |       460812 |       460812 |       460812 |       958609 |       958609 |       958609 |       958609 |       958609 |       958609 |       958609 |      2127744 |      2127744 |      2127744 |      2127744 |      2127744 |      2127744 |      2127744 |      4413717 |      4413717 |      4413717 |      4413717 |      4413717 |      4413717 |      4413717 |      9674682 |      9674682 |      9674682 |      9674682 |      9674682 |      9674682 |      9674682 |     20002989 |     20002989 |     20002989 |     20002989 |     20002989 |     20002989 |     20002989 |     43416618 |     43416618 |     43416618 |     43416618 |     43416618 |     43416618 |     43416618 |     89459179 |     89459179 |     89459179 |     89459179 |     89459179 |     89459179 |     89459179 |    192546850 |    192546850 |    192546850 |    192546850 |    192546850 |    192546850 |    192546850 |    395549717 |    395549717 |    395549717 |    395549717 |    395549717 |    395549717 |    395549717 |
sim_elapsed_time                                 1 |            1 |            1 |            1 |            1 |            1 |            1 |            1 |            1 |            1 |            1 |            1 |            1 |            1 |            1 |            1 |            1 |            1 |            1 |            1 |            1 |            1 |            1 |            1 |            1 |            2 |            1 |            1 |            2 |            2 |            2 |            2 |            2 |            1 |            2 |            3 |            5 |            4 |            4 |            5 |            4 |            3 |            8 |            9 |            9 |            8 |           12 |            8 |            8 |           18 |           21 |           17 |           18 |           25 |           18 |           18 |           36 |           43 |           36 |           37 |           53 |           37 |           37 |           77 |           92 |           78 |           78 |          111 |           79 |           78 |          161 |          192 |          162 |          164 |          230 |          164 |          164 |
sim_inst_rate                          750689.0000 |  750689.0000 |  750689.0000 |  750689.0000 |  750689.0000 |  750689.0000 |  750689.0000 | 1651743.0000 | 1651743.0000 | 1651743.0000 | 1651743.0000 | 1651743.0000 | 1651743.0000 | 1651743.0000 | 3525896.0000 | 3525896.0000 | 3525896.0000 | 3525896.0000 | 3525896.0000 | 3525896.0000 | 3525896.0000 | 7674992.0000 | 7674992.0000 | 7674992.0000 | 7674992.0000 | 3837496.0000 | 7674992.0000 | 7674992.0000 | 8126272.5000 | 8126272.5000 | 8126272.5000 | 8126272.5000 | 8126272.5000 |16252545.0000 | 8126272.5000 |11661935.0000 | 6997161.0000 | 8746451.2500 | 8746451.2500 | 6997161.0000 | 8746451.2500 |11661935.0000 | 9205286.7500 | 8182477.1111 | 8182477.1111 | 9205286.7500 | 6136857.8333 | 9205286.7500 | 9205286.7500 | 8737571.1667 | 7489346.7143 | 9251545.9412 | 8737571.1667 | 6291051.2400 | 8737571.1667 | 8737571.1667 | 9145631.6944 | 7656807.9302 | 9145631.6944 | 8898452.4595 | 6212127.1887 | 8898452.4595 | 8898452.4595 | 9069605.9221 | 7590865.8261 | 8953328.9231 | 8953328.9231 | 6291528.4324 | 8839995.6456 | 8953328.9231 | 9039437.7702 | 7579945.2135 | 8983638.7716 | 8874082.2012 | 6327606.4391 | 8874082.2012 | 8874082.2012 |
sim_num_branches                             94359 |        94359 |        94359 |        94359 |        94359 |        94359 |        94359 |       205562 |       205562 |       205562 |       205562 |       205562 |       205562 |       205562 |       441046 |       441046 |       441046 |       441046 |       441046 |       441046 |       441046 |       952005 |       952005 |       952005 |       952005 |       952005 |       952005 |       952005 |      2025184 |      2025184 |      2025184 |      2025184 |      2025184 |      2025184 |      2025184 |      4328076 |      4328076 |      4328076 |      4328076 |      4328076 |      4328076 |      4328076 |      9148469 |      9148469 |      9148469 |      9148469 |      9148469 |      9148469 |      9148469 |     19416764 |     19416764 |     19416764 |     19416764 |     19416764 |     19416764 |     19416764 |     40803256 |     40803256 |     40803256 |     40803256 |     40803256 |     40803256 |     40803256 |     86074142 |     86074142 |     86074142 |     86074142 |     86074142 |     86074142 |     86074142 |    180014879 |    180014879 |    180014879 |    180014879 |    180014879 |    180014879 |    180014879 |
sim_IPB                                     7.9557 |       7.9557 |       7.9557 |       7.9557 |       7.9557 |       7.9557 |       7.9557 |       8.0353 |       8.0353 |       8.0353 |       8.0353 |       8.0353 |       8.0353 |       8.0353 |       7.9944 |       7.9944 |       7.9944 |       7.9944 |       7.9944 |       7.9944 |       7.9944 |       8.0619 |       8.0619 |       8.0619 |       8.0619 |       8.0619 |       8.0619 |       8.0619 |       8.0252 |       8.0252 |       8.0252 |       8.0252 |       8.0252 |       8.0252 |       8.0252 |       8.0835 |       8.0835 |       8.0835 |       8.0835 |       8.0835 |       8.0835 |       8.0835 |       8.0497 |       8.0497 |       8.0497 |       8.0497 |       8.0497 |       8.0497 |       8.0497 |       8.1000 |       8.1000 |       8.1000 |       8.1000 |       8.1000 |       8.1000 |       8.1000 |       8.0690 |       8.0690 |       8.0690 |       8.0690 |       8.0690 |       8.0690 |       8.0690 |       8.1135 |       8.1135 |       8.1135 |       8.1135 |       8.1135 |       8.1135 |       8.1135 |       8.0846 |       8.0846 |       8.0846 |       8.0846 |       8.0846 |       8.0846 |       8.0846 |
bpred_bimod.lookups                          94359 |        94359 |        94359 |xxxxxxxxxxxxx |xxxxxxxxxxxxx |xxxxxxxxxxxxx |xxxxxxxxxxxxx |       205562 |       205562 |       205562 |xxxxxxxxxxxxx |xxxxxxxxxxxxx |xxxxxxxxxxxxx |xxxxxxxxxxxxx |       441046 |       441046 |       441046 |xxxxxxxxxxxxx |xxxxxxxxxxxxx |xxxxxxxxxxxxx |xxxxxxxxxxxxx |       952005 |       952005 |       952005 |xxxxxxxxxxxxx |xxxxxxxxxxxxx |xxxxxxxxxxxxx |xxxxxxxxxxxxx |      2025184 |      2025184 |      2025184 |xxxxxxxxxxxxx |xxxxxxxxxxxxx |xxxxxxxxxxxxx |xxxxxxxxxxxxx |      4328076 |      4328076 |      4328076 |xxxxxxxxxxxxx |xxxxxxxxxxxxx |xxxxxxxxxxxxx |xxxxxxxxxxxxx |      9148469 |      9148469 |      9148469 |xxxxxxxxxxxxx |xxxxxxxxxxxxx |xxxxxxxxxxxxx |xxxxxxxxxxxxx |     19416764 |     19416764 |     19416764 |xxxxxxxxxxxxx |xxxxxxxxxxxxx |xxxxxxxxxxxxx |xxxxxxxxxxxxx |     40803256 |     40803256 |     40803256 |xxxxxxxxxxxxx |xxxxxxxxxxxxx |xxxxxxxxxxxxx |xxxxxxxxxxxxx |     86074142 |     86074142 |     86074142 |xxxxxxxxxxxxx |xxxxxxxxxxxxx |xxxxxxxxxxxxx |xxxxxxxxxxxxx |    180014879 |    180014879 |    180014879 |
bpred_bimod.updates                          94359 |        94359 |        94359 |xxxxxxxxxxxxx |xxxxxxxxxxxxx |xxxxxxxxxxxxx |xxxxxxxxxxxxx |       205562 |       205562 |       205562 |xxxxxxxxxxxxx |xxxxxxxxxxxxx |xxxxxxxxxxxxx |xxxxxxxxxxxxx |       441046 |       441046 |       441046 |xxxxxxxxxxxxx |xxxxxxxxxxxxx |xxxxxxxxxxxxx |xxxxxxxxxxxxx |       952005 |       952005 |       952005 |xxxxxxxxxxxxx |xxxxxxxxxxxxx |xxxxxxxxxxxxx |xxxxxxxxxxxxx |      2025184 |      2025184 |      2025184 |xxxxxxxxxxxxx |xxxxxxxxxxxxx |xxxxxxxxxxxxx |xxxxxxxxxxxxx |      4328076 |      4328076 |      4328076 |xxxxxxxxxxxxx |xxxxxxxxxxxxx |xxxxxxxxxxxxx |xxxxxxxxxxxxx |      9148469 |      9148469 |      9148469 |xxxxxxxxxxxxx |xxxxxxxxxxxxx |xxxxxxxxxxxxx |xxxxxxxxxxxxx |     19416764 |     19416764 |     19416764 |xxxxxxxxxxxxx |xxxxxxxxxxxxx |xxxxxxxxxxxxx |xxxxxxxxxxxxx |     40803256 |     40803256 |     40803256 |xxxxxxxxxxxxx |xxxxxxxxxxxxx |xxxxxxxxxxxxx |xxxxxxxxxxxxx |     86074142 |     86074142 |     86074142 |xxxxxxxxxxxxx |xxxxxxxxxxxxx |xxxxxxxxxxxxx |xxxxxxxxxxxxx |    180014879 |    180014879 |    180014879 |
bpred_bimod.addr_hits                        69248 |        69251 |        69256 |xxxxxxxxxxxxx |xxxxxxxxxxxxx |xxxxxxxxxxxxx |xxxxxxxxxxxxx |       151320 |       151323 |       151329 |xxxxxxxxxxxxx |xxxxxxxxxxxxx |xxxxxxxxxxxxx |xxxxxxxxxxxxx |       324421 |       324424 |       324432 |xxxxxxxxxxxxx |xxxxxxxxxxxxx |xxxxxxxxxxxxx |xxxxxxxxxxxxx |       703018 |       703021 |       703027 |xxxxxxxxxxxxx |xxxxxxxxxxxxx |xxxxxxxxxxxxx |xxxxxxxxxxxxx |      1493658 |      1493660 |      1493667 |xxxxxxxxxxxxx |xxxxxxxxxxxxx |xxxxxxxxxxxxx |xxxxxxxxxxxxx |      3198576 |      3198579 |      3198586 |xxxxxxxxxxxxx |xxxxxxxxxxxxx |xxxxxxxxxxxxx |xxxxxxxxxxxxx |      6757412 |      6757414 |      6757421 |xxxxxxxxxxxxx |xxxxxxxxxxxxx |xxxxxxxxxxxxx |xxxxxxxxxxxxx |     14370820 |     14370823 |     14370829 |xxxxxxxxxxxxx |xxxxxxxxxxxxx |xxxxxxxxxxxxx |xxxxxxxxxxxxx |     30187894 |     30187897 |     30187903 |xxxxxxxxxxxxx |xxxxxxxxxxxxx |xxxxxxxxxxxxx |xxxxxxxxxxxxx |     63790704 |     63790707 |     63790712 |xxxxxxxxxxxxx |xxxxxxxxxxxxx |xxxxxxxxxxxxx |xxxxxxxxxxxxx |    133351846 |    133351849 |    133351855 |
bpred_bimod.dir_hits                         69361 |        69364 |        69367 |xxxxxxxxxxxxx |xxxxxxxxxxxxx |xxxxxxxxxxxxx |xxxxxxxxxxxxx |       151441 |       151443 |       151450 |xxxxxxxxxxxxx |xxxxxxxxxxxxx |xxxxxxxxxxxxx |xxxxxxxxxxxxx |       324540 |       324539 |       324546 |xxxxxxxxxxxxx |xxxxxxxxxxxxx |xxxxxxxxxxxxx |xxxxxxxxxxxxx |       703140 |       703141 |       703147 |xxxxxxxxxxxxx |xxxxxxxxxxxxx |xxxxxxxxxxxxx |xxxxxxxxxxxxx |      1493774 |      1493774 |      1493781 |xxxxxxxxxxxxx |xxxxxxxxxxxxx |xxxxxxxxxxxxx |xxxxxxxxxxxxx |      3198700 |      3198701 |      3198708 |xxxxxxxxxxxxx |xxxxxxxxxxxxx |xxxxxxxxxxxxx |xxxxxxxxxxxxx |      6757530 |      6757530 |      6757537 |xxxxxxxxxxxxx |xxxxxxxxxxxxx |xxxxxxxxxxxxx |xxxxxxxxxxxxx |     14370944 |     14370945 |     14370951 |xxxxxxxxxxxxx |xxxxxxxxxxxxx |xxxxxxxxxxxxx |xxxxxxxxxxxxx |     30188023 |     30188024 |     30188030 |xxxxxxxxxxxxx |xxxxxxxxxxxxx |xxxxxxxxxxxxx |xxxxxxxxxxxxx |     63790834 |     63790835 |     63790840 |xxxxxxxxxxxxx |xxxxxxxxxxxxx |xxxxxxxxxxxxx |xxxxxxxxxxxxx |    133351975 |    133351976 |    133351982 |
bpred_bimod.misses                           24998 |        24995 |        24992 |xxxxxxxxxxxxx |xxxxxxxxxxxxx |xxxxxxxxxxxxx |xxxxxxxxxxxxx |        54121 |        54119 |        54112 |xxxxxxxxxxxxx |xxxxxxxxxxxxx |xxxxxxxxxxxxx |xxxxxxxxxxxxx |       116506 |       116507 |       116500 |xxxxxxxxxxxxx |xxxxxxxxxxxxx |xxxxxxxxxxxxx |xxxxxxxxxxxxx |       248865 |       248864 |       248858 |xxxxxxxxxxxxx |xxxxxxxxxxxxx |xxxxxxxxxxxxx |xxxxxxxxxxxxx |       531410 |       531410 |       531403 |xxxxxxxxxxxxx |xxxxxxxxxxxxx |xxxxxxxxxxxxx |xxxxxxxxxxxxx |      1129376 |      1129375 |      1129368 |xxxxxxxxxxxxx |xxxxxxxxxxxxx |xxxxxxxxxxxxx |xxxxxxxxxxxxx |      2390939 |      2390939 |      2390932 |xxxxxxxxxxxxx |xxxxxxxxxxxxx |xxxxxxxxxxxxx |xxxxxxxxxxxxx |      5045820 |      5045819 |      5045813 |xxxxxxxxxxxxx |xxxxxxxxxxxxx |xxxxxxxxxxxxx |xxxxxxxxxxxxx |     10615233 |     10615232 |     10615226 |xxxxxxxxxxxxx |xxxxxxxxxxxxx |xxxxxxxxxxxxx |xxxxxxxxxxxxx |     22283308 |     22283307 |     22283302 |xxxxxxxxxxxxx |xxxxxxxxxxxxx |xxxxxxxxxxxxx |xxxxxxxxxxxxx |     46662904 |     46662903 |     46662897 |
bpred_bimod.jr_hits                             61 |           61 |           61 |xxxxxxxxxxxxx |xxxxxxxxxxxxx |xxxxxxxxxxxxx |xxxxxxxxxxxxx |           71 |           71 |           71 |xxxxxxxxxxxxx |xxxxxxxxxxxxx |xxxxxxxxxxxxx |xxxxxxxxxxxxx |           69 |           69 |           69 |xxxxxxxxxxxxx |xxxxxxxxxxxxx |xxxxxxxxxxxxx |xxxxxxxxxxxxx |           71 |           71 |           71 |xxxxxxxxxxxxx |xxxxxxxxxxxxx |xxxxxxxxxxxxx |xxxxxxxxxxxxx |           69 |           69 |           69 |xxxxxxxxxxxxx |xxxxxxxxxxxxx |xxxxxxxxxxxxx |xxxxxxxxxxxxx |           71 |           71 |           71 |xxxxxxxxxxxxx |xxxxxxxxxxxxx |xxxxxxxxxxxxx |xxxxxxxxxxxxx |           69 |           69 |           69 |xxxxxxxxxxxxx |xxxxxxxxxxxxx |xxxxxxxxxxxxx |xxxxxxxxxxxxx |           71 |           71 |           71 |xxxxxxxxxxxxx |xxxxxxxxxxxxx |xxxxxxxxxxxxx |xxxxxxxxxxxxx |           72 |           72 |           72 |xxxxxxxxxxxxx |xxxxxxxxxxxxx |xxxxxxxxxxxxx |xxxxxxxxxxxxx |           75 |           75 |           75 |xxxxxxxxxxxxx |xxxxxxxxxxxxx |xxxxxxxxxxxxx |xxxxxxxxxxxxx |           72 |           72 |           72 |
bpred_bimod.jr_seen                             61 |           61 |           61 |xxxxxxxxxxxxx |xxxxxxxxxxxxx |xxxxxxxxxxxxx |xxxxxxxxxxxxx |           73 |           73 |           73 |xxxxxxxxxxxxx |xxxxxxxxxxxxx |xxxxxxxxxxxxx |xxxxxxxxxxxxx |           70 |           70 |           70 |xxxxxxxxxxxxx |xxxxxxxxxxxxx |xxxxxxxxxxxxx |xxxxxxxxxxxxx |           73 |           73 |           73 |xxxxxxxxxxxxx |xxxxxxxxxxxxx |xxxxxxxxxxxxx |xxxxxxxxxxxxx |           70 |           70 |           70 |xxxxxxxxxxxxx |xxxxxxxxxxxxx |xxxxxxxxxxxxx |xxxxxxxxxxxxx |           73 |           73 |           73 |xxxxxxxxxxxxx |xxxxxxxxxxxxx |xxxxxxxxxxxxx |xxxxxxxxxxxxx |           70 |           70 |           70 |xxxxxxxxxxxxx |xxxxxxxxxxxxx |xxxxxxxxxxxxx |xxxxxxxxxxxxx |           73 |           73 |           73 |xxxxxxxxxxxxx |xxxxxxxxxxxxx |xxxxxxxxxxxxx |xxxxxxxxxxxxx |           73 |           73 |           73 |xxxxxxxxxxxxx |xxxxxxxxxxxxx |xxxxxxxxxxxxx |xxxxxxxxxxxxx |           76 |           76 |           76 |xxxxxxxxxxxxx |xxxxxxxxxxxxx |xxxxxxxxxxxxx |xxxxxxxxxxxxx |           73 |           73 |           73 |
bpred_bimod.jr_non_ras_hits.PP                   0 |            0 |            0 |xxxxxxxxxxxxx |xxxxxxxxxxxxx |xxxxxxxxxxxxx |xxxxxxxxxxxxx |            0 |            0 |            0 |xxxxxxxxxxxxx |xxxxxxxxxxxxx |xxxxxxxxxxxxx |xxxxxxxxxxxxx |            0 |            0 |            0 |xxxxxxxxxxxxx |xxxxxxxxxxxxx |xxxxxxxxxxxxx |xxxxxxxxxxxxx |            0 |            0 |            0 |xxxxxxxxxxxxx |xxxxxxxxxxxxx |xxxxxxxxxxxxx |xxxxxxxxxxxxx |            0 |            0 |            0 |xxxxxxxxxxxxx |xxxxxxxxxxxxx |xxxxxxxxxxxxx |xxxxxxxxxxxxx |            0 |            0 |            0 |xxxxxxxxxxxxx |xxxxxxxxxxxxx |xxxxxxxxxxxxx |xxxxxxxxxxxxx |            0 |            0 |            0 |xxxxxxxxxxxxx |xxxxxxxxxxxxx |xxxxxxxxxxxxx |xxxxxxxxxxxxx |            0 |            0 |            0 |xxxxxxxxxxxxx |xxxxxxxxxxxxx |xxxxxxxxxxxxx |xxxxxxxxxxxxx |            0 |            0 |            0 |xxxxxxxxxxxxx |xxxxxxxxxxxxx |xxxxxxxxxxxxx |xxxxxxxxxxxxx |            1 |            1 |            1 |xxxxxxxxxxxxx |xxxxxxxxxxxxx |xxxxxxxxxxxxx |xxxxxxxxxxxxx |            0 |            0 |            0 |
bpred_bimod.jr_non_ras_seen.PP                   0 |            0 |            0 |xxxxxxxxxxxxx |xxxxxxxxxxxxx |xxxxxxxxxxxxx |xxxxxxxxxxxxx |            1 |            1 |            1 |xxxxxxxxxxxxx |xxxxxxxxxxxxx |xxxxxxxxxxxxx |xxxxxxxxxxxxx |            0 |            0 |            0 |xxxxxxxxxxxxx |xxxxxxxxxxxxx |xxxxxxxxxxxxx |xxxxxxxxxxxxx |            1 |            1 |            1 |xxxxxxxxxxxxx |xxxxxxxxxxxxx |xxxxxxxxxxxxx |xxxxxxxxxxxxx |            0 |            0 |            0 |xxxxxxxxxxxxx |xxxxxxxxxxxxx |xxxxxxxxxxxxx |xxxxxxxxxxxxx |            1 |            1 |            1 |xxxxxxxxxxxxx |xxxxxxxxxxxxx |xxxxxxxxxxxxx |xxxxxxxxxxxxx |            0 |            0 |            0 |xxxxxxxxxxxxx |xxxxxxxxxxxxx |xxxxxxxxxxxxx |xxxxxxxxxxxxx |            1 |            1 |            1 |xxxxxxxxxxxxx |xxxxxxxxxxxxx |xxxxxxxxxxxxx |xxxxxxxxxxxxx |            1 |            1 |            1 |xxxxxxxxxxxxx |xxxxxxxxxxxxx |xxxxxxxxxxxxx |xxxxxxxxxxxxx |            2 |            2 |            2 |xxxxxxxxxxxxx |xxxxxxxxxxxxx |xxxxxxxxxxxxx |xxxxxxxxxxxxx |            1 |            1 |            1 |
bpred_bimod.bpred_addr_rate                 0.7339 |       0.7339 |       0.7340 |xxxxxxxxxxxxx |xxxxxxxxxxxxx |xxxxxxxxxxxxx |xxxxxxxxxxxxx |       0.7361 |       0.7361 |       0.7362 |xxxxxxxxxxxxx |xxxxxxxxxxxxx |xxxxxxxxxxxxx |xxxxxxxxxxxxx |       0.7356 |       0.7356 |       0.7356 |xxxxxxxxxxxxx |xxxxxxxxxxxxx |xxxxxxxxxxxxx |xxxxxxxxxxxxx |       0.7385 |       0.7385 |       0.7385 |xxxxxxxxxxxxx |xxxxxxxxxxxxx |xxxxxxxxxxxxx |xxxxxxxxxxxxx |       0.7375 |       0.7375 |       0.7375 |xxxxxxxxxxxxx |xxxxxxxxxxxxx |xxxxxxxxxxxxx |xxxxxxxxxxxxx |       0.7390 |       0.7390 |       0.7390 |xxxxxxxxxxxxx |xxxxxxxxxxxxx |xxxxxxxxxxxxx |xxxxxxxxxxxxx |       0.7386 |       0.7386 |       0.7386 |xxxxxxxxxxxxx |xxxxxxxxxxxxx |xxxxxxxxxxxxx |xxxxxxxxxxxxx |       0.7401 |       0.7401 |       0.7401 |xxxxxxxxxxxxx |xxxxxxxxxxxxx |xxxxxxxxxxxxx |xxxxxxxxxxxxx |       0.7398 |       0.7398 |       0.7398 |xxxxxxxxxxxxx |xxxxxxxxxxxxx |xxxxxxxxxxxxx |xxxxxxxxxxxxx |       0.7411 |       0.7411 |       0.7411 |xxxxxxxxxxxxx |xxxxxxxxxxxxx |xxxxxxxxxxxxx |xxxxxxxxxxxxx |       0.7408 |       0.7408 |       0.7408 |
bpred_bimod.bpred_dir_rate                  0.7351 |       0.7351 |       0.7351 |xxxxxxxxxxxxx |xxxxxxxxxxxxx |xxxxxxxxxxxxx |xxxxxxxxxxxxx |       0.7367 |       0.7367 |       0.7368 |xxxxxxxxxxxxx |xxxxxxxxxxxxx |xxxxxxxxxxxxx |xxxxxxxxxxxxx |       0.7358 |       0.7358 |       0.7359 |xxxxxxxxxxxxx |xxxxxxxxxxxxx |xxxxxxxxxxxxx |xxxxxxxxxxxxx |       0.7386 |       0.7386 |       0.7386 |xxxxxxxxxxxxx |xxxxxxxxxxxxx |xxxxxxxxxxxxx |xxxxxxxxxxxxx |       0.7376 |       0.7376 |       0.7376 |xxxxxxxxxxxxx |xxxxxxxxxxxxx |xxxxxxxxxxxxx |xxxxxxxxxxxxx |       0.7391 |       0.7391 |       0.7391 |xxxxxxxxxxxxx |xxxxxxxxxxxxx |xxxxxxxxxxxxx |xxxxxxxxxxxxx |       0.7387 |       0.7387 |       0.7387 |xxxxxxxxxxxxx |xxxxxxxxxxxxx |xxxxxxxxxxxxx |xxxxxxxxxxxxx |       0.7401 |       0.7401 |       0.7401 |xxxxxxxxxxxxx |xxxxxxxxxxxxx |xxxxxxxxxxxxx |xxxxxxxxxxxxx |       0.7398 |       0.7398 |       0.7398 |xxxxxxxxxxxxx |xxxxxxxxxxxxx |xxxxxxxxxxxxx |xxxxxxxxxxxxx |       0.7411 |       0.7411 |       0.7411 |xxxxxxxxxxxxx |xxxxxxxxxxxxx |xxxxxxxxxxxxx |xxxxxxxxxxxxx |       0.7408 |       0.7408 |       0.7408 |
bpred_bimod.bpred_jr_rate                   1.0000 |       1.0000 |       1.0000 |xxxxxxxxxxxxx |xxxxxxxxxxxxx |xxxxxxxxxxxxx |xxxxxxxxxxxxx |       0.9726 |       0.9726 |       0.9726 |xxxxxxxxxxxxx |xxxxxxxxxxxxx |xxxxxxxxxxxxx |xxxxxxxxxxxxx |       0.9857 |       0.9857 |       0.9857 |xxxxxxxxxxxxx |xxxxxxxxxxxxx |xxxxxxxxxxxxx |xxxxxxxxxxxxx |       0.9726 |       0.9726 |       0.9726 |xxxxxxxxxxxxx |xxxxxxxxxxxxx |xxxxxxxxxxxxx |xxxxxxxxxxxxx |       0.9857 |       0.9857 |       0.9857 |xxxxxxxxxxxxx |xxxxxxxxxxxxx |xxxxxxxxxxxxx |xxxxxxxxxxxxx |       0.9726 |       0.9726 |       0.9726 |xxxxxxxxxxxxx |xxxxxxxxxxxxx |xxxxxxxxxxxxx |xxxxxxxxxxxxx |       0.9857 |       0.9857 |       0.9857 |xxxxxxxxxxxxx |xxxxxxxxxxxxx |xxxxxxxxxxxxx |xxxxxxxxxxxxx |       0.9726 |       0.9726 |       0.9726 |xxxxxxxxxxxxx |xxxxxxxxxxxxx |xxxxxxxxxxxxx |xxxxxxxxxxxxx |       0.9863 |       0.9863 |       0.9863 |xxxxxxxxxxxxx |xxxxxxxxxxxxx |xxxxxxxxxxxxx |xxxxxxxxxxxxx |       0.9868 |       0.9868 |       0.9868 |xxxxxxxxxxxxx |xxxxxxxxxxxxx |xxxxxxxxxxxxx |xxxxxxxxxxxxx |       0.9863 |       0.9863 |       0.9863 |
bpred_bimod.bpred_jr_non_ras_rate.PP       <error: |      <error: |      <error: |xxxxxxxxxxxxx |xxxxxxxxxxxxx |xxxxxxxxxxxxx |xxxxxxxxxxxxx |       0.0000 |       0.0000 |       0.0000 |xxxxxxxxxxxxx |xxxxxxxxxxxxx |xxxxxxxxxxxxx |xxxxxxxxxxxxx |      <error: |      <error: |      <error: |xxxxxxxxxxxxx |xxxxxxxxxxxxx |xxxxxxxxxxxxx |xxxxxxxxxxxxx |       0.0000 |       0.0000 |       0.0000 |xxxxxxxxxxxxx |xxxxxxxxxxxxx |xxxxxxxxxxxxx |xxxxxxxxxxxxx |      <error: |      <error: |      <error: |xxxxxxxxxxxxx |xxxxxxxxxxxxx |xxxxxxxxxxxxx |xxxxxxxxxxxxx |       0.0000 |       0.0000 |       0.0000 |xxxxxxxxxxxxx |xxxxxxxxxxxxx |xxxxxxxxxxxxx |xxxxxxxxxxxxx |      <error: |      <error: |      <error: |xxxxxxxxxxxxx |xxxxxxxxxxxxx |xxxxxxxxxxxxx |xxxxxxxxxxxxx |       0.0000 |       0.0000 |       0.0000 |xxxxxxxxxxxxx |xxxxxxxxxxxxx |xxxxxxxxxxxxx |xxxxxxxxxxxxx |       0.0000 |       0.0000 |       0.0000 |xxxxxxxxxxxxx |xxxxxxxxxxxxx |xxxxxxxxxxxxx |xxxxxxxxxxxxx |       0.5000 |       0.5000 |       0.5000 |xxxxxxxxxxxxx |xxxxxxxxxxxxx |xxxxxxxxxxxxx |xxxxxxxxxxxxx |       0.0000 |       0.0000 |       0.0000 |
bpred_bimod.retstack_pushes                     63 |           63 |           63 |xxxxxxxxxxxxx |xxxxxxxxxxxxx |xxxxxxxxxxxxx |xxxxxxxxxxxxx |           74 |           74 |           74 |xxxxxxxxxxxxx |xxxxxxxxxxxxx |xxxxxxxxxxxxx |xxxxxxxxxxxxx |           72 |           72 |           72 |xxxxxxxxxxxxx |xxxxxxxxxxxxx |xxxxxxxxxxxxx |xxxxxxxxxxxxx |           74 |           74 |           74 |xxxxxxxxxxxxx |xxxxxxxxxxxxx |xxxxxxxxxxxxx |xxxxxxxxxxxxx |           72 |           72 |           72 |xxxxxxxxxxxxx |xxxxxxxxxxxxx |xxxxxxxxxxxxx |xxxxxxxxxxxxx |           74 |           74 |           74 |xxxxxxxxxxxxx |xxxxxxxxxxxxx |xxxxxxxxxxxxx |xxxxxxxxxxxxx |           72 |           72 |           72 |xxxxxxxxxxxxx |xxxxxxxxxxxxx |xxxxxxxxxxxxx |xxxxxxxxxxxxx |           74 |           74 |           74 |xxxxxxxxxxxxx |xxxxxxxxxxxxx |xxxxxxxxxxxxx |xxxxxxxxxxxxx |           74 |           74 |           74 |xxxxxxxxxxxxx |xxxxxxxxxxxxx |xxxxxxxxxxxxx |xxxxxxxxxxxxx |           76 |           76 |           76 |xxxxxxxxxxxxx |xxxxxxxxxxxxx |xxxxxxxxxxxxx |xxxxxxxxxxxxx |           74 |           74 |           74 |
bpred_bimod.retstack_pops                       61 |           61 |           61 |xxxxxxxxxxxxx |xxxxxxxxxxxxx |xxxxxxxxxxxxx |xxxxxxxxxxxxx |           72 |           72 |           72 |xxxxxxxxxxxxx |xxxxxxxxxxxxx |xxxxxxxxxxxxx |xxxxxxxxxxxxx |           70 |           70 |           70 |xxxxxxxxxxxxx |xxxxxxxxxxxxx |xxxxxxxxxxxxx |xxxxxxxxxxxxx |           72 |           72 |           72 |xxxxxxxxxxxxx |xxxxxxxxxxxxx |xxxxxxxxxxxxx |xxxxxxxxxxxxx |           70 |           70 |           70 |xxxxxxxxxxxxx |xxxxxxxxxxxxx |xxxxxxxxxxxxx |xxxxxxxxxxxxx |           72 |           72 |           72 |xxxxxxxxxxxxx |xxxxxxxxxxxxx |xxxxxxxxxxxxx |xxxxxxxxxxxxx |           70 |           70 |           70 |xxxxxxxxxxxxx |xxxxxxxxxxxxx |xxxxxxxxxxxxx |xxxxxxxxxxxxx |           72 |           72 |           72 |xxxxxxxxxxxxx |xxxxxxxxxxxxx |xxxxxxxxxxxxx |xxxxxxxxxxxxx |           72 |           72 |           72 |xxxxxxxxxxxxx |xxxxxxxxxxxxx |xxxxxxxxxxxxx |xxxxxxxxxxxxx |           74 |           74 |           74 |xxxxxxxxxxxxx |xxxxxxxxxxxxx |xxxxxxxxxxxxx |xxxxxxxxxxxxx |           72 |           72 |           72 |
bpred_bimod.used_ras.PP                         61 |           61 |           61 |xxxxxxxxxxxxx |xxxxxxxxxxxxx |xxxxxxxxxxxxx |xxxxxxxxxxxxx |           72 |           72 |           72 |xxxxxxxxxxxxx |xxxxxxxxxxxxx |xxxxxxxxxxxxx |xxxxxxxxxxxxx |           70 |           70 |           70 |xxxxxxxxxxxxx |xxxxxxxxxxxxx |xxxxxxxxxxxxx |xxxxxxxxxxxxx |           72 |           72 |           72 |xxxxxxxxxxxxx |xxxxxxxxxxxxx |xxxxxxxxxxxxx |xxxxxxxxxxxxx |           70 |           70 |           70 |xxxxxxxxxxxxx |xxxxxxxxxxxxx |xxxxxxxxxxxxx |xxxxxxxxxxxxx |           72 |           72 |           72 |xxxxxxxxxxxxx |xxxxxxxxxxxxx |xxxxxxxxxxxxx |xxxxxxxxxxxxx |           70 |           70 |           70 |xxxxxxxxxxxxx |xxxxxxxxxxxxx |xxxxxxxxxxxxx |xxxxxxxxxxxxx |           72 |           72 |           72 |xxxxxxxxxxxxx |xxxxxxxxxxxxx |xxxxxxxxxxxxx |xxxxxxxxxxxxx |           72 |           72 |           72 |xxxxxxxxxxxxx |xxxxxxxxxxxxx |xxxxxxxxxxxxx |xxxxxxxxxxxxx |           74 |           74 |           74 |xxxxxxxxxxxxx |xxxxxxxxxxxxx |xxxxxxxxxxxxx |xxxxxxxxxxxxx |           72 |           72 |           72 |
bpred_bimod.ras_hits.PP                         61 |           61 |           61 |xxxxxxxxxxxxx |xxxxxxxxxxxxx |xxxxxxxxxxxxx |xxxxxxxxxxxxx |           71 |           71 |           71 |xxxxxxxxxxxxx |xxxxxxxxxxxxx |xxxxxxxxxxxxx |xxxxxxxxxxxxx |           69 |           69 |           69 |xxxxxxxxxxxxx |xxxxxxxxxxxxx |xxxxxxxxxxxxx |xxxxxxxxxxxxx |           71 |           71 |           71 |xxxxxxxxxxxxx |xxxxxxxxxxxxx |xxxxxxxxxxxxx |xxxxxxxxxxxxx |           69 |           69 |           69 |xxxxxxxxxxxxx |xxxxxxxxxxxxx |xxxxxxxxxxxxx |xxxxxxxxxxxxx |           71 |           71 |           71 |xxxxxxxxxxxxx |xxxxxxxxxxxxx |xxxxxxxxxxxxx |xxxxxxxxxxxxx |           69 |           69 |           69 |xxxxxxxxxxxxx |xxxxxxxxxxxxx |xxxxxxxxxxxxx |xxxxxxxxxxxxx |           71 |           71 |           71 |xxxxxxxxxxxxx |xxxxxxxxxxxxx |xxxxxxxxxxxxx |xxxxxxxxxxxxx |           72 |           72 |           72 |xxxxxxxxxxxxx |xxxxxxxxxxxxx |xxxxxxxxxxxxx |xxxxxxxxxxxxx |           74 |           74 |           74 |xxxxxxxxxxxxx |xxxxxxxxxxxxx |xxxxxxxxxxxxx |xxxxxxxxxxxxx |           72 |           72 |           72 |
bpred_bimod.ras_rate.PP                     1.0000 |       1.0000 |       1.0000 |xxxxxxxxxxxxx |xxxxxxxxxxxxx |xxxxxxxxxxxxx |xxxxxxxxxxxxx |       0.9861 |       0.9861 |       0.9861 |xxxxxxxxxxxxx |xxxxxxxxxxxxx |xxxxxxxxxxxxx |xxxxxxxxxxxxx |       0.9857 |       0.9857 |       0.9857 |xxxxxxxxxxxxx |xxxxxxxxxxxxx |xxxxxxxxxxxxx |xxxxxxxxxxxxx |       0.9861 |       0.9861 |       0.9861 |xxxxxxxxxxxxx |xxxxxxxxxxxxx |xxxxxxxxxxxxx |xxxxxxxxxxxxx |       0.9857 |       0.9857 |       0.9857 |xxxxxxxxxxxxx |xxxxxxxxxxxxx |xxxxxxxxxxxxx |xxxxxxxxxxxxx |       0.9861 |       0.9861 |       0.9861 |xxxxxxxxxxxxx |xxxxxxxxxxxxx |xxxxxxxxxxxxx |xxxxxxxxxxxxx |       0.9857 |       0.9857 |       0.9857 |xxxxxxxxxxxxx |xxxxxxxxxxxxx |xxxxxxxxxxxxx |xxxxxxxxxxxxx |       0.9861 |       0.9861 |       0.9861 |xxxxxxxxxxxxx |xxxxxxxxxxxxx |xxxxxxxxxxxxx |xxxxxxxxxxxxx |       1.0000 |       1.0000 |       1.0000 |xxxxxxxxxxxxx |xxxxxxxxxxxxx |xxxxxxxxxxxxx |xxxxxxxxxxxxx |       1.0000 |       1.0000 |       1.0000 |xxxxxxxxxxxxx |xxxxxxxxxxxxx |xxxxxxxxxxxxx |xxxxxxxxxxxxx |       1.0000 |       1.0000 |       1.0000 |
bpred_2lev.lookups                   xxxxxxxxxxxxx |xxxxxxxxxxxxx |xxxxxxxxxxxxx |        94359 |        94359 |        94359 |        94359 |xxxxxxxxxxxxx |xxxxxxxxxxxxx |xxxxxxxxxxxxx |       205562 |       205562 |       205562 |       205562 |xxxxxxxxxxxxx |xxxxxxxxxxxxx |xxxxxxxxxxxxx |       441046 |       441046 |       441046 |       441046 |xxxxxxxxxxxxx |xxxxxxxxxxxxx |xxxxxxxxxxxxx |       952005 |       952005 |       952005 |       952005 |xxxxxxxxxxxxx |xxxxxxxxxxxxx |xxxxxxxxxxxxx |      2025184 |      2025184 |      2025184 |      2025184 |xxxxxxxxxxxxx |xxxxxxxxxxxxx |xxxxxxxxxxxxx |      4328076 |      4328076 |      4328076 |      4328076 |xxxxxxxxxxxxx |xxxxxxxxxxxxx |xxxxxxxxxxxxx |      9148469 |      9148469 |      9148469 |      9148469 |xxxxxxxxxxxxx |xxxxxxxxxxxxx |xxxxxxxxxxxxx |     19416764 |     19416764 |     19416764 |     19416764 |xxxxxxxxxxxxx |xxxxxxxxxxxxx |xxxxxxxxxxxxx |     40803256 |     40803256 |     40803256 |     40803256 |xxxxxxxxxxxxx |xxxxxxxxxxxxx |xxxxxxxxxxxxx |     86074142 |     86074142 |     86074142 |     86074142 |xxxxxxxxxxxxx |xxxxxxxxxxxxx |xxxxxxxxxxxxx |    180014879 |    180014879 |    180014879 |    180014879 |
[...]
bpred_2lev.retstack_pushes           xxxxxxxxxxxxx |xxxxxxxxxxxxx |xxxxxxxxxxxxx |           63 |           63 |           63 |           63 |xxxxxxxxxxxxx |xxxxxxxxxxxxx |xxxxxxxxxxxxx |           74 |           74 |           74 |           74 |xxxxxxxxxxxxx |xxxxxxxxxxxxx |xxxxxxxxxxxxx |           72 |           72 |           72 |           72 |xxxxxxxxxxxxx |xxxxxxxxxxxxx |xxxxxxxxxxxxx |           74 |           74 |           74 |           74 |xxxxxxxxxxxxx |xxxxxxxxxxxxx |xxxxxxxxxxxxx |           72 |           72 |           72 |           72 |xxxxxxxxxxxxx |xxxxxxxxxxxxx |xxxxxxxxxxxxx |           74 |           74 |           74 |           74 |xxxxxxxxxxxxx |xxxxxxxxxxxxx |xxxxxxxxxxxxx |           72 |           72 |           72 |           72 |xxxxxxxxxxxxx |xxxxxxxxxxxxx |xxxxxxxxxxxxx |           74 |           74 |           74 |           74 |xxxxxxxxxxxxx |xxxxxxxxxxxxx |xxxxxxxxxxxxx |           74 |           74 |           74 |           74 |xxxxxxxxxxxxx |xxxxxxxxxxxxx |xxxxxxxxxxxxx |           76 |           76 |           76 |           76 |xxxxxxxxxxxxx |xxxxxxxxxxxxx |xxxxxxxxxxxxx |           74 |           74 |           74 |           74 |
bpred_2lev.retstack_pops             xxxxxxxxxxxxx |xxxxxxxxxxxxx |xxxxxxxxxxxxx |           61 |           61 |           61 |           61 |xxxxxxxxxxxxx |xxxxxxxxxxxxx |xxxxxxxxxxxxx |           72 |           72 |           72 |           72 |xxxxxxxxxxxxx |xxxxxxxxxxxxx |xxxxxxxxxxxxx |           70 |           70 |           70 |           70 |xxxxxxxxxxxxx |xxxxxxxxxxxxx |xxxxxxxxxxxxx |           72 |           72 |           72 |           72 |xxxxxxxxxxxxx |xxxxxxxxxxxxx |xxxxxxxxxxxxx |           70 |           70 |           70 |           70 |xxxxxxxxxxxxx |xxxxxxxxxxxxx |xxxxxxxxxxxxx |           72 |           72 |           72 |           72 |xxxxxxxxxxxxx |xxxxxxxxxxxxx |xxxxxxxxxxxxx |           70 |           70 |           70 |           70 |xxxxxxxxxxxxx |xxxxxxxxxxxxx |xxxxxxxxxxxxx |           72 |           72 |           72 |           72 |xxxxxxxxxxxxx |xxxxxxxxxxxxx |xxxxxxxxxxxxx |           72 |           72 |           72 |           72 |xxxxxxxxxxxxx |xxxxxxxxxxxxx |xxxxxxxxxxxxx |           74 |           74 |           74 |           74 |xxxxxxxxxxxxx |xxxxxxxxxxxxx |xxxxxxxxxxxxx |           72 |           72 |           72 |           72 |
bpred_2lev.used_ras.PP               xxxxxxxxxxxxx |xxxxxxxxxxxxx |xxxxxxxxxxxxx |           61 |           61 |           61 |           61 |xxxxxxxxxxxxx |xxxxxxxxxxxxx |xxxxxxxxxxxxx |           72 |           72 |           72 |           72 |xxxxxxxxxxxxx |xxxxxxxxxxxxx |xxxxxxxxxxxxx |           70 |           70 |           70 |           70 |xxxxxxxxxxxxx |xxxxxxxxxxxxx |xxxxxxxxxxxxx |           72 |           72 |           72 |           72 |xxxxxxxxxxxxx |xxxxxxxxxxxxx |xxxxxxxxxxxxx |           70 |           70 |           70 |           70 |xxxxxxxxxxxxx |xxxxxxxxxxxxx |xxxxxxxxxxxxx |           72 |           72 |           72 |           72 |xxxxxxxxxxxxx |xxxxxxxxxxxxx |xxxxxxxxxxxxx |           70 |           70 |           70 |           70 |xxxxxxxxxxxxx |xxxxxxxxxxxxx |xxxxxxxxxxxxx |           72 |           72 |           72 |           72 |xxxxxxxxxxxxx |xxxxxxxxxxxxx |xxxxxxxxxxxxx |           72 |           72 |           72 |           72 |xxxxxxxxxxxxx |xxxxxxxxxxxxx |xxxxxxxxxxxxx |           74 |           74 |           74 |           74 |xxxxxxxxxxxxx |xxxxxxxxxxxxx |xxxxxxxxxxxxx |           72 |           72 |           72 |           72 |
bpred_2lev.ras_hits.PP               xxxxxxxxxxxxx |xxxxxxxxxxxxx |xxxxxxxxxxxxx |           61 |           61 |           61 |           61 |xxxxxxxxxxxxx |xxxxxxxxxxxxx |xxxxxxxxxxxxx |           71 |           71 |           71 |           71 |xxxxxxxxxxxxx |xxxxxxxxxxxxx |xxxxxxxxxxxxx |           69 |           69 |           69 |           69 |xxxxxxxxxxxxx |xxxxxxxxxxxxx |xxxxxxxxxxxxx |           71 |           71 |           71 |           71 |xxxxxxxxxxxxx |xxxxxxxxxxxxx |xxxxxxxxxxxxx |           69 |           69 |           69 |           69 |xxxxxxxxxxxxx |xxxxxxxxxxxxx |xxxxxxxxxxxxx |           71 |           71 |           71 |           71 |xxxxxxxxxxxxx |xxxxxxxxxxxxx |xxxxxxxxxxxxx |           69 |           69 |           69 |           69 |xxxxxxxxxxxxx |xxxxxxxxxxxxx |xxxxxxxxxxxxx |           71 |           71 |           71 |           71 |xxxxxxxxxxxxx |xxxxxxxxxxxxx |xxxxxxxxxxxxx |           72 |           72 |           72 |           72 |xxxxxxxxxxxxx |xxxxxxxxxxxxx |xxxxxxxxxxxxx |           74 |           74 |           74 |           74 |xxxxxxxxxxxxx |xxxxxxxxxxxxx |xxxxxxxxxxxxx |           72 |           72 |           72 |           72 |
bpred_2lev.ras_rate.PP               xxxxxxxxxxxxx |xxxxxxxxxxxxx |xxxxxxxxxxxxx |       1.0000 |       1.0000 |       1.0000 |       1.0000 |xxxxxxxxxxxxx |xxxxxxxxxxxxx |xxxxxxxxxxxxx |       0.9861 |       0.9861 |       0.9861 |       0.9861 |xxxxxxxxxxxxx |xxxxxxxxxxxxx |xxxxxxxxxxxxx |       0.9857 |       0.9857 |       0.9857 |       0.9857 |xxxxxxxxxxxxx |xxxxxxxxxxxxx |xxxxxxxxxxxxx |       0.9861 |       0.9861 |       0.9861 |       0.9861 |xxxxxxxxxxxxx |xxxxxxxxxxxxx |xxxxxxxxxxxxx |       0.9857 |       0.9857 |       0.9857 |       0.9857 |xxxxxxxxxxxxx |xxxxxxxxxxxxx |xxxxxxxxxxxxx |       0.9861 |       0.9861 |       0.9861 |       0.9861 |xxxxxxxxxxxxx |xxxxxxxxxxxxx |xxxxxxxxxxxxx |       0.9857 |       0.9857 |       0.9857 |       0.9857 |xxxxxxxxxxxxx |xxxxxxxxxxxxx |xxxxxxxxxxxxx |       0.9861 |       0.9861 |       0.9861 |       0.9861 |xxxxxxxxxxxxx |xxxxxxxxxxxxx |xxxxxxxxxxxxx |       1.0000 |       1.0000 |       1.0000 |       1.0000 |xxxxxxxxxxxxx |xxxxxxxxxxxxx |xxxxxxxxxxxxx |       1.0000 |       1.0000 |       1.0000 |       1.0000 |xxxxxxxxxxxxx |xxxxxxxxxxxxx |xxxxxxxxxxxxx |       1.0000 |       1.0000 |       1.0000 |       1.0000 |

Command list: 
	sslittle-na-sstrix-gcc -Wall -O3 -funroll-loops -finline-functions  -DRANDOM_SIZE=4096 -DOFFSET=8 -DSORT=base_mergesort sorts/base_mergesort2114868378.c simpleMain.c -o base_mergesort64736124
	sim-cache -cache:dl1 dl1:256:32:1:l -cache:dl2 dl2:131072:32:1:l -cache:il1 il1:256:32:1:l -cache:il2 dl2 base_mergesort64736124
	sim-cache -cache:dl1 dl1:256:32:1:l -cache:dl2 dl2:65536:32:1:l -cache:il1 il1:256:32:1:l -cache:il2 dl2 base_mergesort64736124
	sim-cache -cache:dl1 dl1:1:32:256:l -cache:dl2 dl2:1:32:131072:l -cache:il1 il1:1:32:256:l -cache:il2 dl2 base_mergesort64736124
	sim-cache -cache:dl1 dl1:1:32:256:l -cache:dl2 dl2:1:32:65536:l -cache:il1 il1:1:32:256:l -cache:il2 dl2 base_mergesort64736124
	sim-bpred -bpred bimod -bpred:bimod 512 base_mergesort64736124
	sim-bpred -bpred bimod -bpred:bimod 1024 base_mergesort64736124
	sim-bpred -bpred bimod -bpred:bimod 2048 base_mergesort64736124
	sim-bpred -bpred 2lev -bpred:2lev 1 512 10 1 base_mergesort64736124
	sim-bpred -bpred 2lev -bpred:2lev 1 1024 10 1 base_mergesort64736124
	sim-bpred -bpred 2lev -bpred:2lev 1 2048 10 1 base_mergesort64736124
	sim-bpred -bpred 2lev -bpred:2lev 1 4096 10 1 base_mergesort64736124
	sslittle-na-sstrix-gcc -Wall -O3 -funroll-loops -finline-functions  -DRANDOM_SIZE=8192 -DOFFSET=8 -DSORT=base_mergesort sorts/base_mergesort2114868378.c simpleMain.c -o base_mergesort64736124
	sim-cache -cache:dl1 dl1:256:32:1:l -cache:dl2 dl2:131072:32:1:l -cache:il1 il1:256:32:1:l -cache:il2 dl2 base_mergesort64736124
	sim-cache -cache:dl1 dl1:256:32:1:l -cache:dl2 dl2:65536:32:1:l -cache:il1 il1:256:32:1:l -cache:il2 dl2 base_mergesort64736124
	sim-cache -cache:dl1 dl1:1:32:256:l -cache:dl2 dl2:1:32:131072:l -cache:il1 il1:1:32:256:l -cache:il2 dl2 base_mergesort64736124
	sim-cache -cache:dl1 dl1:1:32:256:l -cache:dl2 dl2:1:32:65536:l -cache:il1 il1:1:32:256:l -cache:il2 dl2 base_mergesort64736124
	sim-bpred -bpred bimod -bpred:bimod 512 base_mergesort64736124
	sim-bpred -bpred bimod -bpred:bimod 1024 base_mergesort64736124
	sim-bpred -bpred bimod -bpred:bimod 2048 base_mergesort64736124
	sim-bpred -bpred 2lev -bpred:2lev 1 512 10 1 base_mergesort64736124
	sim-bpred -bpred 2lev -bpred:2lev 1 1024 10 1 base_mergesort64736124
	sim-bpred -bpred 2lev -bpred:2lev 1 2048 10 1 base_mergesort64736124
	sim-bpred -bpred 2lev -bpred:2lev 1 4096 10 1 base_mergesort64736124
	sslittle-na-sstrix-gcc -Wall -O3 -funroll-loops -finline-functions  -DRANDOM_SIZE=16384 -DOFFSET=8 -DSORT=base_mergesort sorts/base_mergesort2114868378.c simpleMain.c -o base_mergesort64736124
	sim-cache -cache:dl1 dl1:256:32:1:l -cache:dl2 dl2:131072:32:1:l -cache:il1 il1:256:32:1:l -cache:il2 dl2 base_mergesort64736124
	sim-cache -cache:dl1 dl1:256:32:1:l -cache:dl2 dl2:65536:32:1:l -cache:il1 il1:256:32:1:l -cache:il2 dl2 base_mergesort64736124
	sim-cache -cache:dl1 dl1:1:32:256:l -cache:dl2 dl2:1:32:131072:l -cache:il1 il1:1:32:256:l -cache:il2 dl2 base_mergesort64736124
	sim-cache -cache:dl1 dl1:1:32:256:l -cache:dl2 dl2:1:32:65536:l -cache:il1 il1:1:32:256:l -cache:il2 dl2 base_mergesort64736124
	sim-bpred -bpred bimod -bpred:bimod 512 base_mergesort64736124
	sim-bpred -bpred bimod -bpred:bimod 1024 base_mergesort64736124
	sim-bpred -bpred bimod -bpred:bimod 2048 base_mergesort64736124
	sim-bpred -bpred 2lev -bpred:2lev 1 512 10 1 base_mergesort64736124
	sim-bpred -bpred 2lev -bpred:2lev 1 1024 10 1 base_mergesort64736124
	sim-bpred -bpred 2lev -bpred:2lev 1 2048 10 1 base_mergesort64736124
	sim-bpred -bpred 2lev -bpred:2lev 1 4096 10 1 base_mergesort64736124
	sslittle-na-sstrix-gcc -Wall -O3 -funroll-loops -finline-functions  -DRANDOM_SIZE=32768 -DOFFSET=8 -DSORT=base_mergesort sorts/base_mergesort2114868378.c simpleMain.c -o base_mergesort64736124
	sim-cache -cache:dl1 dl1:256:32:1:l -cache:dl2 dl2:131072:32:1:l -cache:il1 il1:256:32:1:l -cache:il2 dl2 base_mergesort64736124
	sim-cache -cache:dl1 dl1:256:32:1:l -cache:dl2 dl2:65536:32:1:l -cache:il1 il1:256:32:1:l -cache:il2 dl2 base_mergesort64736124
	sim-cache -cache:dl1 dl1:1:32:256:l -cache:dl2 dl2:1:32:131072:l -cache:il1 il1:1:32:256:l -cache:il2 dl2 base_mergesort64736124
	sim-cache -cache:dl1 dl1:1:32:256:l -cache:dl2 dl2:1:32:65536:l -cache:il1 il1:1:32:256:l -cache:il2 dl2 base_mergesort64736124
	sim-bpred -bpred bimod -bpred:bimod 512 base_mergesort64736124
	sim-bpred -bpred bimod -bpred:bimod 1024 base_mergesort64736124
	sim-bpred -bpred bimod -bpred:bimod 2048 base_mergesort64736124
	sim-bpred -bpred 2lev -bpred:2lev 1 512 10 1 base_mergesort64736124
	sim-bpred -bpred 2lev -bpred:2lev 1 1024 10 1 base_mergesort64736124
	sim-bpred -bpred 2lev -bpred:2lev 1 2048 10 1 base_mergesort64736124
	sim-bpred -bpred 2lev -bpred:2lev 1 4096 10 1 base_mergesort64736124
	sslittle-na-sstrix-gcc -Wall -O3 -funroll-loops -finline-functions  -DRANDOM_SIZE=65536 -DOFFSET=8 -DSORT=base_mergesort sorts/base_mergesort2114868378.c simpleMain.c -o base_mergesort64736124
	sim-cache -cache:dl1 dl1:256:32:1:l -cache:dl2 dl2:131072:32:1:l -cache:il1 il1:256:32:1:l -cache:il2 dl2 base_mergesort64736124
	sim-cache -cache:dl1 dl1:256:32:1:l -cache:dl2 dl2:65536:32:1:l -cache:il1 il1:256:32:1:l -cache:il2 dl2 base_mergesort64736124
	sim-cache -cache:dl1 dl1:1:32:256:l -cache:dl2 dl2:1:32:131072:l -cache:il1 il1:1:32:256:l -cache:il2 dl2 base_mergesort64736124
	sim-cache -cache:dl1 dl1:1:32:256:l -cache:dl2 dl2:1:32:65536:l -cache:il1 il1:1:32:256:l -cache:il2 dl2 base_mergesort64736124
	sim-bpred -bpred bimod -bpred:bimod 512 base_mergesort64736124
	sim-bpred -bpred bimod -bpred:bimod 1024 base_mergesort64736124
	sim-bpred -bpred bimod -bpred:bimod 2048 base_mergesort64736124
	sim-bpred -bpred 2lev -bpred:2lev 1 512 10 1 base_mergesort64736124
	sim-bpred -bpred 2lev -bpred:2lev 1 1024 10 1 base_mergesort64736124
	sim-bpred -bpred 2lev -bpred:2lev 1 2048 10 1 base_mergesort64736124
	sim-bpred -bpred 2lev -bpred:2lev 1 4096 10 1 base_mergesort64736124
	sslittle-na-sstrix-gcc -Wall -O3 -funroll-loops -finline-functions  -DRANDOM_SIZE=131072 -DOFFSET=8 -DSORT=base_mergesort sorts/base_mergesort2114868378.c simpleMain.c -o base_mergesort64736124
	sim-cache -cache:dl1 dl1:256:32:1:l -cache:dl2 dl2:131072:32:1:l -cache:il1 il1:256:32:1:l -cache:il2 dl2 base_mergesort64736124
	sim-cache -cache:dl1 dl1:256:32:1:l -cache:dl2 dl2:65536:32:1:l -cache:il1 il1:256:32:1:l -cache:il2 dl2 base_mergesort64736124
	sim-cache -cache:dl1 dl1:1:32:256:l -cache:dl2 dl2:1:32:131072:l -cache:il1 il1:1:32:256:l -cache:il2 dl2 base_mergesort64736124
	sim-cache -cache:dl1 dl1:1:32:256:l -cache:dl2 dl2:1:32:65536:l -cache:il1 il1:1:32:256:l -cache:il2 dl2 base_mergesort64736124
	sim-bpred -bpred bimod -bpred:bimod 512 base_mergesort64736124
	sim-bpred -bpred bimod -bpred:bimod 1024 base_mergesort64736124
	sim-bpred -bpred bimod -bpred:bimod 2048 base_mergesort64736124
	sim-bpred -bpred 2lev -bpred:2lev 1 512 10 1 base_mergesort64736124
	sim-bpred -bpred 2lev -bpred:2lev 1 1024 10 1 base_mergesort64736124
	sim-bpred -bpred 2lev -bpred:2lev 1 2048 10 1 base_mergesort64736124
	sim-bpred -bpred 2lev -bpred:2lev 1 4096 10 1 base_mergesort64736124
	sslittle-na-sstrix-gcc -Wall -O3 -funroll-loops -finline-functions  -DRANDOM_SIZE=262144 -DOFFSET=8 -DSORT=base_mergesort sorts/base_mergesort2114868378.c simpleMain.c -o base_mergesort64736124
	sim-cache -cache:dl1 dl1:256:32:1:l -cache:dl2 dl2:131072:32:1:l -cache:il1 il1:256:32:1:l -cache:il2 dl2 base_mergesort64736124
	sim-cache -cache:dl1 dl1:256:32:1:l -cache:dl2 dl2:65536:32:1:l -cache:il1 il1:256:32:1:l -cache:il2 dl2 base_mergesort64736124
	sim-cache -cache:dl1 dl1:1:32:256:l -cache:dl2 dl2:1:32:131072:l -cache:il1 il1:1:32:256:l -cache:il2 dl2 base_mergesort64736124
	sim-cache -cache:dl1 dl1:1:32:256:l -cache:dl2 dl2:1:32:65536:l -cache:il1 il1:1:32:256:l -cache:il2 dl2 base_mergesort64736124
	sim-bpred -bpred bimod -bpred:bimod 512 base_mergesort64736124
	sim-bpred -bpred bimod -bpred:bimod 1024 base_mergesort64736124
	sim-bpred -bpred bimod -bpred:bimod 2048 base_mergesort64736124
	sim-bpred -bpred 2lev -bpred:2lev 1 512 10 1 base_mergesort64736124
	sim-bpred -bpred 2lev -bpred:2lev 1 1024 10 1 base_mergesort64736124
	sim-bpred -bpred 2lev -bpred:2lev 1 2048 10 1 base_mergesort64736124
	sim-bpred -bpred 2lev -bpred:2lev 1 4096 10 1 base_mergesort64736124
	sslittle-na-sstrix-gcc -Wall -O3 -funroll-loops -finline-functions  -DRANDOM_SIZE=524288 -DOFFSET=8 -DSORT=base_mergesort sorts/base_mergesort2114868378.c simpleMain.c -o base_mergesort64736124
	sim-cache -cache:dl1 dl1:256:32:1:l -cache:dl2 dl2:131072:32:1:l -cache:il1 il1:256:32:1:l -cache:il2 dl2 base_mergesort64736124
	sim-cache -cache:dl1 dl1:256:32:1:l -cache:dl2 dl2:65536:32:1:l -cache:il1 il1:256:32:1:l -cache:il2 dl2 base_mergesort64736124
	sim-cache -cache:dl1 dl1:1:32:256:l -cache:dl2 dl2:1:32:131072:l -cache:il1 il1:1:32:256:l -cache:il2 dl2 base_mergesort64736124
	sim-cache -cache:dl1 dl1:1:32:256:l -cache:dl2 dl2:1:32:65536:l -cache:il1 il1:1:32:256:l -cache:il2 dl2 base_mergesort64736124
	sim-bpred -bpred bimod -bpred:bimod 512 base_mergesort64736124
	sim-bpred -bpred bimod -bpred:bimod 1024 base_mergesort64736124
	sim-bpred -bpred bimod -bpred:bimod 2048 base_mergesort64736124
	sim-bpred -bpred 2lev -bpred:2lev 1 512 10 1 base_mergesort64736124
	sim-bpred -bpred 2lev -bpred:2lev 1 1024 10 1 base_mergesort64736124
	sim-bpred -bpred 2lev -bpred:2lev 1 2048 10 1 base_mergesort64736124
	sim-bpred -bpred 2lev -bpred:2lev 1 4096 10 1 base_mergesort64736124
	sslittle-na-sstrix-gcc -Wall -O3 -funroll-loops -finline-functions  -DRANDOM_SIZE=1048576 -DOFFSET=8 -DSORT=base_mergesort sorts/base_mergesort2114868378.c simpleMain.c -o base_mergesort64736124
	sim-cache -cache:dl1 dl1:256:32:1:l -cache:dl2 dl2:131072:32:1:l -cache:il1 il1:256:32:1:l -cache:il2 dl2 base_mergesort64736124
	sim-cache -cache:dl1 dl1:256:32:1:l -cache:dl2 dl2:65536:32:1:l -cache:il1 il1:256:32:1:l -cache:il2 dl2 base_mergesort64736124
	sim-cache -cache:dl1 dl1:1:32:256:l -cache:dl2 dl2:1:32:131072:l -cache:il1 il1:1:32:256:l -cache:il2 dl2 base_mergesort64736124
	sim-cache -cache:dl1 dl1:1:32:256:l -cache:dl2 dl2:1:32:65536:l -cache:il1 il1:1:32:256:l -cache:il2 dl2 base_mergesort64736124
	sim-bpred -bpred bimod -bpred:bimod 512 base_mergesort64736124
	sim-bpred -bpred bimod -bpred:bimod 1024 base_mergesort64736124
	sim-bpred -bpred bimod -bpred:bimod 2048 base_mergesort64736124
	sim-bpred -bpred 2lev -bpred:2lev 1 512 10 1 base_mergesort64736124
	sim-bpred -bpred 2lev -bpred:2lev 1 1024 10 1 base_mergesort64736124
	sim-bpred -bpred 2lev -bpred:2lev 1 2048 10 1 base_mergesort64736124
	sim-bpred -bpred 2lev -bpred:2lev 1 4096 10 1 base_mergesort64736124
	sslittle-na-sstrix-gcc -Wall -O3 -funroll-loops -finline-functions  -DRANDOM_SIZE=2097152 -DOFFSET=8 -DSORT=base_mergesort sorts/base_mergesort2114868378.c simpleMain.c -o base_mergesort64736124
	sim-cache -cache:dl1 dl1:256:32:1:l -cache:dl2 dl2:131072:32:1:l -cache:il1 il1:256:32:1:l -cache:il2 dl2 base_mergesort64736124
	sim-cache -cache:dl1 dl1:256:32:1:l -cache:dl2 dl2:65536:32:1:l -cache:il1 il1:256:32:1:l -cache:il2 dl2 base_mergesort64736124
	sim-cache -cache:dl1 dl1:1:32:256:l -cache:dl2 dl2:1:32:131072:l -cache:il1 il1:1:32:256:l -cache:il2 dl2 base_mergesort64736124
	sim-cache -cache:dl1 dl1:1:32:256:l -cache:dl2 dl2:1:32:65536:l -cache:il1 il1:1:32:256:l -cache:il2 dl2 base_mergesort64736124
	sim-bpred -bpred bimod -bpred:bimod 512 base_mergesort64736124
	sim-bpred -bpred bimod -bpred:bimod 1024 base_mergesort64736124
	sim-bpred -bpred bimod -bpred:bimod 2048 base_mergesort64736124
	sim-bpred -bpred 2lev -bpred:2lev 1 512 10 1 base_mergesort64736124
	sim-bpred -bpred 2lev -bpred:2lev 1 1024 10 1 base_mergesort64736124
	sim-bpred -bpred 2lev -bpred:2lev 1 2048 10 1 base_mergesort64736124
	sim-bpred -bpred 2lev -bpred:2lev 1 4096 10 1 base_mergesort64736124
	sslittle-na-sstrix-gcc -Wall -O3 -funroll-loops -finline-functions  -DRANDOM_SIZE=4194304 -DOFFSET=8 -DSORT=base_mergesort sorts/base_mergesort2114868378.c simpleMain.c -o base_mergesort64736124
	sim-cache -cache:dl1 dl1:256:32:1:l -cache:dl2 dl2:131072:32:1:l -cache:il1 il1:256:32:1:l -cache:il2 dl2 base_mergesort64736124
	sim-cache -cache:dl1 dl1:256:32:1:l -cache:dl2 dl2:65536:32:1:l -cache:il1 il1:256:32:1:l -cache:il2 dl2 base_mergesort64736124
	sim-cache -cache:dl1 dl1:1:32:256:l -cache:dl2 dl2:1:32:131072:l -cache:il1 il1:1:32:256:l -cache:il2 dl2 base_mergesort64736124
	sim-cache -cache:dl1 dl1:1:32:256:l -cache:dl2 dl2:1:32:65536:l -cache:il1 il1:1:32:256:l -cache:il2 dl2 base_mergesort64736124
	sim-bpred -bpred bimod -bpred:bimod 512 base_mergesort64736124
	sim-bpred -bpred bimod -bpred:bimod 1024 base_mergesort64736124
	sim-bpred -bpred bimod -bpred:bimod 2048 base_mergesort64736124
	sim-bpred -bpred 2lev -bpred:2lev 1 512 10 1 base_mergesort64736124
	sim-bpred -bpred 2lev -bpred:2lev 1 1024 10 1 base_mergesort64736124
	sim-bpred -bpred 2lev -bpred:2lev 1 2048 10 1 base_mergesort64736124
	sim-bpred -bpred 2lev -bpred:2lev 1 4096 10 1 base_mergesort64736124
