Wed Jul 20 07:35:38 2005
Run as: "./do_simple -c random.org6 -o 6 base_quicksort9"
-------------------------------------------------------------------------------------------------
sim-cache                                     4096 |         4096 |         4096 |         4096 |         8192 |         8192 |         8192 |         8192 |        16384 |        16384 |        16384 |        16384 |        32768 |        32768 |        32768 |        32768 |        65536 |        65536 |        65536 |        65536 |       131072 |       131072 |       131072 |       131072 |       262144 |       262144 |       262144 |       262144 |       524288 |       524288 |       524288 |       524288 |      1048576 |      1048576 |      1048576 |      1048576 |      2097152 |      2097152 |      2097152 |      2097152 |      4194304 |      4194304 |      4194304 |      4194304 |
-cache:dl1 dl1:256:32:1:l -cache:dl2 dl2:131072:32:1:l -cache:il1 il1:256:32:1:l -cache:il2 dl2
-cache:dl1 dl1:256:32:1:l -cache:dl2 dl2:65536:32:1:l -cache:il1 il1:256:32:1:l -cache:il2 dl2
-cache:dl1 dl1:1:32:256:l -cache:dl2 dl2:1:32:131072:l -cache:il1 il1:1:32:256:l -cache:il2 dl2
-cache:dl1 dl1:1:32:256:l -cache:dl2 dl2:1:32:65536:l -cache:il1 il1:1:32:256:l -cache:il2 dl2
-------------------------------------------------------------------------------------------------
sim_num_insn                                466592 |       466592 |       466592 |       466592 |      1008132 |      1008132 |      1008132 |      1008132 |      2114697 |      2114697 |      2114697 |      2114697 |      4517900 |      4517900 |      4517900 |      4517900 |      9711951 |      9711951 |      9711951 |      9711951 |     20454508 |     20454508 |     20454508 |     20454508 |     43173978 |     43173978 |     43173978 |     43173978 |     90547367 |     90547367 |     90547367 |     90547367 |    191380572 |    191380572 |    191380572 |    191380572 |    401070225 |    401070225 |    401070225 |    401070225 |    834908179 |    834908179 |    834908179 |    834908179 |
sim_num_refs                                126520 |       126520 |       126520 |       126520 |       266656 |       266656 |       266656 |       266656 |       558190 |       558190 |       558190 |       558190 |      1179182 |      1179182 |      1179182 |      1179182 |      2507869 |      2507869 |      2507869 |      2507869 |      5267197 |      5267197 |      5267197 |      5267197 |     11069376 |     11069376 |     11069376 |     11069376 |     23155893 |     23155893 |     23155893 |     23155893 |     48674494 |     48674494 |     48674494 |     48674494 |    101664120 |    101664120 |    101664120 |    101664120 |    211312177 |    211312177 |    211312177 |    211312177 |
sim_elapsed_time                                 1 |            1 |            7 |            4 |            1 |            1 |           10 |            5 |            1 |            1 |           15 |            8 |            2 |            1 |           26 |           14 |            3 |            3 |           47 |           25 |            6 |            5 |           89 |           44 |           11 |           12 |          162 |           76 |           24 |           24 |          279 |          109 |           50 |           50 |          388 |          136 |          105 |          106 |          446 |          195 |          220 |          220 |          570 |          320 |
sim_inst_rate                          466592.0000 |  466592.0000 |   66656.0000 |  116648.0000 | 1008132.0000 | 1008132.0000 |  100813.2000 |  201626.4000 | 2114697.0000 | 2114697.0000 |  140979.8000 |  264337.1250 | 2258950.0000 | 4517900.0000 |  173765.3846 |  322707.1429 | 3237317.0000 | 3237317.0000 |  206637.2553 |  388478.0400 | 3409084.6667 | 4090901.6000 |  229825.9326 |  464875.1818 | 3924907.0909 | 3597831.5000 |  266506.0370 |  568078.6579 | 3772806.9583 | 3772806.9583 |  324542.5341 |  830709.7890 | 3827611.4400 | 3827611.4400 |  493248.8969 | 1407210.0882 | 3819716.4286 | 3783681.3679 |  899260.5942 | 2056770.3846 | 3795037.1773 | 3795037.1773 | 1464751.1912 | 2609088.0594 |
il1.accesses                                466592 |       466592 |       466592 |       466592 |      1008132 |      1008132 |      1008132 |      1008132 |      2114697 |      2114697 |      2114697 |      2114697 |      4517900 |      4517900 |      4517900 |      4517900 |      9711951 |      9711951 |      9711951 |      9711951 |     20454508 |     20454508 |     20454508 |     20454508 |     43173978 |     43173978 |     43173978 |     43173978 |     90547367 |     90547367 |     90547367 |     90547367 |    191380572 |    191380572 |    191380572 |    191380572 |    401070225 |    401070225 |    401070225 |    401070225 |    834908179 |    834908179 |    834908179 |    834908179 |
il1.hits                                    466121 |       466121 |       466150 |       466150 |      1007659 |      1007659 |      1007688 |      1007688 |      2114211 |      2114211 |      2114249 |      2114249 |      4517425 |      4517425 |      4517455 |      4517455 |      9711476 |      9711476 |      9711506 |      9711506 |     20454034 |     20454034 |     20454064 |     20454064 |     43173504 |     43173504 |     43173534 |     43173534 |     90546893 |     90546893 |     90546923 |     90546923 |    191380098 |    191380098 |    191380128 |    191380128 |    401069751 |    401069751 |    401069781 |    401069781 |    834907705 |    834907705 |    834907735 |    834907735 |
il1.misses                                     471 |          471 |          442 |          442 |          473 |          473 |          444 |          444 |          486 |          486 |          448 |          448 |          475 |          475 |          445 |          445 |          475 |          475 |          445 |          445 |          474 |          474 |          444 |          444 |          474 |          474 |          444 |          444 |          474 |          474 |          444 |          444 |          474 |          474 |          444 |          444 |          474 |          474 |          444 |          444 |          474 |          474 |          444 |          444 |
il1.replacements                               229 |          229 |          186 |          186 |          231 |          231 |          188 |          188 |          246 |          246 |          192 |          192 |          234 |          234 |          189 |          189 |          234 |          234 |          189 |          189 |          234 |          234 |          188 |          188 |          234 |          234 |          188 |          188 |          234 |          234 |          188 |          188 |          234 |          234 |          188 |          188 |          234 |          234 |          188 |          188 |          234 |          234 |          188 |          188 |
il1.writebacks                                   0 |            0 |            0 |            0 |            0 |            0 |            0 |            0 |            0 |            0 |            0 |            0 |            0 |            0 |            0 |            0 |            0 |            0 |            0 |            0 |            0 |            0 |            0 |            0 |            0 |            0 |            0 |            0 |            0 |            0 |            0 |            0 |            0 |            0 |            0 |            0 |            0 |            0 |            0 |            0 |            0 |            0 |            0 |            0 |
il1.invalidations                                0 |            0 |            0 |            0 |            0 |            0 |            0 |            0 |            0 |            0 |            0 |            0 |            0 |            0 |            0 |            0 |            0 |            0 |            0 |            0 |            0 |            0 |            0 |            0 |            0 |            0 |            0 |            0 |            0 |            0 |            0 |            0 |            0 |            0 |            0 |            0 |            0 |            0 |            0 |            0 |            0 |            0 |            0 |            0 |
il1.miss_rate                               0.0010 |       0.0010 |       0.0009 |       0.0009 |       0.0005 |       0.0005 |       0.0004 |       0.0004 |       0.0002 |       0.0002 |       0.0002 |       0.0002 |       0.0001 |       0.0001 |       0.0001 |       0.0001 |       0.0000 |       0.0000 |       0.0000 |       0.0000 |       0.0000 |       0.0000 |       0.0000 |       0.0000 |       0.0000 |       0.0000 |       0.0000 |       0.0000 |       0.0000 |       0.0000 |       0.0000 |       0.0000 |       0.0000 |       0.0000 |       0.0000 |       0.0000 |       0.0000 |       0.0000 |       0.0000 |       0.0000 |       0.0000 |       0.0000 |       0.0000 |       0.0000 |
il1.repl_rate                               0.0005 |       0.0005 |       0.0004 |       0.0004 |       0.0002 |       0.0002 |       0.0002 |       0.0002 |       0.0001 |       0.0001 |       0.0001 |       0.0001 |       0.0001 |       0.0001 |       0.0000 |       0.0000 |       0.0000 |       0.0000 |       0.0000 |       0.0000 |       0.0000 |       0.0000 |       0.0000 |       0.0000 |       0.0000 |       0.0000 |       0.0000 |       0.0000 |       0.0000 |       0.0000 |       0.0000 |       0.0000 |       0.0000 |       0.0000 |       0.0000 |       0.0000 |       0.0000 |       0.0000 |       0.0000 |       0.0000 |       0.0000 |       0.0000 |       0.0000 |       0.0000 |
il1.wb_rate                                 0.0000 |       0.0000 |       0.0000 |       0.0000 |       0.0000 |       0.0000 |       0.0000 |       0.0000 |       0.0000 |       0.0000 |       0.0000 |       0.0000 |       0.0000 |       0.0000 |       0.0000 |       0.0000 |       0.0000 |       0.0000 |       0.0000 |       0.0000 |       0.0000 |       0.0000 |       0.0000 |       0.0000 |       0.0000 |       0.0000 |       0.0000 |       0.0000 |       0.0000 |       0.0000 |       0.0000 |       0.0000 |       0.0000 |       0.0000 |       0.0000 |       0.0000 |       0.0000 |       0.0000 |       0.0000 |       0.0000 |       0.0000 |       0.0000 |       0.0000 |       0.0000 |
il1.inv_rate                                0.0000 |       0.0000 |       0.0000 |       0.0000 |       0.0000 |       0.0000 |       0.0000 |       0.0000 |       0.0000 |       0.0000 |       0.0000 |       0.0000 |       0.0000 |       0.0000 |       0.0000 |       0.0000 |       0.0000 |       0.0000 |       0.0000 |       0.0000 |       0.0000 |       0.0000 |       0.0000 |       0.0000 |       0.0000 |       0.0000 |       0.0000 |       0.0000 |       0.0000 |       0.0000 |       0.0000 |       0.0000 |       0.0000 |       0.0000 |       0.0000 |       0.0000 |       0.0000 |       0.0000 |       0.0000 |       0.0000 |       0.0000 |       0.0000 |       0.0000 |       0.0000 |
dl1.accesses                                142986 |       142986 |       142986 |       142986 |       299506 |       299506 |       299506 |       299506 |       623808 |       623808 |       623808 |       623808 |      1310336 |      1310336 |      1310336 |      1310336 |      2770095 |      2770095 |      2770095 |      2770095 |      5791567 |      5791567 |      5791567 |      5791567 |     12118034 |     12118034 |     12118034 |     12118034 |     25253127 |     25253127 |     25253127 |     25253127 |     52868880 |     52868880 |     52868880 |     52868880 |    110052810 |    110052810 |    110052810 |    110052810 |    228089475 |    228089475 |    228089475 |    228089475 |
dl1.hits                                    140669 |       140669 |       140611 |       140611 |       293754 |       293754 |       293662 |       293662 |       611238 |       611238 |       610858 |       610858 |      1280412 |      1280412 |      1280113 |      1280113 |      2698828 |      2698828 |      2699046 |      2699046 |      5634110 |      5634110 |      5634467 |      5634467 |     11768354 |     11768354 |     11770372 |     11770372 |     24491382 |     24491382 |     24497808 |     24497808 |     51164807 |     51164807 |     51182419 |     51182419 |    106346645 |    106346645 |    106392311 |    106392311 |    220191898 |    220191898 |    220293783 |    220293783 |
dl1.misses                                    2317 |         2317 |         2375 |         2375 |         5752 |         5752 |         5844 |         5844 |        12570 |        12570 |        12950 |        12950 |        29924 |        29924 |        30223 |        30223 |        71267 |        71267 |        71049 |        71049 |       157457 |       157457 |       157100 |       157100 |       349680 |       349680 |       347662 |       347662 |       761745 |       761745 |       755319 |       755319 |      1704073 |      1704073 |      1686461 |      1686461 |      3706165 |      3706165 |      3660499 |      3660499 |      7897577 |      7897577 |      7795692 |      7795692 |
dl1.replacements                              2061 |         2061 |         2119 |         2119 |         5496 |         5496 |         5588 |         5588 |        12314 |        12314 |        12694 |        12694 |        29668 |        29668 |        29967 |        29967 |        71011 |        71011 |        70793 |        70793 |       157201 |       157201 |       156844 |       156844 |       349424 |       349424 |       347406 |       347406 |       761489 |       761489 |       755063 |       755063 |      1703817 |      1703817 |      1686205 |      1686205 |      3705909 |      3705909 |      3660243 |      3660243 |      7897321 |      7897321 |      7795436 |      7795436 |
dl1.writebacks                                2014 |         2014 |         2090 |         2090 |         5310 |         5310 |         5431 |         5431 |        12122 |        12122 |        12595 |        12595 |        29008 |        29008 |        29522 |        29522 |        68315 |        68315 |        68710 |        68710 |       152158 |       152158 |       153260 |       153260 |       337356 |       337356 |       338886 |       338886 |       739538 |       739538 |       741651 |       741651 |      1636500 |      1636500 |      1637714 |      1637714 |      3554985 |      3554985 |      3551999 |      3551999 |      7611661 |      7611661 |      7603365 |      7603365 |
dl1.invalidations                                0 |            0 |            0 |            0 |            0 |            0 |            0 |            0 |            0 |            0 |            0 |            0 |            0 |            0 |            0 |            0 |            0 |            0 |            0 |            0 |            0 |            0 |            0 |            0 |            0 |            0 |            0 |            0 |            0 |            0 |            0 |            0 |            0 |            0 |            0 |            0 |            0 |            0 |            0 |            0 |            0 |            0 |            0 |            0 |
dl1.miss_rate                               0.0162 |       0.0162 |       0.0166 |       0.0166 |       0.0192 |       0.0192 |       0.0195 |       0.0195 |       0.0202 |       0.0202 |       0.0208 |       0.0208 |       0.0228 |       0.0228 |       0.0231 |       0.0231 |       0.0257 |       0.0257 |       0.0256 |       0.0256 |       0.0272 |       0.0272 |       0.0271 |       0.0271 |       0.0289 |       0.0289 |       0.0287 |       0.0287 |       0.0302 |       0.0302 |       0.0299 |       0.0299 |       0.0322 |       0.0322 |       0.0319 |       0.0319 |       0.0337 |       0.0337 |       0.0333 |       0.0333 |       0.0346 |       0.0346 |       0.0342 |       0.0342 |
dl1.repl_rate                               0.0144 |       0.0144 |       0.0148 |       0.0148 |       0.0184 |       0.0184 |       0.0187 |       0.0187 |       0.0197 |       0.0197 |       0.0203 |       0.0203 |       0.0226 |       0.0226 |       0.0229 |       0.0229 |       0.0256 |       0.0256 |       0.0256 |       0.0256 |       0.0271 |       0.0271 |       0.0271 |       0.0271 |       0.0288 |       0.0288 |       0.0287 |       0.0287 |       0.0302 |       0.0302 |       0.0299 |       0.0299 |       0.0322 |       0.0322 |       0.0319 |       0.0319 |       0.0337 |       0.0337 |       0.0333 |       0.0333 |       0.0346 |       0.0346 |       0.0342 |       0.0342 |
dl1.wb_rate                                 0.0141 |       0.0141 |       0.0146 |       0.0146 |       0.0177 |       0.0177 |       0.0181 |       0.0181 |       0.0194 |       0.0194 |       0.0202 |       0.0202 |       0.0221 |       0.0221 |       0.0225 |       0.0225 |       0.0247 |       0.0247 |       0.0248 |       0.0248 |       0.0263 |       0.0263 |       0.0265 |       0.0265 |       0.0278 |       0.0278 |       0.0280 |       0.0280 |       0.0293 |       0.0293 |       0.0294 |       0.0294 |       0.0310 |       0.0310 |       0.0310 |       0.0310 |       0.0323 |       0.0323 |       0.0323 |       0.0323 |       0.0334 |       0.0334 |       0.0333 |       0.0333 |
dl1.inv_rate                                0.0000 |       0.0000 |       0.0000 |       0.0000 |       0.0000 |       0.0000 |       0.0000 |       0.0000 |       0.0000 |       0.0000 |       0.0000 |       0.0000 |       0.0000 |       0.0000 |       0.0000 |       0.0000 |       0.0000 |       0.0000 |       0.0000 |       0.0000 |       0.0000 |       0.0000 |       0.0000 |       0.0000 |       0.0000 |       0.0000 |       0.0000 |       0.0000 |       0.0000 |       0.0000 |       0.0000 |       0.0000 |       0.0000 |       0.0000 |       0.0000 |       0.0000 |       0.0000 |       0.0000 |       0.0000 |       0.0000 |       0.0000 |       0.0000 |       0.0000 |       0.0000 |
dl2.accesses                                  4802 |         4802 |         4907 |         4907 |        11535 |        11535 |        11719 |        11719 |        25178 |        25178 |        25993 |        25993 |        59407 |        59407 |        60190 |        60190 |       140057 |       140057 |       140204 |       140204 |       310089 |       310089 |       310804 |       310804 |       687510 |       687510 |       686992 |       686992 |      1501757 |      1501757 |      1497414 |      1497414 |      3341047 |      3341047 |      3324619 |      3324619 |      7261624 |      7261624 |      7212942 |      7212942 |     15509712 |     15509712 |     15399501 |     15399501 |
dl2.hits                                      3412 |         3412 |         3532 |         3532 |         9630 |         9630 |         9830 |         9830 |        22250 |        22250 |        23086 |        23086 |        54437 |        54437 |        55235 |        55235 |       130991 |       130991 |       131153 |       131153 |       292832 |       292832 |       293562 |       293562 |       653869 |       653869 |       653366 |       653366 |      1435348 |      1434561 |      1431020 |      1367885 |      3208353 |      2841304 |      3073691 |      2777234 |      6347518 |      5992966 |      6178479 |      5838291 |     13017641 |     12444792 |     12771359 |     12226492 |
dl2.misses                                    1390 |         1390 |         1375 |         1375 |         1905 |         1905 |         1889 |         1889 |         2928 |         2928 |         2907 |         2907 |         4970 |         4970 |         4955 |         4955 |         9066 |         9066 |         9051 |         9051 |        17257 |        17257 |        17242 |        17242 |        33641 |        33641 |        33626 |        33626 |        66409 |        67196 |        66394 |       129529 |       132694 |       499743 |       250928 |       547385 |       914106 |      1268658 |      1034463 |      1374651 |      2492071 |      3064920 |      2628142 |      3173009 |
dl2.replacements                               171 |          171 |            0 |            0 |          173 |          173 |            0 |            0 |          178 |          178 |            0 |            0 |          173 |          173 |            0 |            0 |          173 |          173 |            0 |            0 |          173 |          173 |            0 |            0 |          173 |          173 |            0 |            0 |          173 |         1660 |            0 |        63993 |         1622 |       434207 |       119856 |       481849 |       783034 |      1203122 |       903391 |      1309115 |      2360999 |      2999384 |      2497070 |      3107473 |
dl2.writebacks                                 105 |          105 |            0 |            0 |          107 |          107 |            0 |            0 |          108 |          108 |            0 |            0 |          107 |          107 |            0 |            0 |          107 |          107 |            0 |            0 |          107 |          107 |            0 |            0 |          107 |          107 |            0 |            0 |          107 |         1332 |            0 |        63202 |         1294 |       426840 |       119544 |       470335 |       778907 |      1184577 |       898960 |      1283269 |      2340771 |      2967384 |      2474544 |      3071154 |
dl2.invalidations                                0 |            0 |            0 |            0 |            0 |            0 |            0 |            0 |            0 |            0 |            0 |            0 |            0 |            0 |            0 |            0 |            0 |            0 |            0 |            0 |            0 |            0 |            0 |            0 |            0 |            0 |            0 |            0 |            0 |            0 |            0 |            0 |            0 |            0 |            0 |            0 |            0 |            0 |            0 |            0 |            0 |            0 |            0 |            0 |
dl2.miss_rate                               0.2895 |       0.2895 |       0.2802 |       0.2802 |       0.1651 |       0.1651 |       0.1612 |       0.1612 |       0.1163 |       0.1163 |       0.1118 |       0.1118 |       0.0837 |       0.0837 |       0.0823 |       0.0823 |       0.0647 |       0.0647 |       0.0646 |       0.0646 |       0.0557 |       0.0557 |       0.0555 |       0.0555 |       0.0489 |       0.0489 |       0.0489 |       0.0489 |       0.0442 |       0.0447 |       0.0443 |       0.0865 |       0.0397 |       0.1496 |       0.0755 |       0.1646 |       0.1259 |       0.1747 |       0.1434 |       0.1906 |       0.1607 |       0.1976 |       0.1707 |       0.2060 |
dl2.repl_rate                               0.0356 |       0.0356 |       0.0000 |       0.0000 |       0.0150 |       0.0150 |       0.0000 |       0.0000 |       0.0071 |       0.0071 |       0.0000 |       0.0000 |       0.0029 |       0.0029 |       0.0000 |       0.0000 |       0.0012 |       0.0012 |       0.0000 |       0.0000 |       0.0006 |       0.0006 |       0.0000 |       0.0000 |       0.0003 |       0.0003 |       0.0000 |       0.0000 |       0.0001 |       0.0011 |       0.0000 |       0.0427 |       0.0005 |       0.1300 |       0.0361 |       0.1449 |       0.1078 |       0.1657 |       0.1252 |       0.1815 |       0.1522 |       0.1934 |       0.1622 |       0.2018 |
dl2.wb_rate                                 0.0219 |       0.0219 |       0.0000 |       0.0000 |       0.0093 |       0.0093 |       0.0000 |       0.0000 |       0.0043 |       0.0043 |       0.0000 |       0.0000 |       0.0018 |       0.0018 |       0.0000 |       0.0000 |       0.0008 |       0.0008 |       0.0000 |       0.0000 |       0.0003 |       0.0003 |       0.0000 |       0.0000 |       0.0002 |       0.0002 |       0.0000 |       0.0000 |       0.0001 |       0.0009 |       0.0000 |       0.0422 |       0.0004 |       0.1278 |       0.0360 |       0.1415 |       0.1073 |       0.1631 |       0.1246 |       0.1779 |       0.1509 |       0.1913 |       0.1607 |       0.1994 |
dl2.inv_rate                                0.0000 |       0.0000 |       0.0000 |       0.0000 |       0.0000 |       0.0000 |       0.0000 |       0.0000 |       0.0000 |       0.0000 |       0.0000 |       0.0000 |       0.0000 |       0.0000 |       0.0000 |       0.0000 |       0.0000 |       0.0000 |       0.0000 |       0.0000 |       0.0000 |       0.0000 |       0.0000 |       0.0000 |       0.0000 |       0.0000 |       0.0000 |       0.0000 |       0.0000 |       0.0000 |       0.0000 |       0.0000 |       0.0000 |       0.0000 |       0.0000 |       0.0000 |       0.0000 |       0.0000 |       0.0000 |       0.0000 |       0.0000 |       0.0000 |       0.0000 |       0.0000 |
itlb.accesses                               466592 |       466592 |       466592 |       466592 |      1008132 |      1008132 |      1008132 |      1008132 |      2114697 |      2114697 |      2114697 |      2114697 |      4517900 |      4517900 |      4517900 |      4517900 |      9711951 |      9711951 |      9711951 |      9711951 |     20454508 |     20454508 |     20454508 |     20454508 |     43173978 |     43173978 |     43173978 |     43173978 |     90547367 |     90547367 |     90547367 |     90547367 |    191380572 |    191380572 |    191380572 |    191380572 |    401070225 |    401070225 |    401070225 |    401070225 |    834908179 |    834908179 |    834908179 |    834908179 |
itlb.hits                                   466582 |       466582 |       466582 |       466582 |      1008122 |      1008122 |      1008122 |      1008122 |      2114687 |      2114687 |      2114687 |      2114687 |      4517890 |      4517890 |      4517890 |      4517890 |      9711941 |      9711941 |      9711941 |      9711941 |     20454498 |     20454498 |     20454498 |     20454498 |     43173968 |     43173968 |     43173968 |     43173968 |     90547357 |     90547357 |     90547357 |     90547357 |    191380562 |    191380562 |    191380562 |    191380562 |    401070215 |    401070215 |    401070215 |    401070215 |    834908169 |    834908169 |    834908169 |    834908169 |
itlb.misses                                     10 |           10 |           10 |           10 |           10 |           10 |           10 |           10 |           10 |           10 |           10 |           10 |           10 |           10 |           10 |           10 |           10 |           10 |           10 |           10 |           10 |           10 |           10 |           10 |           10 |           10 |           10 |           10 |           10 |           10 |           10 |           10 |           10 |           10 |           10 |           10 |           10 |           10 |           10 |           10 |           10 |           10 |           10 |           10 |
itlb.replacements                                0 |            0 |            0 |            0 |            0 |            0 |            0 |            0 |            0 |            0 |            0 |            0 |            0 |            0 |            0 |            0 |            0 |            0 |            0 |            0 |            0 |            0 |            0 |            0 |            0 |            0 |            0 |            0 |            0 |            0 |            0 |            0 |            0 |            0 |            0 |            0 |            0 |            0 |            0 |            0 |            0 |            0 |            0 |            0 |
itlb.writebacks                                  0 |            0 |            0 |            0 |            0 |            0 |            0 |            0 |            0 |            0 |            0 |            0 |            0 |            0 |            0 |            0 |            0 |            0 |            0 |            0 |            0 |            0 |            0 |            0 |            0 |            0 |            0 |            0 |            0 |            0 |            0 |            0 |            0 |            0 |            0 |            0 |            0 |            0 |            0 |            0 |            0 |            0 |            0 |            0 |
itlb.invalidations                               0 |            0 |            0 |            0 |            0 |            0 |            0 |            0 |            0 |            0 |            0 |            0 |            0 |            0 |            0 |            0 |            0 |            0 |            0 |            0 |            0 |            0 |            0 |            0 |            0 |            0 |            0 |            0 |            0 |            0 |            0 |            0 |            0 |            0 |            0 |            0 |            0 |            0 |            0 |            0 |            0 |            0 |            0 |            0 |
itlb.miss_rate                              0.0000 |       0.0000 |       0.0000 |       0.0000 |       0.0000 |       0.0000 |       0.0000 |       0.0000 |       0.0000 |       0.0000 |       0.0000 |       0.0000 |       0.0000 |       0.0000 |       0.0000 |       0.0000 |       0.0000 |       0.0000 |       0.0000 |       0.0000 |       0.0000 |       0.0000 |       0.0000 |       0.0000 |       0.0000 |       0.0000 |       0.0000 |       0.0000 |       0.0000 |       0.0000 |       0.0000 |       0.0000 |       0.0000 |       0.0000 |       0.0000 |       0.0000 |       0.0000 |       0.0000 |       0.0000 |       0.0000 |       0.0000 |       0.0000 |       0.0000 |       0.0000 |
itlb.repl_rate                              0.0000 |       0.0000 |       0.0000 |       0.0000 |       0.0000 |       0.0000 |       0.0000 |       0.0000 |       0.0000 |       0.0000 |       0.0000 |       0.0000 |       0.0000 |       0.0000 |       0.0000 |       0.0000 |       0.0000 |       0.0000 |       0.0000 |       0.0000 |       0.0000 |       0.0000 |       0.0000 |       0.0000 |       0.0000 |       0.0000 |       0.0000 |       0.0000 |       0.0000 |       0.0000 |       0.0000 |       0.0000 |       0.0000 |       0.0000 |       0.0000 |       0.0000 |       0.0000 |       0.0000 |       0.0000 |       0.0000 |       0.0000 |       0.0000 |       0.0000 |       0.0000 |
itlb.wb_rate                                0.0000 |       0.0000 |       0.0000 |       0.0000 |       0.0000 |       0.0000 |       0.0000 |       0.0000 |       0.0000 |       0.0000 |       0.0000 |       0.0000 |       0.0000 |       0.0000 |       0.0000 |       0.0000 |       0.0000 |       0.0000 |       0.0000 |       0.0000 |       0.0000 |       0.0000 |       0.0000 |       0.0000 |       0.0000 |       0.0000 |       0.0000 |       0.0000 |       0.0000 |       0.0000 |       0.0000 |       0.0000 |       0.0000 |       0.0000 |       0.0000 |       0.0000 |       0.0000 |       0.0000 |       0.0000 |       0.0000 |       0.0000 |       0.0000 |       0.0000 |       0.0000 |
itlb.inv_rate                               0.0000 |       0.0000 |       0.0000 |       0.0000 |       0.0000 |       0.0000 |       0.0000 |       0.0000 |       0.0000 |       0.0000 |       0.0000 |       0.0000 |       0.0000 |       0.0000 |       0.0000 |       0.0000 |       0.0000 |       0.0000 |       0.0000 |       0.0000 |       0.0000 |       0.0000 |       0.0000 |       0.0000 |       0.0000 |       0.0000 |       0.0000 |       0.0000 |       0.0000 |       0.0000 |       0.0000 |       0.0000 |       0.0000 |       0.0000 |       0.0000 |       0.0000 |       0.0000 |       0.0000 |       0.0000 |       0.0000 |       0.0000 |       0.0000 |       0.0000 |       0.0000 |
dtlb.accesses                               142986 |       142986 |       142986 |       142986 |       299506 |       299506 |       299506 |       299506 |       623808 |       623808 |       623808 |       623808 |      1310336 |      1310336 |      1310336 |      1310336 |      2770095 |      2770095 |      2770095 |      2770095 |      5791567 |      5791567 |      5791567 |      5791567 |     12118034 |     12118034 |     12118034 |     12118034 |     25253127 |     25253127 |     25253127 |     25253127 |     52868880 |     52868880 |     52868880 |     52868880 |    110052810 |    110052810 |    110052810 |    110052810 |    228089475 |    228089475 |    228089475 |    228089475 |
dtlb.hits                                   142974 |       142974 |       142974 |       142974 |       299490 |       299490 |       299490 |       299490 |       623784 |       623784 |       623784 |       623784 |      1310296 |      1310296 |      1310296 |      1310296 |      2770023 |      2770023 |      2770023 |      2770023 |      5791387 |      5791387 |      5791387 |      5791387 |     12117049 |     12117049 |     12117049 |     12117049 |     25250532 |     25250532 |     25250532 |     25250532 |     52862395 |     52862395 |     52862395 |     52862395 |    110037658 |    110037658 |    110037658 |    110037658 |    228055188 |    228055188 |    228055188 |    228055188 |
dtlb.misses                                     12 |           12 |           12 |           12 |           16 |           16 |           16 |           16 |           24 |           24 |           24 |           24 |           40 |           40 |           40 |           40 |           72 |           72 |           72 |           72 |          180 |          180 |          180 |          180 |          985 |          985 |          985 |          985 |         2595 |         2595 |         2595 |         2595 |         6485 |         6485 |         6485 |         6485 |        15152 |        15152 |        15152 |        15152 |        34287 |        34287 |        34287 |        34287 |
dtlb.replacements                                0 |            0 |            0 |            0 |            0 |            0 |            0 |            0 |            0 |            0 |            0 |            0 |            0 |            0 |            0 |            0 |            0 |            0 |            0 |            0 |           52 |           52 |           52 |           52 |          857 |          857 |          857 |          857 |         2467 |         2467 |         2467 |         2467 |         6357 |         6357 |         6357 |         6357 |        15024 |        15024 |        15024 |        15024 |        34159 |        34159 |        34159 |        34159 |
dtlb.writebacks                                  0 |            0 |            0 |            0 |            0 |            0 |            0 |            0 |            0 |            0 |            0 |            0 |            0 |            0 |            0 |            0 |            0 |            0 |            0 |            0 |           48 |           48 |           48 |           48 |          848 |          848 |          848 |          848 |         2449 |         2449 |         2449 |         2449 |         6326 |         6326 |         6326 |         6326 |        14956 |        14956 |        14956 |        14956 |        34028 |        34028 |        34028 |        34028 |
dtlb.invalidations                               0 |            0 |            0 |            0 |            0 |            0 |            0 |            0 |            0 |            0 |            0 |            0 |            0 |            0 |            0 |            0 |            0 |            0 |            0 |            0 |            0 |            0 |            0 |            0 |            0 |            0 |            0 |            0 |            0 |            0 |            0 |            0 |            0 |            0 |            0 |            0 |            0 |            0 |            0 |            0 |            0 |            0 |            0 |            0 |
dtlb.miss_rate                              0.0001 |       0.0001 |       0.0001 |       0.0001 |       0.0001 |       0.0001 |       0.0001 |       0.0001 |       0.0000 |       0.0000 |       0.0000 |       0.0000 |       0.0000 |       0.0000 |       0.0000 |       0.0000 |       0.0000 |       0.0000 |       0.0000 |       0.0000 |       0.0000 |       0.0000 |       0.0000 |       0.0000 |       0.0001 |       0.0001 |       0.0001 |       0.0001 |       0.0001 |       0.0001 |       0.0001 |       0.0001 |       0.0001 |       0.0001 |       0.0001 |       0.0001 |       0.0001 |       0.0001 |       0.0001 |       0.0001 |       0.0002 |       0.0002 |       0.0002 |       0.0002 |
dtlb.repl_rate                              0.0000 |       0.0000 |       0.0000 |       0.0000 |       0.0000 |       0.0000 |       0.0000 |       0.0000 |       0.0000 |       0.0000 |       0.0000 |       0.0000 |       0.0000 |       0.0000 |       0.0000 |       0.0000 |       0.0000 |       0.0000 |       0.0000 |       0.0000 |       0.0000 |       0.0000 |       0.0000 |       0.0000 |       0.0001 |       0.0001 |       0.0001 |       0.0001 |       0.0001 |       0.0001 |       0.0001 |       0.0001 |       0.0001 |       0.0001 |       0.0001 |       0.0001 |       0.0001 |       0.0001 |       0.0001 |       0.0001 |       0.0001 |       0.0001 |       0.0001 |       0.0001 |
dtlb.wb_rate                                0.0000 |       0.0000 |       0.0000 |       0.0000 |       0.0000 |       0.0000 |       0.0000 |       0.0000 |       0.0000 |       0.0000 |       0.0000 |       0.0000 |       0.0000 |       0.0000 |       0.0000 |       0.0000 |       0.0000 |       0.0000 |       0.0000 |       0.0000 |       0.0000 |       0.0000 |       0.0000 |       0.0000 |       0.0001 |       0.0001 |       0.0001 |       0.0001 |       0.0001 |       0.0001 |       0.0001 |       0.0001 |       0.0001 |       0.0001 |       0.0001 |       0.0001 |       0.0001 |       0.0001 |       0.0001 |       0.0001 |       0.0001 |       0.0001 |       0.0001 |       0.0001 |
dtlb.inv_rate                               0.0000 |       0.0000 |       0.0000 |       0.0000 |       0.0000 |       0.0000 |       0.0000 |       0.0000 |       0.0000 |       0.0000 |       0.0000 |       0.0000 |       0.0000 |       0.0000 |       0.0000 |       0.0000 |       0.0000 |       0.0000 |       0.0000 |       0.0000 |       0.0000 |       0.0000 |       0.0000 |       0.0000 |       0.0000 |       0.0000 |       0.0000 |       0.0000 |       0.0000 |       0.0000 |       0.0000 |       0.0000 |       0.0000 |       0.0000 |       0.0000 |       0.0000 |       0.0000 |       0.0000 |       0.0000 |       0.0000 |       0.0000 |       0.0000 |       0.0000 |       0.0000 |
ld_text_base                            0x00400000 |   0x00400000 |   0x00400000 |   0x00400000 |   0x00400000 |   0x00400000 |   0x00400000 |   0x00400000 |   0x00400000 |   0x00400000 |   0x00400000 |   0x00400000 |   0x00400000 |   0x00400000 |   0x00400000 |   0x00400000 |   0x00400000 |   0x00400000 |   0x00400000 |   0x00400000 |   0x00400000 |   0x00400000 |   0x00400000 |   0x00400000 |   0x00400000 |   0x00400000 |   0x00400000 |   0x00400000 |   0x00400000 |   0x00400000 |   0x00400000 |   0x00400000 |   0x00400000 |   0x00400000 |   0x00400000 |   0x00400000 |   0x00400000 |   0x00400000 |   0x00400000 |   0x00400000 |   0x00400000 |   0x00400000 |   0x00400000 |   0x00400000 |
ld_text_size                                 74192 |        74192 |        74192 |        74192 |        74224 |        74224 |        74224 |        74224 |        74240 |        74240 |        74240 |        74240 |        74256 |        74256 |        74256 |        74256 |        74256 |        74256 |        74256 |        74256 |        74256 |        74256 |        74256 |        74256 |        74256 |        74256 |        74256 |        74256 |        74256 |        74256 |        74256 |        74256 |        74256 |        74256 |        74256 |        74256 |        74256 |        74256 |        74256 |        74256 |        74256 |        74256 |        74256 |        74256 |
ld_data_base                            0x10000000 |   0x10000000 |   0x10000000 |   0x10000000 |   0x10000000 |   0x10000000 |   0x10000000 |   0x10000000 |   0x10000000 |   0x10000000 |   0x10000000 |   0x10000000 |   0x10000000 |   0x10000000 |   0x10000000 |   0x10000000 |   0x10000000 |   0x10000000 |   0x10000000 |   0x10000000 |   0x10000000 |   0x10000000 |   0x10000000 |   0x10000000 |   0x10000000 |   0x10000000 |   0x10000000 |   0x10000000 |   0x10000000 |   0x10000000 |   0x10000000 |   0x10000000 |   0x10000000 |   0x10000000 |   0x10000000 |   0x10000000 |   0x10000000 |   0x10000000 |   0x10000000 |   0x10000000 |   0x10000000 |   0x10000000 |   0x10000000 |   0x10000000 |
ld_data_size                                  8192 |         8192 |         8192 |         8192 |         8192 |         8192 |         8192 |         8192 |         8192 |         8192 |         8192 |         8192 |         8192 |         8192 |         8192 |         8192 |         8192 |         8192 |         8192 |         8192 |         8192 |         8192 |         8192 |         8192 |         8192 |         8192 |         8192 |         8192 |         8192 |         8192 |         8192 |         8192 |         8192 |         8192 |         8192 |         8192 |         8192 |         8192 |         8192 |         8192 |         8192 |         8192 |         8192 |         8192 |
ld_stack_base                           0x7fffc000 |   0x7fffc000 |   0x7fffc000 |   0x7fffc000 |   0x7fffc000 |   0x7fffc000 |   0x7fffc000 |   0x7fffc000 |   0x7fffc000 |   0x7fffc000 |   0x7fffc000 |   0x7fffc000 |   0x7fffc000 |   0x7fffc000 |   0x7fffc000 |   0x7fffc000 |   0x7fffc000 |   0x7fffc000 |   0x7fffc000 |   0x7fffc000 |   0x7fffc000 |   0x7fffc000 |   0x7fffc000 |   0x7fffc000 |   0x7fffc000 |   0x7fffc000 |   0x7fffc000 |   0x7fffc000 |   0x7fffc000 |   0x7fffc000 |   0x7fffc000 |   0x7fffc000 |   0x7fffc000 |   0x7fffc000 |   0x7fffc000 |   0x7fffc000 |   0x7fffc000 |   0x7fffc000 |   0x7fffc000 |   0x7fffc000 |   0x7fffc000 |   0x7fffc000 |   0x7fffc000 |   0x7fffc000 |
ld_stack_size                                16384 |        16384 |        16384 |        16384 |        16384 |        16384 |        16384 |        16384 |        16384 |        16384 |        16384 |        16384 |        16384 |        16384 |        16384 |        16384 |        16384 |        16384 |        16384 |        16384 |        16384 |        16384 |        16384 |        16384 |        16384 |        16384 |        16384 |        16384 |        16384 |        16384 |        16384 |        16384 |        16384 |        16384 |        16384 |        16384 |        16384 |        16384 |        16384 |        16384 |        16384 |        16384 |        16384 |        16384 |
ld_prog_entry                           0x00400140 |   0x00400140 |   0x00400140 |   0x00400140 |   0x00400140 |   0x00400140 |   0x00400140 |   0x00400140 |   0x00400140 |   0x00400140 |   0x00400140 |   0x00400140 |   0x00400140 |   0x00400140 |   0x00400140 |   0x00400140 |   0x00400140 |   0x00400140 |   0x00400140 |   0x00400140 |   0x00400140 |   0x00400140 |   0x00400140 |   0x00400140 |   0x00400140 |   0x00400140 |   0x00400140 |   0x00400140 |   0x00400140 |   0x00400140 |   0x00400140 |   0x00400140 |   0x00400140 |   0x00400140 |   0x00400140 |   0x00400140 |   0x00400140 |   0x00400140 |   0x00400140 |   0x00400140 |   0x00400140 |   0x00400140 |   0x00400140 |   0x00400140 |
ld_environ_base                         0x7fff8000 |   0x7fff8000 |   0x7fff8000 |   0x7fff8000 |   0x7fff8000 |   0x7fff8000 |   0x7fff8000 |   0x7fff8000 |   0x7fff8000 |   0x7fff8000 |   0x7fff8000 |   0x7fff8000 |   0x7fff8000 |   0x7fff8000 |   0x7fff8000 |   0x7fff8000 |   0x7fff8000 |   0x7fff8000 |   0x7fff8000 |   0x7fff8000 |   0x7fff8000 |   0x7fff8000 |   0x7fff8000 |   0x7fff8000 |   0x7fff8000 |   0x7fff8000 |   0x7fff8000 |   0x7fff8000 |   0x7fff8000 |   0x7fff8000 |   0x7fff8000 |   0x7fff8000 |   0x7fff8000 |   0x7fff8000 |   0x7fff8000 |   0x7fff8000 |   0x7fff8000 |   0x7fff8000 |   0x7fff8000 |   0x7fff8000 |   0x7fff8000 |   0x7fff8000 |   0x7fff8000 |   0x7fff8000 |
ld_target_big_endian                             0 |            0 |            0 |            0 |            0 |            0 |            0 |            0 |            0 |            0 |            0 |            0 |            0 |            0 |            0 |            0 |            0 |            0 |            0 |            0 |            0 |            0 |            0 |            0 |            0 |            0 |            0 |            0 |            0 |            0 |            0 |            0 |            0 |            0 |            0 |            0 |            0 |            0 |            0 |            0 |            0 |            0 |            0 |            0 |
mem.page_count                                  31 |           31 |           31 |           31 |           35 |           35 |           35 |           35 |           43 |           43 |           43 |           43 |           59 |           59 |           59 |           59 |           91 |           91 |           91 |           91 |          155 |          155 |          155 |          155 |          283 |          283 |          283 |          283 |          539 |          539 |          539 |          539 |         1051 |         1051 |         1051 |         1051 |         2075 |         2075 |         2075 |         2075 |         4123 |         4123 |         4123 |         4123 |
mem.page_mem                                  124k |         124k |         124k |         124k |         140k |         140k |         140k |         140k |         172k |         172k |         172k |         172k |         236k |         236k |         236k |         236k |         364k |         364k |         364k |         364k |         620k |         620k |         620k |         620k |        1132k |        1132k |        1132k |        1132k |        2156k |        2156k |        2156k |        2156k |        4204k |        4204k |        4204k |        4204k |        8300k |        8300k |        8300k |        8300k |       16492k |       16492k |       16492k |       16492k |
mem.ptab_misses                                 31 |           31 |           31 |           31 |           35 |           35 |           35 |           35 |           43 |           43 |           43 |           43 |           59 |           59 |           59 |           59 |           91 |           91 |           91 |           91 |          155 |          155 |          155 |          155 |          283 |          283 |          283 |          283 |          539 |          539 |          539 |          539 |         1051 |         1051 |         1051 |         1051 |         2075 |         2075 |         2075 |         2075 |         4123 |         4123 |         4123 |         4123 |
mem.ptab_accesses                          2612104 |      2612104 |      2612104 |      2612104 |      5091496 |      5091496 |      5091496 |      5091496 |     10166456 |     10166456 |     10166456 |     10166456 |     21152420 |     21152420 |     21152420 |     21152420 |     44848142 |     44848142 |     44848142 |     44848142 |     93861314 |     93861314 |     93861314 |     93861314 |    197392128 |    197392128 |    197392128 |    197392128 |    413155870 |    413155870 |    413155870 |    413155870 |    871720196 |    871720196 |    871720196 |    871720196 |   1824846668 |   1824846668 |   1824846668 |   1824846668 |   3796271814 |   3796271814 |   3796271814 |   3796271814 |
mem.ptab_miss_rate                          0.0000 |       0.0000 |       0.0000 |       0.0000 |       0.0000 |       0.0000 |       0.0000 |       0.0000 |       0.0000 |       0.0000 |       0.0000 |       0.0000 |       0.0000 |       0.0000 |       0.0000 |       0.0000 |       0.0000 |       0.0000 |       0.0000 |       0.0000 |       0.0000 |       0.0000 |       0.0000 |       0.0000 |       0.0000 |       0.0000 |       0.0000 |       0.0000 |       0.0000 |       0.0000 |       0.0000 |       0.0000 |       0.0000 |       0.0000 |       0.0000 |       0.0000 |       0.0000 |       0.0000 |       0.0000 |       0.0000 |       0.0000 |       0.0000 |       0.0000 |       0.0000 |
-------------------------------------------------------------------------------------------------
sim-bpred                                     4096 |         4096 |         4096 |         4096 |         4096 |         4096 |         4096 |         8192 |         8192 |         8192 |         8192 |         8192 |         8192 |         8192 |        16384 |        16384 |        16384 |        16384 |        16384 |        16384 |        16384 |        32768 |        32768 |        32768 |        32768 |        32768 |        32768 |        32768 |        65536 |        65536 |        65536 |        65536 |        65536 |        65536 |        65536 |       131072 |       131072 |       131072 |       131072 |       131072 |       131072 |       131072 |       262144 |       262144 |       262144 |       262144 |       262144 |       262144 |       262144 |       524288 |       524288 |       524288 |       524288 |       524288 |       524288 |       524288 |      1048576 |      1048576 |      1048576 |      1048576 |      1048576 |      1048576 |      1048576 |      2097152 |      2097152 |      2097152 |      2097152 |      2097152 |      2097152 |      2097152 |      4194304 |      4194304 |      4194304 |      4194304 |      4194304 |      4194304 |      4194304 |
-bpred bimod -bpred:bimod 512
-bpred bimod -bpred:bimod 1024
-bpred bimod -bpred:bimod 2048
-bpred 2lev -bpred:2lev 1 512 10 1
-bpred 2lev -bpred:2lev 1 1024 10 1
-bpred 2lev -bpred:2lev 1 2048 10 1
-bpred 2lev -bpred:2lev 1 4096 10 1
-------------------------------------------------------------------------------------------------
sim_num_insn                                466592 |       466592 |       466592 |       466592 |       466592 |       466592 |       466592 |      1008132 |      1008132 |      1008132 |      1008132 |      1008132 |      1008132 |      1008132 |      2114697 |      2114697 |      2114697 |      2114697 |      2114697 |      2114697 |      2114697 |      4517900 |      4517900 |      4517900 |      4517900 |      4517900 |      4517900 |      4517900 |      9711951 |      9711951 |      9711951 |      9711951 |      9711951 |      9711951 |      9711951 |     20454508 |     20454508 |     20454508 |     20454508 |     20454508 |     20454508 |     20454508 |     43173978 |     43173978 |     43173978 |     43173978 |     43173978 |     43173978 |     43173978 |     90547367 |     90547367 |     90547367 |     90547367 |     90547367 |     90547367 |     90547367 |    191380572 |    191380572 |    191380572 |    191380572 |    191380572 |    191380572 |    191380572 |    401070225 |    401070225 |    401070225 |    401070225 |    401070225 |    401070225 |    401070225 |    834908179 |    834908179 |    834908179 |    834908179 |    834908179 |    834908179 |    834908179 |
sim_num_refs                                126520 |       126520 |       126520 |       126520 |       126520 |       126520 |       126520 |       266656 |       266656 |       266656 |       266656 |       266656 |       266656 |       266656 |       558190 |       558190 |       558190 |       558190 |       558190 |       558190 |       558190 |      1179182 |      1179182 |      1179182 |      1179182 |      1179182 |      1179182 |      1179182 |      2507869 |      2507869 |      2507869 |      2507869 |      2507869 |      2507869 |      2507869 |      5267197 |      5267197 |      5267197 |      5267197 |      5267197 |      5267197 |      5267197 |     11069376 |     11069376 |     11069376 |     11069376 |     11069376 |     11069376 |     11069376 |     23155893 |     23155893 |     23155893 |     23155893 |     23155893 |     23155893 |     23155893 |     48674494 |     48674494 |     48674494 |     48674494 |     48674494 |     48674494 |     48674494 |    101664120 |    101664120 |    101664120 |    101664120 |    101664120 |    101664120 |    101664120 |    211312177 |    211312177 |    211312177 |    211312177 |    211312177 |    211312177 |    211312177 |
sim_elapsed_time                                 1 |            1 |            1 |            1 |            1 |            1 |            1 |            1 |            1 |            1 |            1 |            1 |            1 |            1 |            1 |            1 |            1 |            1 |            1 |            1 |            1 |            1 |            1 |            1 |            1 |            1 |            1 |            1 |            1 |            1 |            2 |            1 |            1 |            2 |            1 |            2 |            3 |            3 |            3 |            2 |            4 |            3 |            5 |            5 |            8 |            5 |            5 |            9 |            5 |           10 |           11 |           16 |           11 |           12 |           17 |           11 |           23 |           23 |           34 |           23 |           24 |           36 |           23 |           48 |           48 |           71 |           49 |           49 |           75 |           50 |           99 |          100 |          148 |          101 |          101 |          157 |          103 |
sim_inst_rate                          466592.0000 |  466592.0000 |  466592.0000 |  466592.0000 |  466592.0000 |  466592.0000 |  466592.0000 | 1008132.0000 | 1008132.0000 | 1008132.0000 | 1008132.0000 | 1008132.0000 | 1008132.0000 | 1008132.0000 | 2114697.0000 | 2114697.0000 | 2114697.0000 | 2114697.0000 | 2114697.0000 | 2114697.0000 | 2114697.0000 | 4517900.0000 | 4517900.0000 | 4517900.0000 | 4517900.0000 | 4517900.0000 | 4517900.0000 | 4517900.0000 | 9711951.0000 | 9711951.0000 | 4855975.5000 | 9711951.0000 | 9711951.0000 | 4855975.5000 | 9711951.0000 |10227254.0000 | 6818169.3333 | 6818169.3333 | 6818169.3333 |10227254.0000 | 5113627.0000 | 6818169.3333 | 8634795.6000 | 8634795.6000 | 5396747.2500 | 8634795.6000 | 8634795.6000 | 4797108.6667 | 8634795.6000 | 9054736.7000 | 8231578.8182 | 5659210.4375 | 8231578.8182 | 7545613.9167 | 5326315.7059 | 8231578.8182 | 8320894.4348 | 8320894.4348 | 5628840.3529 | 8320894.4348 | 7974190.5000 | 5316127.0000 | 8320894.4348 | 8355629.6875 | 8355629.6875 | 5648876.4085 | 8185106.6327 | 8185106.6327 | 5347603.0000 | 8021404.5000 | 8433415.9495 | 8349081.7900 | 5641271.4797 | 8266417.6139 | 8266417.6139 | 5317886.4904 | 8105904.6505 |
sim_num_branches                             76643 |        76643 |        76643 |        76643 |        76643 |        76643 |        76643 |       167071 |       167071 |       167071 |       167071 |       167071 |       167071 |       167071 |       353535 |       353535 |       353535 |       353535 |       353535 |       353535 |       353535 |       758967 |       758967 |       758967 |       758967 |       758967 |       758967 |       758967 |      1639280 |      1639280 |      1639280 |      1639280 |      1639280 |      1639280 |      1639280 |      3464088 |      3464088 |      3464088 |      3464088 |      3464088 |      3464088 |      3464088 |      7337663 |      7337663 |      7337663 |      7337663 |      7337663 |      7337663 |      7337663 |     15432423 |     15432423 |     15432423 |     15432423 |     15432423 |     15432423 |     15432423 |     32747560 |     32747560 |     32747560 |     32747560 |     32747560 |     32747560 |     32747560 |     68795448 |     68795448 |     68795448 |     68795448 |     68795448 |     68795448 |     68795448 |    143471828 |    143471828 |    143471828 |    143471828 |    143471828 |    143471828 |    143471828 |
sim_IPB                                     6.0879 |       6.0879 |       6.0879 |       6.0879 |       6.0879 |       6.0879 |       6.0879 |       6.0342 |       6.0342 |       6.0342 |       6.0342 |       6.0342 |       6.0342 |       6.0342 |       5.9816 |       5.9816 |       5.9816 |       5.9816 |       5.9816 |       5.9816 |       5.9816 |       5.9527 |       5.9527 |       5.9527 |       5.9527 |       5.9527 |       5.9527 |       5.9527 |       5.9245 |       5.9245 |       5.9245 |       5.9245 |       5.9245 |       5.9245 |       5.9245 |       5.9047 |       5.9047 |       5.9047 |       5.9047 |       5.9047 |       5.9047 |       5.9047 |       5.8839 |       5.8839 |       5.8839 |       5.8839 |       5.8839 |       5.8839 |       5.8839 |       5.8673 |       5.8673 |       5.8673 |       5.8673 |       5.8673 |       5.8673 |       5.8673 |       5.8441 |       5.8441 |       5.8441 |       5.8441 |       5.8441 |       5.8441 |       5.8441 |       5.8299 |       5.8299 |       5.8299 |       5.8299 |       5.8299 |       5.8299 |       5.8299 |       5.8193 |       5.8193 |       5.8193 |       5.8193 |       5.8193 |       5.8193 |       5.8193 |
bpred_bimod.lookups                          76643 |        76643 |        76643 |xxxxxxxxxxxxx |xxxxxxxxxxxxx |xxxxxxxxxxxxx |xxxxxxxxxxxxx |       167071 |       167071 |       167071 |xxxxxxxxxxxxx |xxxxxxxxxxxxx |xxxxxxxxxxxxx |xxxxxxxxxxxxx |       353535 |       353535 |       353535 |xxxxxxxxxxxxx |xxxxxxxxxxxxx |xxxxxxxxxxxxx |xxxxxxxxxxxxx |       758967 |       758967 |       758967 |xxxxxxxxxxxxx |xxxxxxxxxxxxx |xxxxxxxxxxxxx |xxxxxxxxxxxxx |      1639280 |      1639280 |      1639280 |xxxxxxxxxxxxx |xxxxxxxxxxxxx |xxxxxxxxxxxxx |xxxxxxxxxxxxx |      3464088 |      3464088 |      3464088 |xxxxxxxxxxxxx |xxxxxxxxxxxxx |xxxxxxxxxxxxx |xxxxxxxxxxxxx |      7337663 |      7337663 |      7337663 |xxxxxxxxxxxxx |xxxxxxxxxxxxx |xxxxxxxxxxxxx |xxxxxxxxxxxxx |     15432423 |     15432423 |     15432423 |xxxxxxxxxxxxx |xxxxxxxxxxxxx |xxxxxxxxxxxxx |xxxxxxxxxxxxx |     32747560 |     32747560 |     32747560 |xxxxxxxxxxxxx |xxxxxxxxxxxxx |xxxxxxxxxxxxx |xxxxxxxxxxxxx |     68795448 |     68795448 |     68795448 |xxxxxxxxxxxxx |xxxxxxxxxxxxx |xxxxxxxxxxxxx |xxxxxxxxxxxxx |    143471828 |    143471828 |    143471828 |
bpred_bimod.updates                          76643 |        76643 |        76643 |xxxxxxxxxxxxx |xxxxxxxxxxxxx |xxxxxxxxxxxxx |xxxxxxxxxxxxx |       167071 |       167071 |       167071 |xxxxxxxxxxxxx |xxxxxxxxxxxxx |xxxxxxxxxxxxx |xxxxxxxxxxxxx |       353535 |       353535 |       353535 |xxxxxxxxxxxxx |xxxxxxxxxxxxx |xxxxxxxxxxxxx |xxxxxxxxxxxxx |       758967 |       758967 |       758967 |xxxxxxxxxxxxx |xxxxxxxxxxxxx |xxxxxxxxxxxxx |xxxxxxxxxxxxx |      1639280 |      1639280 |      1639280 |xxxxxxxxxxxxx |xxxxxxxxxxxxx |xxxxxxxxxxxxx |xxxxxxxxxxxxx |      3464088 |      3464088 |      3464088 |xxxxxxxxxxxxx |xxxxxxxxxxxxx |xxxxxxxxxxxxx |xxxxxxxxxxxxx |      7337663 |      7337663 |      7337663 |xxxxxxxxxxxxx |xxxxxxxxxxxxx |xxxxxxxxxxxxx |xxxxxxxxxxxxx |     15432423 |     15432423 |     15432423 |xxxxxxxxxxxxx |xxxxxxxxxxxxx |xxxxxxxxxxxxx |xxxxxxxxxxxxx |     32747560 |     32747560 |     32747560 |xxxxxxxxxxxxx |xxxxxxxxxxxxx |xxxxxxxxxxxxx |xxxxxxxxxxxxx |     68795448 |     68795448 |     68795448 |xxxxxxxxxxxxx |xxxxxxxxxxxxx |xxxxxxxxxxxxx |xxxxxxxxxxxxx |    143471828 |    143471828 |    143471828 |
bpred_bimod.addr_hits                        53105 |        53106 |        53106 |xxxxxxxxxxxxx |xxxxxxxxxxxxx |xxxxxxxxxxxxx |xxxxxxxxxxxxx |       116776 |       116775 |       116776 |xxxxxxxxxxxxx |xxxxxxxxxxxxx |xxxxxxxxxxxxx |xxxxxxxxxxxxx |       242795 |       242795 |       242795 |xxxxxxxxxxxxx |xxxxxxxxxxxxx |xxxxxxxxxxxxx |xxxxxxxxxxxxx |       525401 |       525399 |       525401 |xxxxxxxxxxxxx |xxxxxxxxxxxxx |xxxxxxxxxxxxx |xxxxxxxxxxxxx |      1156487 |      1156485 |      1156488 |xxxxxxxxxxxxx |xxxxxxxxxxxxx |xxxxxxxxxxxxx |xxxxxxxxxxxxx |      2422400 |      2422402 |      2422404 |xxxxxxxxxxxxx |xxxxxxxxxxxxx |xxxxxxxxxxxxx |xxxxxxxxxxxxx |      5130051 |      5130050 |      5130050 |xxxxxxxxxxxxx |xxxxxxxxxxxxx |xxxxxxxxxxxxx |xxxxxxxxxxxxx |     10760629 |     10760629 |     10760629 |xxxxxxxxxxxxx |xxxxxxxxxxxxx |xxxxxxxxxxxxx |xxxxxxxxxxxxx |     23057825 |     23057823 |     23057824 |xxxxxxxxxxxxx |xxxxxxxxxxxxx |xxxxxxxxxxxxx |xxxxxxxxxxxxx |     48448952 |     48448950 |     48448952 |xxxxxxxxxxxxx |xxxxxxxxxxxxx |xxxxxxxxxxxxx |xxxxxxxxxxxxx |    100522812 |    100522809 |    100522811 |
bpred_bimod.dir_hits                         53229 |        53229 |        53228 |xxxxxxxxxxxxx |xxxxxxxxxxxxx |xxxxxxxxxxxxx |xxxxxxxxxxxxx |       116896 |       116894 |       116896 |xxxxxxxxxxxxx |xxxxxxxxxxxxx |xxxxxxxxxxxxx |xxxxxxxxxxxxx |       242916 |       242914 |       242914 |xxxxxxxxxxxxx |xxxxxxxxxxxxx |xxxxxxxxxxxxx |xxxxxxxxxxxxx |       525523 |       525518 |       525520 |xxxxxxxxxxxxx |xxxxxxxxxxxxx |xxxxxxxxxxxxx |xxxxxxxxxxxxx |      1156610 |      1156605 |      1156608 |xxxxxxxxxxxxx |xxxxxxxxxxxxx |xxxxxxxxxxxxx |xxxxxxxxxxxxx |      2422521 |      2422521 |      2422523 |xxxxxxxxxxxxx |xxxxxxxxxxxxx |xxxxxxxxxxxxx |xxxxxxxxxxxxx |      5130178 |      5130175 |      5130174 |xxxxxxxxxxxxx |xxxxxxxxxxxxx |xxxxxxxxxxxxx |xxxxxxxxxxxxx |     10760752 |     10760750 |     10760749 |xxxxxxxxxxxxx |xxxxxxxxxxxxx |xxxxxxxxxxxxx |xxxxxxxxxxxxx |     23057954 |     23057949 |     23057949 |xxxxxxxxxxxxx |xxxxxxxxxxxxx |xxxxxxxxxxxxx |xxxxxxxxxxxxx |     48449075 |     48449069 |     48449071 |xxxxxxxxxxxxx |xxxxxxxxxxxxx |xxxxxxxxxxxxx |xxxxxxxxxxxxx |    100522935 |    100522930 |    100522932 |
bpred_bimod.misses                           23414 |        23414 |        23415 |xxxxxxxxxxxxx |xxxxxxxxxxxxx |xxxxxxxxxxxxx |xxxxxxxxxxxxx |        50175 |        50177 |        50175 |xxxxxxxxxxxxx |xxxxxxxxxxxxx |xxxxxxxxxxxxx |xxxxxxxxxxxxx |       110619 |       110621 |       110621 |xxxxxxxxxxxxx |xxxxxxxxxxxxx |xxxxxxxxxxxxx |xxxxxxxxxxxxx |       233444 |       233449 |       233447 |xxxxxxxxxxxxx |xxxxxxxxxxxxx |xxxxxxxxxxxxx |xxxxxxxxxxxxx |       482670 |       482675 |       482672 |xxxxxxxxxxxxx |xxxxxxxxxxxxx |xxxxxxxxxxxxx |xxxxxxxxxxxxx |      1041567 |      1041567 |      1041565 |xxxxxxxxxxxxx |xxxxxxxxxxxxx |xxxxxxxxxxxxx |xxxxxxxxxxxxx |      2207485 |      2207488 |      2207489 |xxxxxxxxxxxxx |xxxxxxxxxxxxx |xxxxxxxxxxxxx |xxxxxxxxxxxxx |      4671671 |      4671673 |      4671674 |xxxxxxxxxxxxx |xxxxxxxxxxxxx |xxxxxxxxxxxxx |xxxxxxxxxxxxx |      9689606 |      9689611 |      9689611 |xxxxxxxxxxxxx |xxxxxxxxxxxxx |xxxxxxxxxxxxx |xxxxxxxxxxxxx |     20346373 |     20346379 |     20346377 |xxxxxxxxxxxxx |xxxxxxxxxxxxx |xxxxxxxxxxxxx |xxxxxxxxxxxxx |     42948893 |     42948898 |     42948896 |
bpred_bimod.jr_hits                             64 |           64 |           64 |xxxxxxxxxxxxx |xxxxxxxxxxxxx |xxxxxxxxxxxxx |xxxxxxxxxxxxx |           64 |           64 |           64 |xxxxxxxxxxxxx |xxxxxxxxxxxxx |xxxxxxxxxxxxx |xxxxxxxxxxxxx |           64 |           64 |           64 |xxxxxxxxxxxxx |xxxxxxxxxxxxx |xxxxxxxxxxxxx |xxxxxxxxxxxxx |           64 |           64 |           64 |xxxxxxxxxxxxx |xxxxxxxxxxxxx |xxxxxxxxxxxxx |xxxxxxxxxxxxx |           64 |           64 |           64 |xxxxxxxxxxxxx |xxxxxxxxxxxxx |xxxxxxxxxxxxx |xxxxxxxxxxxxx |           64 |           64 |           64 |xxxxxxxxxxxxx |xxxxxxxxxxxxx |xxxxxxxxxxxxx |xxxxxxxxxxxxx |           64 |           64 |           64 |xxxxxxxxxxxxx |xxxxxxxxxxxxx |xxxxxxxxxxxxx |xxxxxxxxxxxxx |           64 |           64 |           64 |xxxxxxxxxxxxx |xxxxxxxxxxxxx |xxxxxxxxxxxxx |xxxxxxxxxxxxx |           64 |           64 |           64 |xxxxxxxxxxxxx |xxxxxxxxxxxxx |xxxxxxxxxxxxx |xxxxxxxxxxxxx |           64 |           64 |           64 |xxxxxxxxxxxxx |xxxxxxxxxxxxx |xxxxxxxxxxxxx |xxxxxxxxxxxxx |           64 |           64 |           64 |
bpred_bimod.jr_seen                             64 |           64 |           64 |xxxxxxxxxxxxx |xxxxxxxxxxxxx |xxxxxxxxxxxxx |xxxxxxxxxxxxx |           64 |           64 |           64 |xxxxxxxxxxxxx |xxxxxxxxxxxxx |xxxxxxxxxxxxx |xxxxxxxxxxxxx |           64 |           64 |           64 |xxxxxxxxxxxxx |xxxxxxxxxxxxx |xxxxxxxxxxxxx |xxxxxxxxxxxxx |           64 |           64 |           64 |xxxxxxxxxxxxx |xxxxxxxxxxxxx |xxxxxxxxxxxxx |xxxxxxxxxxxxx |           64 |           64 |           64 |xxxxxxxxxxxxx |xxxxxxxxxxxxx |xxxxxxxxxxxxx |xxxxxxxxxxxxx |           64 |           64 |           64 |xxxxxxxxxxxxx |xxxxxxxxxxxxx |xxxxxxxxxxxxx |xxxxxxxxxxxxx |           64 |           64 |           64 |xxxxxxxxxxxxx |xxxxxxxxxxxxx |xxxxxxxxxxxxx |xxxxxxxxxxxxx |           64 |           64 |           64 |xxxxxxxxxxxxx |xxxxxxxxxxxxx |xxxxxxxxxxxxx |xxxxxxxxxxxxx |           64 |           64 |           64 |xxxxxxxxxxxxx |xxxxxxxxxxxxx |xxxxxxxxxxxxx |xxxxxxxxxxxxx |           64 |           64 |           64 |xxxxxxxxxxxxx |xxxxxxxxxxxxx |xxxxxxxxxxxxx |xxxxxxxxxxxxx |           64 |           64 |           64 |
bpred_bimod.jr_non_ras_hits.PP                   0 |            0 |            0 |xxxxxxxxxxxxx |xxxxxxxxxxxxx |xxxxxxxxxxxxx |xxxxxxxxxxxxx |            0 |            0 |            0 |xxxxxxxxxxxxx |xxxxxxxxxxxxx |xxxxxxxxxxxxx |xxxxxxxxxxxxx |            0 |            0 |            0 |xxxxxxxxxxxxx |xxxxxxxxxxxxx |xxxxxxxxxxxxx |xxxxxxxxxxxxx |            0 |            0 |            0 |xxxxxxxxxxxxx |xxxxxxxxxxxxx |xxxxxxxxxxxxx |xxxxxxxxxxxxx |            0 |            0 |            0 |xxxxxxxxxxxxx |xxxxxxxxxxxxx |xxxxxxxxxxxxx |xxxxxxxxxxxxx |            0 |            0 |            0 |xxxxxxxxxxxxx |xxxxxxxxxxxxx |xxxxxxxxxxxxx |xxxxxxxxxxxxx |            0 |            0 |            0 |xxxxxxxxxxxxx |xxxxxxxxxxxxx |xxxxxxxxxxxxx |xxxxxxxxxxxxx |            0 |            0 |            0 |xxxxxxxxxxxxx |xxxxxxxxxxxxx |xxxxxxxxxxxxx |xxxxxxxxxxxxx |            0 |            0 |            0 |xxxxxxxxxxxxx |xxxxxxxxxxxxx |xxxxxxxxxxxxx |xxxxxxxxxxxxx |            0 |            0 |            0 |xxxxxxxxxxxxx |xxxxxxxxxxxxx |xxxxxxxxxxxxx |xxxxxxxxxxxxx |            0 |            0 |            0 |
bpred_bimod.jr_non_ras_seen.PP                   0 |            0 |            0 |xxxxxxxxxxxxx |xxxxxxxxxxxxx |xxxxxxxxxxxxx |xxxxxxxxxxxxx |            0 |            0 |            0 |xxxxxxxxxxxxx |xxxxxxxxxxxxx |xxxxxxxxxxxxx |xxxxxxxxxxxxx |            0 |            0 |            0 |xxxxxxxxxxxxx |xxxxxxxxxxxxx |xxxxxxxxxxxxx |xxxxxxxxxxxxx |            0 |            0 |            0 |xxxxxxxxxxxxx |xxxxxxxxxxxxx |xxxxxxxxxxxxx |xxxxxxxxxxxxx |            0 |            0 |            0 |xxxxxxxxxxxxx |xxxxxxxxxxxxx |xxxxxxxxxxxxx |xxxxxxxxxxxxx |            0 |            0 |            0 |xxxxxxxxxxxxx |xxxxxxxxxxxxx |xxxxxxxxxxxxx |xxxxxxxxxxxxx |            0 |            0 |            0 |xxxxxxxxxxxxx |xxxxxxxxxxxxx |xxxxxxxxxxxxx |xxxxxxxxxxxxx |            0 |            0 |            0 |xxxxxxxxxxxxx |xxxxxxxxxxxxx |xxxxxxxxxxxxx |xxxxxxxxxxxxx |            0 |            0 |            0 |xxxxxxxxxxxxx |xxxxxxxxxxxxx |xxxxxxxxxxxxx |xxxxxxxxxxxxx |            0 |            0 |            0 |xxxxxxxxxxxxx |xxxxxxxxxxxxx |xxxxxxxxxxxxx |xxxxxxxxxxxxx |            0 |            0 |            0 |
bpred_bimod.bpred_addr_rate                 0.6929 |       0.6929 |       0.6929 |xxxxxxxxxxxxx |xxxxxxxxxxxxx |xxxxxxxxxxxxx |xxxxxxxxxxxxx |       0.6990 |       0.6990 |       0.6990 |xxxxxxxxxxxxx |xxxxxxxxxxxxx |xxxxxxxxxxxxx |xxxxxxxxxxxxx |       0.6868 |       0.6868 |       0.6868 |xxxxxxxxxxxxx |xxxxxxxxxxxxx |xxxxxxxxxxxxx |xxxxxxxxxxxxx |       0.6923 |       0.6923 |       0.6923 |xxxxxxxxxxxxx |xxxxxxxxxxxxx |xxxxxxxxxxxxx |xxxxxxxxxxxxx |       0.7055 |       0.7055 |       0.7055 |xxxxxxxxxxxxx |xxxxxxxxxxxxx |xxxxxxxxxxxxx |xxxxxxxxxxxxx |       0.6993 |       0.6993 |       0.6993 |xxxxxxxxxxxxx |xxxxxxxxxxxxx |xxxxxxxxxxxxx |xxxxxxxxxxxxx |       0.6991 |       0.6991 |       0.6991 |xxxxxxxxxxxxx |xxxxxxxxxxxxx |xxxxxxxxxxxxx |xxxxxxxxxxxxx |       0.6973 |       0.6973 |       0.6973 |xxxxxxxxxxxxx |xxxxxxxxxxxxx |xxxxxxxxxxxxx |xxxxxxxxxxxxx |       0.7041 |       0.7041 |       0.7041 |xxxxxxxxxxxxx |xxxxxxxxxxxxx |xxxxxxxxxxxxx |xxxxxxxxxxxxx |       0.7042 |       0.7042 |       0.7042 |xxxxxxxxxxxxx |xxxxxxxxxxxxx |xxxxxxxxxxxxx |xxxxxxxxxxxxx |       0.7006 |       0.7006 |       0.7006 |
bpred_bimod.bpred_dir_rate                  0.6945 |       0.6945 |       0.6945 |xxxxxxxxxxxxx |xxxxxxxxxxxxx |xxxxxxxxxxxxx |xxxxxxxxxxxxx |       0.6997 |       0.6997 |       0.6997 |xxxxxxxxxxxxx |xxxxxxxxxxxxx |xxxxxxxxxxxxx |xxxxxxxxxxxxx |       0.6871 |       0.6871 |       0.6871 |xxxxxxxxxxxxx |xxxxxxxxxxxxx |xxxxxxxxxxxxx |xxxxxxxxxxxxx |       0.6924 |       0.6924 |       0.6924 |xxxxxxxxxxxxx |xxxxxxxxxxxxx |xxxxxxxxxxxxx |xxxxxxxxxxxxx |       0.7056 |       0.7056 |       0.7056 |xxxxxxxxxxxxx |xxxxxxxxxxxxx |xxxxxxxxxxxxx |xxxxxxxxxxxxx |       0.6993 |       0.6993 |       0.6993 |xxxxxxxxxxxxx |xxxxxxxxxxxxx |xxxxxxxxxxxxx |xxxxxxxxxxxxx |       0.6992 |       0.6992 |       0.6992 |xxxxxxxxxxxxx |xxxxxxxxxxxxx |xxxxxxxxxxxxx |xxxxxxxxxxxxx |       0.6973 |       0.6973 |       0.6973 |xxxxxxxxxxxxx |xxxxxxxxxxxxx |xxxxxxxxxxxxx |xxxxxxxxxxxxx |       0.7041 |       0.7041 |       0.7041 |xxxxxxxxxxxxx |xxxxxxxxxxxxx |xxxxxxxxxxxxx |xxxxxxxxxxxxx |       0.7042 |       0.7042 |       0.7042 |xxxxxxxxxxxxx |xxxxxxxxxxxxx |xxxxxxxxxxxxx |xxxxxxxxxxxxx |       0.7006 |       0.7006 |       0.7006 |
bpred_bimod.bpred_jr_rate                   1.0000 |       1.0000 |       1.0000 |xxxxxxxxxxxxx |xxxxxxxxxxxxx |xxxxxxxxxxxxx |xxxxxxxxxxxxx |       1.0000 |       1.0000 |       1.0000 |xxxxxxxxxxxxx |xxxxxxxxxxxxx |xxxxxxxxxxxxx |xxxxxxxxxxxxx |       1.0000 |       1.0000 |       1.0000 |xxxxxxxxxxxxx |xxxxxxxxxxxxx |xxxxxxxxxxxxx |xxxxxxxxxxxxx |       1.0000 |       1.0000 |       1.0000 |xxxxxxxxxxxxx |xxxxxxxxxxxxx |xxxxxxxxxxxxx |xxxxxxxxxxxxx |       1.0000 |       1.0000 |       1.0000 |xxxxxxxxxxxxx |xxxxxxxxxxxxx |xxxxxxxxxxxxx |xxxxxxxxxxxxx |       1.0000 |       1.0000 |       1.0000 |xxxxxxxxxxxxx |xxxxxxxxxxxxx |xxxxxxxxxxxxx |xxxxxxxxxxxxx |       1.0000 |       1.0000 |       1.0000 |xxxxxxxxxxxxx |xxxxxxxxxxxxx |xxxxxxxxxxxxx |xxxxxxxxxxxxx |       1.0000 |       1.0000 |       1.0000 |xxxxxxxxxxxxx |xxxxxxxxxxxxx |xxxxxxxxxxxxx |xxxxxxxxxxxxx |       1.0000 |       1.0000 |       1.0000 |xxxxxxxxxxxxx |xxxxxxxxxxxxx |xxxxxxxxxxxxx |xxxxxxxxxxxxx |       1.0000 |       1.0000 |       1.0000 |xxxxxxxxxxxxx |xxxxxxxxxxxxx |xxxxxxxxxxxxx |xxxxxxxxxxxxx |       1.0000 |       1.0000 |       1.0000 |
bpred_bimod.bpred_jr_non_ras_rate.PP       <error: |      <error: |      <error: |xxxxxxxxxxxxx |xxxxxxxxxxxxx |xxxxxxxxxxxxx |xxxxxxxxxxxxx |      <error: |      <error: |      <error: |xxxxxxxxxxxxx |xxxxxxxxxxxxx |xxxxxxxxxxxxx |xxxxxxxxxxxxx |      <error: |      <error: |      <error: |xxxxxxxxxxxxx |xxxxxxxxxxxxx |xxxxxxxxxxxxx |xxxxxxxxxxxxx |      <error: |      <error: |      <error: |xxxxxxxxxxxxx |xxxxxxxxxxxxx |xxxxxxxxxxxxx |xxxxxxxxxxxxx |      <error: |      <error: |      <error: |xxxxxxxxxxxxx |xxxxxxxxxxxxx |xxxxxxxxxxxxx |xxxxxxxxxxxxx |      <error: |      <error: |      <error: |xxxxxxxxxxxxx |xxxxxxxxxxxxx |xxxxxxxxxxxxx |xxxxxxxxxxxxx |      <error: |      <error: |      <error: |xxxxxxxxxxxxx |xxxxxxxxxxxxx |xxxxxxxxxxxxx |xxxxxxxxxxxxx |      <error: |      <error: |      <error: |xxxxxxxxxxxxx |xxxxxxxxxxxxx |xxxxxxxxxxxxx |xxxxxxxxxxxxx |      <error: |      <error: |      <error: |xxxxxxxxxxxxx |xxxxxxxxxxxxx |xxxxxxxxxxxxx |xxxxxxxxxxxxx |      <error: |      <error: |      <error: |xxxxxxxxxxxxx |xxxxxxxxxxxxx |xxxxxxxxxxxxx |xxxxxxxxxxxxx |      <error: |      <error: |      <error: |
bpred_bimod.retstack_pushes                     66 |           66 |           66 |xxxxxxxxxxxxx |xxxxxxxxxxxxx |xxxxxxxxxxxxx |xxxxxxxxxxxxx |           66 |           66 |           66 |xxxxxxxxxxxxx |xxxxxxxxxxxxx |xxxxxxxxxxxxx |xxxxxxxxxxxxx |           66 |           66 |           66 |xxxxxxxxxxxxx |xxxxxxxxxxxxx |xxxxxxxxxxxxx |xxxxxxxxxxxxx |           66 |           66 |           66 |xxxxxxxxxxxxx |xxxxxxxxxxxxx |xxxxxxxxxxxxx |xxxxxxxxxxxxx |           66 |           66 |           66 |xxxxxxxxxxxxx |xxxxxxxxxxxxx |xxxxxxxxxxxxx |xxxxxxxxxxxxx |           66 |           66 |           66 |xxxxxxxxxxxxx |xxxxxxxxxxxxx |xxxxxxxxxxxxx |xxxxxxxxxxxxx |           66 |           66 |           66 |xxxxxxxxxxxxx |xxxxxxxxxxxxx |xxxxxxxxxxxxx |xxxxxxxxxxxxx |           66 |           66 |           66 |xxxxxxxxxxxxx |xxxxxxxxxxxxx |xxxxxxxxxxxxx |xxxxxxxxxxxxx |           66 |           66 |           66 |xxxxxxxxxxxxx |xxxxxxxxxxxxx |xxxxxxxxxxxxx |xxxxxxxxxxxxx |           66 |           66 |           66 |xxxxxxxxxxxxx |xxxxxxxxxxxxx |xxxxxxxxxxxxx |xxxxxxxxxxxxx |           66 |           66 |           66 |
bpred_bimod.retstack_pops                       64 |           64 |           64 |xxxxxxxxxxxxx |xxxxxxxxxxxxx |xxxxxxxxxxxxx |xxxxxxxxxxxxx |           64 |           64 |           64 |xxxxxxxxxxxxx |xxxxxxxxxxxxx |xxxxxxxxxxxxx |xxxxxxxxxxxxx |           64 |           64 |           64 |xxxxxxxxxxxxx |xxxxxxxxxxxxx |xxxxxxxxxxxxx |xxxxxxxxxxxxx |           64 |           64 |           64 |xxxxxxxxxxxxx |xxxxxxxxxxxxx |xxxxxxxxxxxxx |xxxxxxxxxxxxx |           64 |           64 |           64 |xxxxxxxxxxxxx |xxxxxxxxxxxxx |xxxxxxxxxxxxx |xxxxxxxxxxxxx |           64 |           64 |           64 |xxxxxxxxxxxxx |xxxxxxxxxxxxx |xxxxxxxxxxxxx |xxxxxxxxxxxxx |           64 |           64 |           64 |xxxxxxxxxxxxx |xxxxxxxxxxxxx |xxxxxxxxxxxxx |xxxxxxxxxxxxx |           64 |           64 |           64 |xxxxxxxxxxxxx |xxxxxxxxxxxxx |xxxxxxxxxxxxx |xxxxxxxxxxxxx |           64 |           64 |           64 |xxxxxxxxxxxxx |xxxxxxxxxxxxx |xxxxxxxxxxxxx |xxxxxxxxxxxxx |           64 |           64 |           64 |xxxxxxxxxxxxx |xxxxxxxxxxxxx |xxxxxxxxxxxxx |xxxxxxxxxxxxx |           64 |           64 |           64 |
bpred_bimod.used_ras.PP                         64 |           64 |           64 |xxxxxxxxxxxxx |xxxxxxxxxxxxx |xxxxxxxxxxxxx |xxxxxxxxxxxxx |           64 |           64 |           64 |xxxxxxxxxxxxx |xxxxxxxxxxxxx |xxxxxxxxxxxxx |xxxxxxxxxxxxx |           64 |           64 |           64 |xxxxxxxxxxxxx |xxxxxxxxxxxxx |xxxxxxxxxxxxx |xxxxxxxxxxxxx |           64 |           64 |           64 |xxxxxxxxxxxxx |xxxxxxxxxxxxx |xxxxxxxxxxxxx |xxxxxxxxxxxxx |           64 |           64 |           64 |xxxxxxxxxxxxx |xxxxxxxxxxxxx |xxxxxxxxxxxxx |xxxxxxxxxxxxx |           64 |           64 |           64 |xxxxxxxxxxxxx |xxxxxxxxxxxxx |xxxxxxxxxxxxx |xxxxxxxxxxxxx |           64 |           64 |           64 |xxxxxxxxxxxxx |xxxxxxxxxxxxx |xxxxxxxxxxxxx |xxxxxxxxxxxxx |           64 |           64 |           64 |xxxxxxxxxxxxx |xxxxxxxxxxxxx |xxxxxxxxxxxxx |xxxxxxxxxxxxx |           64 |           64 |           64 |xxxxxxxxxxxxx |xxxxxxxxxxxxx |xxxxxxxxxxxxx |xxxxxxxxxxxxx |           64 |           64 |           64 |xxxxxxxxxxxxx |xxxxxxxxxxxxx |xxxxxxxxxxxxx |xxxxxxxxxxxxx |           64 |           64 |           64 |
bpred_bimod.ras_hits.PP                         64 |           64 |           64 |xxxxxxxxxxxxx |xxxxxxxxxxxxx |xxxxxxxxxxxxx |xxxxxxxxxxxxx |           64 |           64 |           64 |xxxxxxxxxxxxx |xxxxxxxxxxxxx |xxxxxxxxxxxxx |xxxxxxxxxxxxx |           64 |           64 |           64 |xxxxxxxxxxxxx |xxxxxxxxxxxxx |xxxxxxxxxxxxx |xxxxxxxxxxxxx |           64 |           64 |           64 |xxxxxxxxxxxxx |xxxxxxxxxxxxx |xxxxxxxxxxxxx |xxxxxxxxxxxxx |           64 |           64 |           64 |xxxxxxxxxxxxx |xxxxxxxxxxxxx |xxxxxxxxxxxxx |xxxxxxxxxxxxx |           64 |           64 |           64 |xxxxxxxxxxxxx |xxxxxxxxxxxxx |xxxxxxxxxxxxx |xxxxxxxxxxxxx |           64 |           64 |           64 |xxxxxxxxxxxxx |xxxxxxxxxxxxx |xxxxxxxxxxxxx |xxxxxxxxxxxxx |           64 |           64 |           64 |xxxxxxxxxxxxx |xxxxxxxxxxxxx |xxxxxxxxxxxxx |xxxxxxxxxxxxx |           64 |           64 |           64 |xxxxxxxxxxxxx |xxxxxxxxxxxxx |xxxxxxxxxxxxx |xxxxxxxxxxxxx |           64 |           64 |           64 |xxxxxxxxxxxxx |xxxxxxxxxxxxx |xxxxxxxxxxxxx |xxxxxxxxxxxxx |           64 |           64 |           64 |
bpred_bimod.ras_rate.PP                     1.0000 |       1.0000 |       1.0000 |xxxxxxxxxxxxx |xxxxxxxxxxxxx |xxxxxxxxxxxxx |xxxxxxxxxxxxx |       1.0000 |       1.0000 |       1.0000 |xxxxxxxxxxxxx |xxxxxxxxxxxxx |xxxxxxxxxxxxx |xxxxxxxxxxxxx |       1.0000 |       1.0000 |       1.0000 |xxxxxxxxxxxxx |xxxxxxxxxxxxx |xxxxxxxxxxxxx |xxxxxxxxxxxxx |       1.0000 |       1.0000 |       1.0000 |xxxxxxxxxxxxx |xxxxxxxxxxxxx |xxxxxxxxxxxxx |xxxxxxxxxxxxx |       1.0000 |       1.0000 |       1.0000 |xxxxxxxxxxxxx |xxxxxxxxxxxxx |xxxxxxxxxxxxx |xxxxxxxxxxxxx |       1.0000 |       1.0000 |       1.0000 |xxxxxxxxxxxxx |xxxxxxxxxxxxx |xxxxxxxxxxxxx |xxxxxxxxxxxxx |       1.0000 |       1.0000 |       1.0000 |xxxxxxxxxxxxx |xxxxxxxxxxxxx |xxxxxxxxxxxxx |xxxxxxxxxxxxx |       1.0000 |       1.0000 |       1.0000 |xxxxxxxxxxxxx |xxxxxxxxxxxxx |xxxxxxxxxxxxx |xxxxxxxxxxxxx |       1.0000 |       1.0000 |       1.0000 |xxxxxxxxxxxxx |xxxxxxxxxxxxx |xxxxxxxxxxxxx |xxxxxxxxxxxxx |       1.0000 |       1.0000 |       1.0000 |xxxxxxxxxxxxx |xxxxxxxxxxxxx |xxxxxxxxxxxxx |xxxxxxxxxxxxx |       1.0000 |       1.0000 |       1.0000 |
bpred_2lev.lookups                   xxxxxxxxxxxxx |xxxxxxxxxxxxx |xxxxxxxxxxxxx |        76643 |        76643 |        76643 |        76643 |xxxxxxxxxxxxx |xxxxxxxxxxxxx |xxxxxxxxxxxxx |       167071 |       167071 |       167071 |       167071 |xxxxxxxxxxxxx |xxxxxxxxxxxxx |xxxxxxxxxxxxx |       353535 |       353535 |       353535 |       353535 |xxxxxxxxxxxxx |xxxxxxxxxxxxx |xxxxxxxxxxxxx |       758967 |       758967 |       758967 |       758967 |xxxxxxxxxxxxx |xxxxxxxxxxxxx |xxxxxxxxxxxxx |      1639280 |      1639280 |      1639280 |      1639280 |xxxxxxxxxxxxx |xxxxxxxxxxxxx |xxxxxxxxxxxxx |      3464088 |      3464088 |      3464088 |      3464088 |xxxxxxxxxxxxx |xxxxxxxxxxxxx |xxxxxxxxxxxxx |      7337663 |      7337663 |      7337663 |      7337663 |xxxxxxxxxxxxx |xxxxxxxxxxxxx |xxxxxxxxxxxxx |     15432423 |     15432423 |     15432423 |     15432423 |xxxxxxxxxxxxx |xxxxxxxxxxxxx |xxxxxxxxxxxxx |     32747560 |     32747560 |     32747560 |     32747560 |xxxxxxxxxxxxx |xxxxxxxxxxxxx |xxxxxxxxxxxxx |     68795448 |     68795448 |     68795448 |     68795448 |xxxxxxxxxxxxx |xxxxxxxxxxxxx |xxxxxxxxxxxxx |    143471828 |    143471828 |    143471828 |    143471828 |
[...]
bpred_2lev.retstack_pushes           xxxxxxxxxxxxx |xxxxxxxxxxxxx |xxxxxxxxxxxxx |           66 |           66 |           66 |           66 |xxxxxxxxxxxxx |xxxxxxxxxxxxx |xxxxxxxxxxxxx |           66 |           66 |           66 |           66 |xxxxxxxxxxxxx |xxxxxxxxxxxxx |xxxxxxxxxxxxx |           66 |           66 |           66 |           66 |xxxxxxxxxxxxx |xxxxxxxxxxxxx |xxxxxxxxxxxxx |           66 |           66 |           66 |           66 |xxxxxxxxxxxxx |xxxxxxxxxxxxx |xxxxxxxxxxxxx |           66 |           66 |           66 |           66 |xxxxxxxxxxxxx |xxxxxxxxxxxxx |xxxxxxxxxxxxx |           66 |           66 |           66 |           66 |xxxxxxxxxxxxx |xxxxxxxxxxxxx |xxxxxxxxxxxxx |           66 |           66 |           66 |           66 |xxxxxxxxxxxxx |xxxxxxxxxxxxx |xxxxxxxxxxxxx |           66 |           66 |           66 |           66 |xxxxxxxxxxxxx |xxxxxxxxxxxxx |xxxxxxxxxxxxx |           66 |           66 |           66 |           66 |xxxxxxxxxxxxx |xxxxxxxxxxxxx |xxxxxxxxxxxxx |           66 |           66 |           66 |           66 |xxxxxxxxxxxxx |xxxxxxxxxxxxx |xxxxxxxxxxxxx |           66 |           66 |           66 |           66 |
bpred_2lev.retstack_pops             xxxxxxxxxxxxx |xxxxxxxxxxxxx |xxxxxxxxxxxxx |           64 |           64 |           64 |           64 |xxxxxxxxxxxxx |xxxxxxxxxxxxx |xxxxxxxxxxxxx |           64 |           64 |           64 |           64 |xxxxxxxxxxxxx |xxxxxxxxxxxxx |xxxxxxxxxxxxx |           64 |           64 |           64 |           64 |xxxxxxxxxxxxx |xxxxxxxxxxxxx |xxxxxxxxxxxxx |           64 |           64 |           64 |           64 |xxxxxxxxxxxxx |xxxxxxxxxxxxx |xxxxxxxxxxxxx |           64 |           64 |           64 |           64 |xxxxxxxxxxxxx |xxxxxxxxxxxxx |xxxxxxxxxxxxx |           64 |           64 |           64 |           64 |xxxxxxxxxxxxx |xxxxxxxxxxxxx |xxxxxxxxxxxxx |           64 |           64 |           64 |           64 |xxxxxxxxxxxxx |xxxxxxxxxxxxx |xxxxxxxxxxxxx |           64 |           64 |           64 |           64 |xxxxxxxxxxxxx |xxxxxxxxxxxxx |xxxxxxxxxxxxx |           64 |           64 |           64 |           64 |xxxxxxxxxxxxx |xxxxxxxxxxxxx |xxxxxxxxxxxxx |           64 |           64 |           64 |           64 |xxxxxxxxxxxxx |xxxxxxxxxxxxx |xxxxxxxxxxxxx |           64 |           64 |           64 |           64 |
bpred_2lev.used_ras.PP               xxxxxxxxxxxxx |xxxxxxxxxxxxx |xxxxxxxxxxxxx |           64 |           64 |           64 |           64 |xxxxxxxxxxxxx |xxxxxxxxxxxxx |xxxxxxxxxxxxx |           64 |           64 |           64 |           64 |xxxxxxxxxxxxx |xxxxxxxxxxxxx |xxxxxxxxxxxxx |           64 |           64 |           64 |           64 |xxxxxxxxxxxxx |xxxxxxxxxxxxx |xxxxxxxxxxxxx |           64 |           64 |           64 |           64 |xxxxxxxxxxxxx |xxxxxxxxxxxxx |xxxxxxxxxxxxx |           64 |           64 |           64 |           64 |xxxxxxxxxxxxx |xxxxxxxxxxxxx |xxxxxxxxxxxxx |           64 |           64 |           64 |           64 |xxxxxxxxxxxxx |xxxxxxxxxxxxx |xxxxxxxxxxxxx |           64 |           64 |           64 |           64 |xxxxxxxxxxxxx |xxxxxxxxxxxxx |xxxxxxxxxxxxx |           64 |           64 |           64 |           64 |xxxxxxxxxxxxx |xxxxxxxxxxxxx |xxxxxxxxxxxxx |           64 |           64 |           64 |           64 |xxxxxxxxxxxxx |xxxxxxxxxxxxx |xxxxxxxxxxxxx |           64 |           64 |           64 |           64 |xxxxxxxxxxxxx |xxxxxxxxxxxxx |xxxxxxxxxxxxx |           64 |           64 |           64 |           64 |
bpred_2lev.ras_hits.PP               xxxxxxxxxxxxx |xxxxxxxxxxxxx |xxxxxxxxxxxxx |           64 |           64 |           64 |           64 |xxxxxxxxxxxxx |xxxxxxxxxxxxx |xxxxxxxxxxxxx |           64 |           64 |           64 |           64 |xxxxxxxxxxxxx |xxxxxxxxxxxxx |xxxxxxxxxxxxx |           64 |           64 |           64 |           64 |xxxxxxxxxxxxx |xxxxxxxxxxxxx |xxxxxxxxxxxxx |           64 |           64 |           64 |           64 |xxxxxxxxxxxxx |xxxxxxxxxxxxx |xxxxxxxxxxxxx |           64 |           64 |           64 |           64 |xxxxxxxxxxxxx |xxxxxxxxxxxxx |xxxxxxxxxxxxx |           64 |           64 |           64 |           64 |xxxxxxxxxxxxx |xxxxxxxxxxxxx |xxxxxxxxxxxxx |           64 |           64 |           64 |           64 |xxxxxxxxxxxxx |xxxxxxxxxxxxx |xxxxxxxxxxxxx |           64 |           64 |           64 |           64 |xxxxxxxxxxxxx |xxxxxxxxxxxxx |xxxxxxxxxxxxx |           64 |           64 |           64 |           64 |xxxxxxxxxxxxx |xxxxxxxxxxxxx |xxxxxxxxxxxxx |           64 |           64 |           64 |           64 |xxxxxxxxxxxxx |xxxxxxxxxxxxx |xxxxxxxxxxxxx |           64 |           64 |           64 |           64 |
bpred_2lev.ras_rate.PP               xxxxxxxxxxxxx |xxxxxxxxxxxxx |xxxxxxxxxxxxx |       1.0000 |       1.0000 |       1.0000 |       1.0000 |xxxxxxxxxxxxx |xxxxxxxxxxxxx |xxxxxxxxxxxxx |       1.0000 |       1.0000 |       1.0000 |       1.0000 |xxxxxxxxxxxxx |xxxxxxxxxxxxx |xxxxxxxxxxxxx |       1.0000 |       1.0000 |       1.0000 |       1.0000 |xxxxxxxxxxxxx |xxxxxxxxxxxxx |xxxxxxxxxxxxx |       1.0000 |       1.0000 |       1.0000 |       1.0000 |xxxxxxxxxxxxx |xxxxxxxxxxxxx |xxxxxxxxxxxxx |       1.0000 |       1.0000 |       1.0000 |       1.0000 |xxxxxxxxxxxxx |xxxxxxxxxxxxx |xxxxxxxxxxxxx |       1.0000 |       1.0000 |       1.0000 |       1.0000 |xxxxxxxxxxxxx |xxxxxxxxxxxxx |xxxxxxxxxxxxx |       1.0000 |       1.0000 |       1.0000 |       1.0000 |xxxxxxxxxxxxx |xxxxxxxxxxxxx |xxxxxxxxxxxxx |       1.0000 |       1.0000 |       1.0000 |       1.0000 |xxxxxxxxxxxxx |xxxxxxxxxxxxx |xxxxxxxxxxxxx |       1.0000 |       1.0000 |       1.0000 |       1.0000 |xxxxxxxxxxxxx |xxxxxxxxxxxxx |xxxxxxxxxxxxx |       1.0000 |       1.0000 |       1.0000 |       1.0000 |xxxxxxxxxxxxx |xxxxxxxxxxxxx |xxxxxxxxxxxxx |       1.0000 |       1.0000 |       1.0000 |       1.0000 |

Command list: 
	sslittle-na-sstrix-gcc -Wall -O3 -funroll-loops -finline-functions  -DRANDOM_SIZE=4096 -DOFFSET=6 -DSORT=base_quicksort9 sorts/base_quicksort91184049749.c simpleMain.c -o base_quicksort91859440155
	sim-cache -cache:dl1 dl1:256:32:1:l -cache:dl2 dl2:131072:32:1:l -cache:il1 il1:256:32:1:l -cache:il2 dl2 base_quicksort91859440155
	sim-cache -cache:dl1 dl1:256:32:1:l -cache:dl2 dl2:65536:32:1:l -cache:il1 il1:256:32:1:l -cache:il2 dl2 base_quicksort91859440155
	sim-cache -cache:dl1 dl1:1:32:256:l -cache:dl2 dl2:1:32:131072:l -cache:il1 il1:1:32:256:l -cache:il2 dl2 base_quicksort91859440155
	sim-cache -cache:dl1 dl1:1:32:256:l -cache:dl2 dl2:1:32:65536:l -cache:il1 il1:1:32:256:l -cache:il2 dl2 base_quicksort91859440155
	sim-bpred -bpred bimod -bpred:bimod 512 base_quicksort91859440155
	sim-bpred -bpred bimod -bpred:bimod 1024 base_quicksort91859440155
	sim-bpred -bpred bimod -bpred:bimod 2048 base_quicksort91859440155
	sim-bpred -bpred 2lev -bpred:2lev 1 512 10 1 base_quicksort91859440155
	sim-bpred -bpred 2lev -bpred:2lev 1 1024 10 1 base_quicksort91859440155
	sim-bpred -bpred 2lev -bpred:2lev 1 2048 10 1 base_quicksort91859440155
	sim-bpred -bpred 2lev -bpred:2lev 1 4096 10 1 base_quicksort91859440155
	sslittle-na-sstrix-gcc -Wall -O3 -funroll-loops -finline-functions  -DRANDOM_SIZE=8192 -DOFFSET=6 -DSORT=base_quicksort9 sorts/base_quicksort91184049749.c simpleMain.c -o base_quicksort91859440155
	sim-cache -cache:dl1 dl1:256:32:1:l -cache:dl2 dl2:131072:32:1:l -cache:il1 il1:256:32:1:l -cache:il2 dl2 base_quicksort91859440155
	sim-cache -cache:dl1 dl1:256:32:1:l -cache:dl2 dl2:65536:32:1:l -cache:il1 il1:256:32:1:l -cache:il2 dl2 base_quicksort91859440155
	sim-cache -cache:dl1 dl1:1:32:256:l -cache:dl2 dl2:1:32:131072:l -cache:il1 il1:1:32:256:l -cache:il2 dl2 base_quicksort91859440155
	sim-cache -cache:dl1 dl1:1:32:256:l -cache:dl2 dl2:1:32:65536:l -cache:il1 il1:1:32:256:l -cache:il2 dl2 base_quicksort91859440155
	sim-bpred -bpred bimod -bpred:bimod 512 base_quicksort91859440155
	sim-bpred -bpred bimod -bpred:bimod 1024 base_quicksort91859440155
	sim-bpred -bpred bimod -bpred:bimod 2048 base_quicksort91859440155
	sim-bpred -bpred 2lev -bpred:2lev 1 512 10 1 base_quicksort91859440155
	sim-bpred -bpred 2lev -bpred:2lev 1 1024 10 1 base_quicksort91859440155
	sim-bpred -bpred 2lev -bpred:2lev 1 2048 10 1 base_quicksort91859440155
	sim-bpred -bpred 2lev -bpred:2lev 1 4096 10 1 base_quicksort91859440155
	sslittle-na-sstrix-gcc -Wall -O3 -funroll-loops -finline-functions  -DRANDOM_SIZE=16384 -DOFFSET=6 -DSORT=base_quicksort9 sorts/base_quicksort91184049749.c simpleMain.c -o base_quicksort91859440155
	sim-cache -cache:dl1 dl1:256:32:1:l -cache:dl2 dl2:131072:32:1:l -cache:il1 il1:256:32:1:l -cache:il2 dl2 base_quicksort91859440155
	sim-cache -cache:dl1 dl1:256:32:1:l -cache:dl2 dl2:65536:32:1:l -cache:il1 il1:256:32:1:l -cache:il2 dl2 base_quicksort91859440155
	sim-cache -cache:dl1 dl1:1:32:256:l -cache:dl2 dl2:1:32:131072:l -cache:il1 il1:1:32:256:l -cache:il2 dl2 base_quicksort91859440155
	sim-cache -cache:dl1 dl1:1:32:256:l -cache:dl2 dl2:1:32:65536:l -cache:il1 il1:1:32:256:l -cache:il2 dl2 base_quicksort91859440155
	sim-bpred -bpred bimod -bpred:bimod 512 base_quicksort91859440155
	sim-bpred -bpred bimod -bpred:bimod 1024 base_quicksort91859440155
	sim-bpred -bpred bimod -bpred:bimod 2048 base_quicksort91859440155
	sim-bpred -bpred 2lev -bpred:2lev 1 512 10 1 base_quicksort91859440155
	sim-bpred -bpred 2lev -bpred:2lev 1 1024 10 1 base_quicksort91859440155
	sim-bpred -bpred 2lev -bpred:2lev 1 2048 10 1 base_quicksort91859440155
	sim-bpred -bpred 2lev -bpred:2lev 1 4096 10 1 base_quicksort91859440155
	sslittle-na-sstrix-gcc -Wall -O3 -funroll-loops -finline-functions  -DRANDOM_SIZE=32768 -DOFFSET=6 -DSORT=base_quicksort9 sorts/base_quicksort91184049749.c simpleMain.c -o base_quicksort91859440155
	sim-cache -cache:dl1 dl1:256:32:1:l -cache:dl2 dl2:131072:32:1:l -cache:il1 il1:256:32:1:l -cache:il2 dl2 base_quicksort91859440155
	sim-cache -cache:dl1 dl1:256:32:1:l -cache:dl2 dl2:65536:32:1:l -cache:il1 il1:256:32:1:l -cache:il2 dl2 base_quicksort91859440155
	sim-cache -cache:dl1 dl1:1:32:256:l -cache:dl2 dl2:1:32:131072:l -cache:il1 il1:1:32:256:l -cache:il2 dl2 base_quicksort91859440155
	sim-cache -cache:dl1 dl1:1:32:256:l -cache:dl2 dl2:1:32:65536:l -cache:il1 il1:1:32:256:l -cache:il2 dl2 base_quicksort91859440155
	sim-bpred -bpred bimod -bpred:bimod 512 base_quicksort91859440155
	sim-bpred -bpred bimod -bpred:bimod 1024 base_quicksort91859440155
	sim-bpred -bpred bimod -bpred:bimod 2048 base_quicksort91859440155
	sim-bpred -bpred 2lev -bpred:2lev 1 512 10 1 base_quicksort91859440155
	sim-bpred -bpred 2lev -bpred:2lev 1 1024 10 1 base_quicksort91859440155
	sim-bpred -bpred 2lev -bpred:2lev 1 2048 10 1 base_quicksort91859440155
	sim-bpred -bpred 2lev -bpred:2lev 1 4096 10 1 base_quicksort91859440155
	sslittle-na-sstrix-gcc -Wall -O3 -funroll-loops -finline-functions  -DRANDOM_SIZE=65536 -DOFFSET=6 -DSORT=base_quicksort9 sorts/base_quicksort91184049749.c simpleMain.c -o base_quicksort91859440155
	sim-cache -cache:dl1 dl1:256:32:1:l -cache:dl2 dl2:131072:32:1:l -cache:il1 il1:256:32:1:l -cache:il2 dl2 base_quicksort91859440155
	sim-cache -cache:dl1 dl1:256:32:1:l -cache:dl2 dl2:65536:32:1:l -cache:il1 il1:256:32:1:l -cache:il2 dl2 base_quicksort91859440155
	sim-cache -cache:dl1 dl1:1:32:256:l -cache:dl2 dl2:1:32:131072:l -cache:il1 il1:1:32:256:l -cache:il2 dl2 base_quicksort91859440155
	sim-cache -cache:dl1 dl1:1:32:256:l -cache:dl2 dl2:1:32:65536:l -cache:il1 il1:1:32:256:l -cache:il2 dl2 base_quicksort91859440155
	sim-bpred -bpred bimod -bpred:bimod 512 base_quicksort91859440155
	sim-bpred -bpred bimod -bpred:bimod 1024 base_quicksort91859440155
	sim-bpred -bpred bimod -bpred:bimod 2048 base_quicksort91859440155
	sim-bpred -bpred 2lev -bpred:2lev 1 512 10 1 base_quicksort91859440155
	sim-bpred -bpred 2lev -bpred:2lev 1 1024 10 1 base_quicksort91859440155
	sim-bpred -bpred 2lev -bpred:2lev 1 2048 10 1 base_quicksort91859440155
	sim-bpred -bpred 2lev -bpred:2lev 1 4096 10 1 base_quicksort91859440155
	sslittle-na-sstrix-gcc -Wall -O3 -funroll-loops -finline-functions  -DRANDOM_SIZE=131072 -DOFFSET=6 -DSORT=base_quicksort9 sorts/base_quicksort91184049749.c simpleMain.c -o base_quicksort91859440155
	sim-cache -cache:dl1 dl1:256:32:1:l -cache:dl2 dl2:131072:32:1:l -cache:il1 il1:256:32:1:l -cache:il2 dl2 base_quicksort91859440155
	sim-cache -cache:dl1 dl1:256:32:1:l -cache:dl2 dl2:65536:32:1:l -cache:il1 il1:256:32:1:l -cache:il2 dl2 base_quicksort91859440155
	sim-cache -cache:dl1 dl1:1:32:256:l -cache:dl2 dl2:1:32:131072:l -cache:il1 il1:1:32:256:l -cache:il2 dl2 base_quicksort91859440155
	sim-cache -cache:dl1 dl1:1:32:256:l -cache:dl2 dl2:1:32:65536:l -cache:il1 il1:1:32:256:l -cache:il2 dl2 base_quicksort91859440155
	sim-bpred -bpred bimod -bpred:bimod 512 base_quicksort91859440155
	sim-bpred -bpred bimod -bpred:bimod 1024 base_quicksort91859440155
	sim-bpred -bpred bimod -bpred:bimod 2048 base_quicksort91859440155
	sim-bpred -bpred 2lev -bpred:2lev 1 512 10 1 base_quicksort91859440155
	sim-bpred -bpred 2lev -bpred:2lev 1 1024 10 1 base_quicksort91859440155
	sim-bpred -bpred 2lev -bpred:2lev 1 2048 10 1 base_quicksort91859440155
	sim-bpred -bpred 2lev -bpred:2lev 1 4096 10 1 base_quicksort91859440155
	sslittle-na-sstrix-gcc -Wall -O3 -funroll-loops -finline-functions  -DRANDOM_SIZE=262144 -DOFFSET=6 -DSORT=base_quicksort9 sorts/base_quicksort91184049749.c simpleMain.c -o base_quicksort91859440155
	sim-cache -cache:dl1 dl1:256:32:1:l -cache:dl2 dl2:131072:32:1:l -cache:il1 il1:256:32:1:l -cache:il2 dl2 base_quicksort91859440155
	sim-cache -cache:dl1 dl1:256:32:1:l -cache:dl2 dl2:65536:32:1:l -cache:il1 il1:256:32:1:l -cache:il2 dl2 base_quicksort91859440155
	sim-cache -cache:dl1 dl1:1:32:256:l -cache:dl2 dl2:1:32:131072:l -cache:il1 il1:1:32:256:l -cache:il2 dl2 base_quicksort91859440155
	sim-cache -cache:dl1 dl1:1:32:256:l -cache:dl2 dl2:1:32:65536:l -cache:il1 il1:1:32:256:l -cache:il2 dl2 base_quicksort91859440155
	sim-bpred -bpred bimod -bpred:bimod 512 base_quicksort91859440155
	sim-bpred -bpred bimod -bpred:bimod 1024 base_quicksort91859440155
	sim-bpred -bpred bimod -bpred:bimod 2048 base_quicksort91859440155
	sim-bpred -bpred 2lev -bpred:2lev 1 512 10 1 base_quicksort91859440155
	sim-bpred -bpred 2lev -bpred:2lev 1 1024 10 1 base_quicksort91859440155
	sim-bpred -bpred 2lev -bpred:2lev 1 2048 10 1 base_quicksort91859440155
	sim-bpred -bpred 2lev -bpred:2lev 1 4096 10 1 base_quicksort91859440155
	sslittle-na-sstrix-gcc -Wall -O3 -funroll-loops -finline-functions  -DRANDOM_SIZE=524288 -DOFFSET=6 -DSORT=base_quicksort9 sorts/base_quicksort91184049749.c simpleMain.c -o base_quicksort91859440155
	sim-cache -cache:dl1 dl1:256:32:1:l -cache:dl2 dl2:131072:32:1:l -cache:il1 il1:256:32:1:l -cache:il2 dl2 base_quicksort91859440155
	sim-cache -cache:dl1 dl1:256:32:1:l -cache:dl2 dl2:65536:32:1:l -cache:il1 il1:256:32:1:l -cache:il2 dl2 base_quicksort91859440155
	sim-cache -cache:dl1 dl1:1:32:256:l -cache:dl2 dl2:1:32:131072:l -cache:il1 il1:1:32:256:l -cache:il2 dl2 base_quicksort91859440155
	sim-cache -cache:dl1 dl1:1:32:256:l -cache:dl2 dl2:1:32:65536:l -cache:il1 il1:1:32:256:l -cache:il2 dl2 base_quicksort91859440155
	sim-bpred -bpred bimod -bpred:bimod 512 base_quicksort91859440155
	sim-bpred -bpred bimod -bpred:bimod 1024 base_quicksort91859440155
	sim-bpred -bpred bimod -bpred:bimod 2048 base_quicksort91859440155
	sim-bpred -bpred 2lev -bpred:2lev 1 512 10 1 base_quicksort91859440155
	sim-bpred -bpred 2lev -bpred:2lev 1 1024 10 1 base_quicksort91859440155
	sim-bpred -bpred 2lev -bpred:2lev 1 2048 10 1 base_quicksort91859440155
	sim-bpred -bpred 2lev -bpred:2lev 1 4096 10 1 base_quicksort91859440155
	sslittle-na-sstrix-gcc -Wall -O3 -funroll-loops -finline-functions  -DRANDOM_SIZE=1048576 -DOFFSET=6 -DSORT=base_quicksort9 sorts/base_quicksort91184049749.c simpleMain.c -o base_quicksort91859440155
	sim-cache -cache:dl1 dl1:256:32:1:l -cache:dl2 dl2:131072:32:1:l -cache:il1 il1:256:32:1:l -cache:il2 dl2 base_quicksort91859440155
	sim-cache -cache:dl1 dl1:256:32:1:l -cache:dl2 dl2:65536:32:1:l -cache:il1 il1:256:32:1:l -cache:il2 dl2 base_quicksort91859440155
	sim-cache -cache:dl1 dl1:1:32:256:l -cache:dl2 dl2:1:32:131072:l -cache:il1 il1:1:32:256:l -cache:il2 dl2 base_quicksort91859440155
	sim-cache -cache:dl1 dl1:1:32:256:l -cache:dl2 dl2:1:32:65536:l -cache:il1 il1:1:32:256:l -cache:il2 dl2 base_quicksort91859440155
	sim-bpred -bpred bimod -bpred:bimod 512 base_quicksort91859440155
	sim-bpred -bpred bimod -bpred:bimod 1024 base_quicksort91859440155
	sim-bpred -bpred bimod -bpred:bimod 2048 base_quicksort91859440155
	sim-bpred -bpred 2lev -bpred:2lev 1 512 10 1 base_quicksort91859440155
	sim-bpred -bpred 2lev -bpred:2lev 1 1024 10 1 base_quicksort91859440155
	sim-bpred -bpred 2lev -bpred:2lev 1 2048 10 1 base_quicksort91859440155
	sim-bpred -bpred 2lev -bpred:2lev 1 4096 10 1 base_quicksort91859440155
	sslittle-na-sstrix-gcc -Wall -O3 -funroll-loops -finline-functions  -DRANDOM_SIZE=2097152 -DOFFSET=6 -DSORT=base_quicksort9 sorts/base_quicksort91184049749.c simpleMain.c -o base_quicksort91859440155
	sim-cache -cache:dl1 dl1:256:32:1:l -cache:dl2 dl2:131072:32:1:l -cache:il1 il1:256:32:1:l -cache:il2 dl2 base_quicksort91859440155
	sim-cache -cache:dl1 dl1:256:32:1:l -cache:dl2 dl2:65536:32:1:l -cache:il1 il1:256:32:1:l -cache:il2 dl2 base_quicksort91859440155
	sim-cache -cache:dl1 dl1:1:32:256:l -cache:dl2 dl2:1:32:131072:l -cache:il1 il1:1:32:256:l -cache:il2 dl2 base_quicksort91859440155
	sim-cache -cache:dl1 dl1:1:32:256:l -cache:dl2 dl2:1:32:65536:l -cache:il1 il1:1:32:256:l -cache:il2 dl2 base_quicksort91859440155
	sim-bpred -bpred bimod -bpred:bimod 512 base_quicksort91859440155
	sim-bpred -bpred bimod -bpred:bimod 1024 base_quicksort91859440155
	sim-bpred -bpred bimod -bpred:bimod 2048 base_quicksort91859440155
	sim-bpred -bpred 2lev -bpred:2lev 1 512 10 1 base_quicksort91859440155
	sim-bpred -bpred 2lev -bpred:2lev 1 1024 10 1 base_quicksort91859440155
	sim-bpred -bpred 2lev -bpred:2lev 1 2048 10 1 base_quicksort91859440155
	sim-bpred -bpred 2lev -bpred:2lev 1 4096 10 1 base_quicksort91859440155
	sslittle-na-sstrix-gcc -Wall -O3 -funroll-loops -finline-functions  -DRANDOM_SIZE=4194304 -DOFFSET=6 -DSORT=base_quicksort9 sorts/base_quicksort91184049749.c simpleMain.c -o base_quicksort91859440155
	sim-cache -cache:dl1 dl1:256:32:1:l -cache:dl2 dl2:131072:32:1:l -cache:il1 il1:256:32:1:l -cache:il2 dl2 base_quicksort91859440155
	sim-cache -cache:dl1 dl1:256:32:1:l -cache:dl2 dl2:65536:32:1:l -cache:il1 il1:256:32:1:l -cache:il2 dl2 base_quicksort91859440155
	sim-cache -cache:dl1 dl1:1:32:256:l -cache:dl2 dl2:1:32:131072:l -cache:il1 il1:1:32:256:l -cache:il2 dl2 base_quicksort91859440155
	sim-cache -cache:dl1 dl1:1:32:256:l -cache:dl2 dl2:1:32:65536:l -cache:il1 il1:1:32:256:l -cache:il2 dl2 base_quicksort91859440155
	sim-bpred -bpred bimod -bpred:bimod 512 base_quicksort91859440155
	sim-bpred -bpred bimod -bpred:bimod 1024 base_quicksort91859440155
	sim-bpred -bpred bimod -bpred:bimod 2048 base_quicksort91859440155
	sim-bpred -bpred 2lev -bpred:2lev 1 512 10 1 base_quicksort91859440155
	sim-bpred -bpred 2lev -bpred:2lev 1 1024 10 1 base_quicksort91859440155
	sim-bpred -bpred 2lev -bpred:2lev 1 2048 10 1 base_quicksort91859440155
	sim-bpred -bpred 2lev -bpred:2lev 1 4096 10 1 base_quicksort91859440155
