Thu Jun 16 20:54:51 2005
Run as: "./do_simple -c random.org0 -o 0 base_quicksort"
-------------------------------------------------------------------------------------------------
sim-cache                                     4096 |         4096 |         4096 |         4096 |         8192 |         8192 |         8192 |         8192 |        16384 |        16384 |        16384 |        16384 |        32768 |        32768 |        32768 |        32768 |        65536 |        65536 |        65536 |        65536 |       131072 |       131072 |       131072 |       131072 |       262144 |       262144 |       262144 |       262144 |       524288 |       524288 |       524288 |       524288 |      1048576 |      1048576 |      1048576 |      1048576 |      2097152 |      2097152 |      2097152 |      2097152 |      4194304 |      4194304 |      4194304 |      4194304 |
-cache:dl1 dl1:256:32:1:l -cache:dl2 dl2:131072:32:1:l -cache:il1 il1:256:32:1:l -cache:il2 dl2
-cache:dl1 dl1:256:32:1:l -cache:dl2 dl2:65536:32:1:l -cache:il1 il1:256:32:1:l -cache:il2 dl2
-cache:dl1 dl1:1:32:256:l -cache:dl2 dl2:1:32:131072:l -cache:il1 il1:1:32:256:l -cache:il2 dl2
-cache:dl1 dl1:1:32:256:l -cache:dl2 dl2:1:32:65536:l -cache:il1 il1:1:32:256:l -cache:il2 dl2
-------------------------------------------------------------------------------------------------
sim_num_insn                                465535 |       465535 |       465535 |       465535 |      1019293 |      1019293 |      1019293 |      1019293 |      2163416 |      2163416 |      2163416 |      2163416 |      4665927 |      4665927 |      4665927 |      4665927 |      9999612 |      9999612 |      9999612 |      9999612 |     20755945 |     20755945 |     20755945 |     20755945 |     45012399 |     45012399 |     45012399 |     45012399 |     94080587 |     94080587 |     94080587 |     94080587 |    200284461 |    200284461 |    200284461 |    200284461 |    414740686 |    414740686 |    414740686 |    414740686 |    861347271 |    861347271 |    861347271 |    861347271 |
sim_num_refs                                124211 |       124211 |       124211 |       124211 |       265191 |       265191 |       265191 |       265191 |       558776 |       558776 |       558776 |       558776 |      1187743 |      1187743 |      1187743 |      1187743 |      2527050 |      2527050 |      2527050 |      2527050 |      5261671 |      5261671 |      5261671 |      5261671 |     11231227 |     11231227 |     11231227 |     11231227 |     23482751 |     23482751 |     23482751 |     23482751 |     49526075 |     49526075 |     49526075 |     49526075 |    102737355 |    102737355 |    102737355 |    102737355 |    213522808 |    213522808 |    213522808 |    213522808 |
sim_elapsed_time                                 1 |            1 |            6 |            4 |            1 |            1 |            9 |            5 |            1 |            1 |           14 |            8 |            1 |            1 |           25 |           13 |            3 |            2 |           46 |           23 |            6 |            5 |           84 |           42 |           12 |           11 |          155 |           73 |           24 |           24 |          266 |          105 |           51 |           50 |          371 |          133 |          105 |          104 |          430 |          190 |          216 |          216 |          549 |          310 |
sim_inst_rate                          465535.0000 |  465535.0000 |   77589.1667 |  116383.7500 | 1019293.0000 | 1019293.0000 |  113254.7778 |  203858.6000 | 2163416.0000 | 2163416.0000 |  154529.7143 |  270427.0000 | 4665927.0000 | 4665927.0000 |  186637.0800 |  358917.4615 | 3333204.0000 | 4999806.0000 |  217382.8696 |  434765.7391 | 3459324.1667 | 4151189.0000 |  247094.5833 |  494189.1667 | 3751033.2500 | 4092036.2727 |  290402.5742 |  616608.2055 | 3920024.4583 | 3920024.4583 |  353686.4173 |  896005.5905 | 3927146.2941 | 4005689.2200 |  539850.2992 | 1505898.2030 | 3949911.2952 | 3987891.2115 |  964513.2233 | 2182845.7158 | 3987718.8472 | 3987718.8472 | 1568938.5628 | 2778539.5839 |
il1.accesses                                465535 |       465535 |       465535 |       465535 |      1019293 |      1019293 |      1019293 |      1019293 |      2163416 |      2163416 |      2163416 |      2163416 |      4665927 |      4665927 |      4665927 |      4665927 |      9999612 |      9999612 |      9999612 |      9999612 |     20755945 |     20755945 |     20755945 |     20755945 |     45012399 |     45012399 |     45012399 |     45012399 |     94080587 |     94080587 |     94080587 |     94080587 |    200284461 |    200284461 |    200284461 |    200284461 |    414740686 |    414740686 |    414740686 |    414740686 |    861347271 |    861347271 |    861347271 |    861347271 |
il1.hits                                    465086 |       465086 |       465117 |       465117 |      1018844 |      1018844 |      1018875 |      1018875 |      2162954 |      2162954 |      2162994 |      2162994 |      4665465 |      4665465 |      4665505 |      4665505 |      9999150 |      9999150 |      9999190 |      9999190 |     20755494 |     20755494 |     20755525 |     20755525 |     45011948 |     45011948 |     45011979 |     45011979 |     94080136 |     94080136 |     94080167 |     94080167 |    200284010 |    200284010 |    200284041 |    200284041 |    414740235 |    414740235 |    414740266 |    414740266 |    861346820 |    861346820 |    861346851 |    861346851 |
il1.misses                                     449 |          449 |          418 |          418 |          449 |          449 |          418 |          418 |          462 |          462 |          422 |          422 |          462 |          462 |          422 |          422 |          462 |          462 |          422 |          422 |          451 |          451 |          420 |          420 |          451 |          451 |          420 |          420 |          451 |          451 |          420 |          420 |          451 |          451 |          420 |          420 |          451 |          451 |          420 |          420 |          451 |          451 |          420 |          420 |
il1.replacements                               211 |          211 |          162 |          162 |          212 |          212 |          162 |          162 |          225 |          225 |          166 |          166 |          225 |          225 |          166 |          166 |          225 |          225 |          166 |          166 |          213 |          213 |          164 |          164 |          213 |          213 |          164 |          164 |          213 |          213 |          164 |          164 |          213 |          213 |          164 |          164 |          213 |          213 |          164 |          164 |          213 |          213 |          164 |          164 |
il1.writebacks                                   0 |            0 |            0 |            0 |            0 |            0 |            0 |            0 |            0 |            0 |            0 |            0 |            0 |            0 |            0 |            0 |            0 |            0 |            0 |            0 |            0 |            0 |            0 |            0 |            0 |            0 |            0 |            0 |            0 |            0 |            0 |            0 |            0 |            0 |            0 |            0 |            0 |            0 |            0 |            0 |            0 |            0 |            0 |            0 |
il1.invalidations                                0 |            0 |            0 |            0 |            0 |            0 |            0 |            0 |            0 |            0 |            0 |            0 |            0 |            0 |            0 |            0 |            0 |            0 |            0 |            0 |            0 |            0 |            0 |            0 |            0 |            0 |            0 |            0 |            0 |            0 |            0 |            0 |            0 |            0 |            0 |            0 |            0 |            0 |            0 |            0 |            0 |            0 |            0 |            0 |
il1.miss_rate                               0.0010 |       0.0010 |       0.0009 |       0.0009 |       0.0004 |       0.0004 |       0.0004 |       0.0004 |       0.0002 |       0.0002 |       0.0002 |       0.0002 |       0.0001 |       0.0001 |       0.0001 |       0.0001 |       0.0000 |       0.0000 |       0.0000 |       0.0000 |       0.0000 |       0.0000 |       0.0000 |       0.0000 |       0.0000 |       0.0000 |       0.0000 |       0.0000 |       0.0000 |       0.0000 |       0.0000 |       0.0000 |       0.0000 |       0.0000 |       0.0000 |       0.0000 |       0.0000 |       0.0000 |       0.0000 |       0.0000 |       0.0000 |       0.0000 |       0.0000 |       0.0000 |
il1.repl_rate                               0.0005 |       0.0005 |       0.0003 |       0.0003 |       0.0002 |       0.0002 |       0.0002 |       0.0002 |       0.0001 |       0.0001 |       0.0001 |       0.0001 |       0.0000 |       0.0000 |       0.0000 |       0.0000 |       0.0000 |       0.0000 |       0.0000 |       0.0000 |       0.0000 |       0.0000 |       0.0000 |       0.0000 |       0.0000 |       0.0000 |       0.0000 |       0.0000 |       0.0000 |       0.0000 |       0.0000 |       0.0000 |       0.0000 |       0.0000 |       0.0000 |       0.0000 |       0.0000 |       0.0000 |       0.0000 |       0.0000 |       0.0000 |       0.0000 |       0.0000 |       0.0000 |
il1.wb_rate                                 0.0000 |       0.0000 |       0.0000 |       0.0000 |       0.0000 |       0.0000 |       0.0000 |       0.0000 |       0.0000 |       0.0000 |       0.0000 |       0.0000 |       0.0000 |       0.0000 |       0.0000 |       0.0000 |       0.0000 |       0.0000 |       0.0000 |       0.0000 |       0.0000 |       0.0000 |       0.0000 |       0.0000 |       0.0000 |       0.0000 |       0.0000 |       0.0000 |       0.0000 |       0.0000 |       0.0000 |       0.0000 |       0.0000 |       0.0000 |       0.0000 |       0.0000 |       0.0000 |       0.0000 |       0.0000 |       0.0000 |       0.0000 |       0.0000 |       0.0000 |       0.0000 |
il1.inv_rate                                0.0000 |       0.0000 |       0.0000 |       0.0000 |       0.0000 |       0.0000 |       0.0000 |       0.0000 |       0.0000 |       0.0000 |       0.0000 |       0.0000 |       0.0000 |       0.0000 |       0.0000 |       0.0000 |       0.0000 |       0.0000 |       0.0000 |       0.0000 |       0.0000 |       0.0000 |       0.0000 |       0.0000 |       0.0000 |       0.0000 |       0.0000 |       0.0000 |       0.0000 |       0.0000 |       0.0000 |       0.0000 |       0.0000 |       0.0000 |       0.0000 |       0.0000 |       0.0000 |       0.0000 |       0.0000 |       0.0000 |       0.0000 |       0.0000 |       0.0000 |       0.0000 |
dl1.accesses                                140677 |       140677 |       140677 |       140677 |       298041 |       298041 |       298041 |       298041 |       624394 |       624394 |       624394 |       624394 |      1318897 |      1318897 |      1318897 |      1318897 |      2789276 |      2789276 |      2789276 |      2789276 |      5786041 |      5786041 |      5786041 |      5786041 |     12279885 |     12279885 |     12279885 |     12279885 |     25579985 |     25579985 |     25579985 |     25579985 |     53720461 |     53720461 |     53720461 |     53720461 |    111126045 |    111126045 |    111126045 |    111126045 |    230300106 |    230300106 |    230300106 |    230300106 |
dl1.hits                                    137844 |       137844 |       137796 |       137796 |       291498 |       291498 |       291587 |       291587 |       610080 |       610080 |       610104 |       610104 |      1284618 |      1284618 |      1284764 |      1284764 |      2710385 |      2710385 |      2710580 |      2710580 |      5619764 |      5619764 |      5620864 |      5620864 |     11882774 |     11882774 |     11884584 |     11884584 |     24723133 |     24723133 |     24728897 |     24728897 |     51799292 |     51799292 |     51814194 |     51814194 |    107080214 |    107080214 |    107118655 |    107118655 |    221732946 |    221732946 |    221825041 |    221825041 |
dl1.misses                                    2833 |         2833 |         2881 |         2881 |         6543 |         6543 |         6454 |         6454 |        14314 |        14314 |        14290 |        14290 |        34279 |        34279 |        34133 |        34133 |        78891 |        78891 |        78696 |        78696 |       166277 |       166277 |       165177 |       165177 |       397111 |       397111 |       395301 |       395301 |       856852 |       856852 |       851088 |       851088 |      1921169 |      1921169 |      1906267 |      1906267 |      4045831 |      4045831 |      4007390 |      4007390 |      8567160 |      8567160 |      8475065 |      8475065 |
dl1.replacements                              2577 |         2577 |         2625 |         2625 |         6287 |         6287 |         6198 |         6198 |        14058 |        14058 |        14034 |        14034 |        34023 |        34023 |        33877 |        33877 |        78635 |        78635 |        78440 |        78440 |       166021 |       166021 |       164921 |       164921 |       396855 |       396855 |       395045 |       395045 |       856596 |       856596 |       850832 |       850832 |      1920913 |      1920913 |      1906011 |      1906011 |      4045575 |      4045575 |      4007134 |      4007134 |      8566904 |      8566904 |      8474809 |      8474809 |
dl1.writebacks                                2430 |         2430 |         2493 |         2493 |         5710 |         5710 |         5674 |         5674 |        13186 |        13186 |        13257 |        13257 |        31375 |        31375 |        31440 |        31440 |        70039 |        70039 |        70424 |        70424 |       154911 |       154911 |       155252 |       155252 |       355193 |       355193 |       356686 |       356686 |       772415 |       772415 |       774367 |       774367 |      1708669 |      1708669 |      1711017 |      1711017 |      3691003 |      3691003 |      3691732 |      3691732 |      7872746 |      7872746 |      7866843 |      7866843 |
dl1.invalidations                                0 |            0 |            0 |            0 |            0 |            0 |            0 |            0 |            0 |            0 |            0 |            0 |            0 |            0 |            0 |            0 |            0 |            0 |            0 |            0 |            0 |            0 |            0 |            0 |            0 |            0 |            0 |            0 |            0 |            0 |            0 |            0 |            0 |            0 |            0 |            0 |            0 |            0 |            0 |            0 |            0 |            0 |            0 |            0 |
dl1.miss_rate                               0.0201 |       0.0201 |       0.0205 |       0.0205 |       0.0220 |       0.0220 |       0.0217 |       0.0217 |       0.0229 |       0.0229 |       0.0229 |       0.0229 |       0.0260 |       0.0260 |       0.0259 |       0.0259 |       0.0283 |       0.0283 |       0.0282 |       0.0282 |       0.0287 |       0.0287 |       0.0285 |       0.0285 |       0.0323 |       0.0323 |       0.0322 |       0.0322 |       0.0335 |       0.0335 |       0.0333 |       0.0333 |       0.0358 |       0.0358 |       0.0355 |       0.0355 |       0.0364 |       0.0364 |       0.0361 |       0.0361 |       0.0372 |       0.0372 |       0.0368 |       0.0368 |
dl1.repl_rate                               0.0183 |       0.0183 |       0.0187 |       0.0187 |       0.0211 |       0.0211 |       0.0208 |       0.0208 |       0.0225 |       0.0225 |       0.0225 |       0.0225 |       0.0258 |       0.0258 |       0.0257 |       0.0257 |       0.0282 |       0.0282 |       0.0281 |       0.0281 |       0.0287 |       0.0287 |       0.0285 |       0.0285 |       0.0323 |       0.0323 |       0.0322 |       0.0322 |       0.0335 |       0.0335 |       0.0333 |       0.0333 |       0.0358 |       0.0358 |       0.0355 |       0.0355 |       0.0364 |       0.0364 |       0.0361 |       0.0361 |       0.0372 |       0.0372 |       0.0368 |       0.0368 |
dl1.wb_rate                                 0.0173 |       0.0173 |       0.0177 |       0.0177 |       0.0192 |       0.0192 |       0.0190 |       0.0190 |       0.0211 |       0.0211 |       0.0212 |       0.0212 |       0.0238 |       0.0238 |       0.0238 |       0.0238 |       0.0251 |       0.0251 |       0.0252 |       0.0252 |       0.0268 |       0.0268 |       0.0268 |       0.0268 |       0.0289 |       0.0289 |       0.0290 |       0.0290 |       0.0302 |       0.0302 |       0.0303 |       0.0303 |       0.0318 |       0.0318 |       0.0319 |       0.0319 |       0.0332 |       0.0332 |       0.0332 |       0.0332 |       0.0342 |       0.0342 |       0.0342 |       0.0342 |
dl1.inv_rate                                0.0000 |       0.0000 |       0.0000 |       0.0000 |       0.0000 |       0.0000 |       0.0000 |       0.0000 |       0.0000 |       0.0000 |       0.0000 |       0.0000 |       0.0000 |       0.0000 |       0.0000 |       0.0000 |       0.0000 |       0.0000 |       0.0000 |       0.0000 |       0.0000 |       0.0000 |       0.0000 |       0.0000 |       0.0000 |       0.0000 |       0.0000 |       0.0000 |       0.0000 |       0.0000 |       0.0000 |       0.0000 |       0.0000 |       0.0000 |       0.0000 |       0.0000 |       0.0000 |       0.0000 |       0.0000 |       0.0000 |       0.0000 |       0.0000 |       0.0000 |       0.0000 |
dl2.accesses                                  5712 |         5712 |         5792 |         5792 |        12702 |        12702 |        12546 |        12546 |        27962 |        27962 |        27969 |        27969 |        66116 |        66116 |        65995 |        65995 |       149392 |       149392 |       149542 |       149542 |       321639 |       321639 |       320849 |       320849 |       752755 |       752755 |       752407 |       752407 |      1629718 |      1629718 |      1625875 |      1625875 |      3630289 |      3630289 |      3617704 |      3617704 |      7737285 |      7737285 |      7699542 |      7699542 |     16440357 |     16440357 |     16342328 |     16342328 |
dl2.hits                                      4349 |         4349 |         4439 |         4439 |        10827 |        10827 |        10681 |        10681 |        25063 |        25063 |        25085 |        25085 |        61169 |        61169 |        61063 |        61063 |       140348 |       140348 |       140513 |       140513 |       304409 |       304409 |       303629 |       303629 |       719141 |       719141 |       718803 |       718803 |      1563336 |      1562590 |      1559503 |      1536737 |      3497599 |      3116042 |      3456472 |      3072245 |      6770812 |      6294878 |      6634422 |      6222413 |     13795788 |     13156144 |     13591044 |     12867789 |
dl2.misses                                    1363 |         1363 |         1353 |         1353 |         1875 |         1875 |         1865 |         1865 |         2899 |         2899 |         2884 |         2884 |         4947 |         4947 |         4932 |         4932 |         9044 |         9044 |         9029 |         9029 |        17230 |        17230 |        17220 |        17220 |        33614 |        33614 |        33604 |        33604 |        66382 |        67128 |        66372 |        89138 |       132690 |       514247 |       161232 |       545459 |       966473 |      1442407 |      1065120 |      1477129 |      2644569 |      3284213 |      2751284 |      3474539 |
dl2.replacements                               144 |          144 |            0 |            0 |          144 |          144 |            0 |            0 |          150 |          150 |            0 |            0 |          150 |          150 |            0 |            0 |          150 |          150 |            0 |            0 |          144 |          144 |            0 |            0 |          144 |          144 |            0 |            0 |          144 |         1592 |            0 |        23602 |         1618 |       448711 |        30160 |       479923 |       835401 |      1376871 |       934048 |      1411593 |      2513497 |      3218677 |      2620212 |      3409003 |
dl2.writebacks                                  88 |           88 |            0 |            0 |           88 |           88 |            0 |            0 |           89 |           89 |            0 |            0 |           89 |           89 |            0 |            0 |           89 |           89 |            0 |            0 |           88 |           88 |            0 |            0 |           88 |           88 |            0 |            0 |           88 |         1285 |            0 |        23312 |         1307 |       434471 |        29870 |       463047 |       814794 |      1293886 |       912455 |      1325431 |      2428863 |      3070664 |      2532227 |      3240879 |
dl2.invalidations                                0 |            0 |            0 |            0 |            0 |            0 |            0 |            0 |            0 |            0 |            0 |            0 |            0 |            0 |            0 |            0 |            0 |            0 |            0 |            0 |            0 |            0 |            0 |            0 |            0 |            0 |            0 |            0 |            0 |            0 |            0 |            0 |            0 |            0 |            0 |            0 |            0 |            0 |            0 |            0 |            0 |            0 |            0 |            0 |
dl2.miss_rate                               0.2386 |       0.2386 |       0.2336 |       0.2336 |       0.1476 |       0.1476 |       0.1487 |       0.1487 |       0.1037 |       0.1037 |       0.1031 |       0.1031 |       0.0748 |       0.0748 |       0.0747 |       0.0747 |       0.0605 |       0.0605 |       0.0604 |       0.0604 |       0.0536 |       0.0536 |       0.0537 |       0.0537 |       0.0447 |       0.0447 |       0.0447 |       0.0447 |       0.0407 |       0.0412 |       0.0408 |       0.0548 |       0.0366 |       0.1417 |       0.0446 |       0.1508 |       0.1249 |       0.1864 |       0.1383 |       0.1918 |       0.1609 |       0.1998 |       0.1684 |       0.2126 |
dl2.repl_rate                               0.0252 |       0.0252 |       0.0000 |       0.0000 |       0.0113 |       0.0113 |       0.0000 |       0.0000 |       0.0054 |       0.0054 |       0.0000 |       0.0000 |       0.0023 |       0.0023 |       0.0000 |       0.0000 |       0.0010 |       0.0010 |       0.0000 |       0.0000 |       0.0004 |       0.0004 |       0.0000 |       0.0000 |       0.0002 |       0.0002 |       0.0000 |       0.0000 |       0.0001 |       0.0010 |       0.0000 |       0.0145 |       0.0004 |       0.1236 |       0.0083 |       0.1327 |       0.1080 |       0.1780 |       0.1213 |       0.1833 |       0.1529 |       0.1958 |       0.1603 |       0.2086 |
dl2.wb_rate                                 0.0154 |       0.0154 |       0.0000 |       0.0000 |       0.0069 |       0.0069 |       0.0000 |       0.0000 |       0.0032 |       0.0032 |       0.0000 |       0.0000 |       0.0013 |       0.0013 |       0.0000 |       0.0000 |       0.0006 |       0.0006 |       0.0000 |       0.0000 |       0.0003 |       0.0003 |       0.0000 |       0.0000 |       0.0001 |       0.0001 |       0.0000 |       0.0000 |       0.0001 |       0.0008 |       0.0000 |       0.0143 |       0.0004 |       0.1197 |       0.0083 |       0.1280 |       0.1053 |       0.1672 |       0.1185 |       0.1721 |       0.1477 |       0.1868 |       0.1549 |       0.1983 |
dl2.inv_rate                                0.0000 |       0.0000 |       0.0000 |       0.0000 |       0.0000 |       0.0000 |       0.0000 |       0.0000 |       0.0000 |       0.0000 |       0.0000 |       0.0000 |       0.0000 |       0.0000 |       0.0000 |       0.0000 |       0.0000 |       0.0000 |       0.0000 |       0.0000 |       0.0000 |       0.0000 |       0.0000 |       0.0000 |       0.0000 |       0.0000 |       0.0000 |       0.0000 |       0.0000 |       0.0000 |       0.0000 |       0.0000 |       0.0000 |       0.0000 |       0.0000 |       0.0000 |       0.0000 |       0.0000 |       0.0000 |       0.0000 |       0.0000 |       0.0000 |       0.0000 |       0.0000 |
itlb.accesses                               465535 |       465535 |       465535 |       465535 |      1019293 |      1019293 |      1019293 |      1019293 |      2163416 |      2163416 |      2163416 |      2163416 |      4665927 |      4665927 |      4665927 |      4665927 |      9999612 |      9999612 |      9999612 |      9999612 |     20755945 |     20755945 |     20755945 |     20755945 |     45012399 |     45012399 |     45012399 |     45012399 |     94080587 |     94080587 |     94080587 |     94080587 |    200284461 |    200284461 |    200284461 |    200284461 |    414740686 |    414740686 |    414740686 |    414740686 |    861347271 |    861347271 |    861347271 |    861347271 |
itlb.hits                                   465525 |       465525 |       465525 |       465525 |      1019283 |      1019283 |      1019283 |      1019283 |      2163406 |      2163406 |      2163406 |      2163406 |      4665917 |      4665917 |      4665917 |      4665917 |      9999602 |      9999602 |      9999602 |      9999602 |     20755935 |     20755935 |     20755935 |     20755935 |     45012389 |     45012389 |     45012389 |     45012389 |     94080577 |     94080577 |     94080577 |     94080577 |    200284451 |    200284451 |    200284451 |    200284451 |    414740676 |    414740676 |    414740676 |    414740676 |    861347261 |    861347261 |    861347261 |    861347261 |
itlb.misses                                     10 |           10 |           10 |           10 |           10 |           10 |           10 |           10 |           10 |           10 |           10 |           10 |           10 |           10 |           10 |           10 |           10 |           10 |           10 |           10 |           10 |           10 |           10 |           10 |           10 |           10 |           10 |           10 |           10 |           10 |           10 |           10 |           10 |           10 |           10 |           10 |           10 |           10 |           10 |           10 |           10 |           10 |           10 |           10 |
itlb.replacements                                0 |            0 |            0 |            0 |            0 |            0 |            0 |            0 |            0 |            0 |            0 |            0 |            0 |            0 |            0 |            0 |            0 |            0 |            0 |            0 |            0 |            0 |            0 |            0 |            0 |            0 |            0 |            0 |            0 |            0 |            0 |            0 |            0 |            0 |            0 |            0 |            0 |            0 |            0 |            0 |            0 |            0 |            0 |            0 |
itlb.writebacks                                  0 |            0 |            0 |            0 |            0 |            0 |            0 |            0 |            0 |            0 |            0 |            0 |            0 |            0 |            0 |            0 |            0 |            0 |            0 |            0 |            0 |            0 |            0 |            0 |            0 |            0 |            0 |            0 |            0 |            0 |            0 |            0 |            0 |            0 |            0 |            0 |            0 |            0 |            0 |            0 |            0 |            0 |            0 |            0 |
itlb.invalidations                               0 |            0 |            0 |            0 |            0 |            0 |            0 |            0 |            0 |            0 |            0 |            0 |            0 |            0 |            0 |            0 |            0 |            0 |            0 |            0 |            0 |            0 |            0 |            0 |            0 |            0 |            0 |            0 |            0 |            0 |            0 |            0 |            0 |            0 |            0 |            0 |            0 |            0 |            0 |            0 |            0 |            0 |            0 |            0 |
itlb.miss_rate                              0.0000 |       0.0000 |       0.0000 |       0.0000 |       0.0000 |       0.0000 |       0.0000 |       0.0000 |       0.0000 |       0.0000 |       0.0000 |       0.0000 |       0.0000 |       0.0000 |       0.0000 |       0.0000 |       0.0000 |       0.0000 |       0.0000 |       0.0000 |       0.0000 |       0.0000 |       0.0000 |       0.0000 |       0.0000 |       0.0000 |       0.0000 |       0.0000 |       0.0000 |       0.0000 |       0.0000 |       0.0000 |       0.0000 |       0.0000 |       0.0000 |       0.0000 |       0.0000 |       0.0000 |       0.0000 |       0.0000 |       0.0000 |       0.0000 |       0.0000 |       0.0000 |
itlb.repl_rate                              0.0000 |       0.0000 |       0.0000 |       0.0000 |       0.0000 |       0.0000 |       0.0000 |       0.0000 |       0.0000 |       0.0000 |       0.0000 |       0.0000 |       0.0000 |       0.0000 |       0.0000 |       0.0000 |       0.0000 |       0.0000 |       0.0000 |       0.0000 |       0.0000 |       0.0000 |       0.0000 |       0.0000 |       0.0000 |       0.0000 |       0.0000 |       0.0000 |       0.0000 |       0.0000 |       0.0000 |       0.0000 |       0.0000 |       0.0000 |       0.0000 |       0.0000 |       0.0000 |       0.0000 |       0.0000 |       0.0000 |       0.0000 |       0.0000 |       0.0000 |       0.0000 |
itlb.wb_rate                                0.0000 |       0.0000 |       0.0000 |       0.0000 |       0.0000 |       0.0000 |       0.0000 |       0.0000 |       0.0000 |       0.0000 |       0.0000 |       0.0000 |       0.0000 |       0.0000 |       0.0000 |       0.0000 |       0.0000 |       0.0000 |       0.0000 |       0.0000 |       0.0000 |       0.0000 |       0.0000 |       0.0000 |       0.0000 |       0.0000 |       0.0000 |       0.0000 |       0.0000 |       0.0000 |       0.0000 |       0.0000 |       0.0000 |       0.0000 |       0.0000 |       0.0000 |       0.0000 |       0.0000 |       0.0000 |       0.0000 |       0.0000 |       0.0000 |       0.0000 |       0.0000 |
itlb.inv_rate                               0.0000 |       0.0000 |       0.0000 |       0.0000 |       0.0000 |       0.0000 |       0.0000 |       0.0000 |       0.0000 |       0.0000 |       0.0000 |       0.0000 |       0.0000 |       0.0000 |       0.0000 |       0.0000 |       0.0000 |       0.0000 |       0.0000 |       0.0000 |       0.0000 |       0.0000 |       0.0000 |       0.0000 |       0.0000 |       0.0000 |       0.0000 |       0.0000 |       0.0000 |       0.0000 |       0.0000 |       0.0000 |       0.0000 |       0.0000 |       0.0000 |       0.0000 |       0.0000 |       0.0000 |       0.0000 |       0.0000 |       0.0000 |       0.0000 |       0.0000 |       0.0000 |
dtlb.accesses                               140677 |       140677 |       140677 |       140677 |       298041 |       298041 |       298041 |       298041 |       624394 |       624394 |       624394 |       624394 |      1318897 |      1318897 |      1318897 |      1318897 |      2789276 |      2789276 |      2789276 |      2789276 |      5786041 |      5786041 |      5786041 |      5786041 |     12279885 |     12279885 |     12279885 |     12279885 |     25579985 |     25579985 |     25579985 |     25579985 |     53720461 |     53720461 |     53720461 |     53720461 |    111126045 |    111126045 |    111126045 |    111126045 |    230300106 |    230300106 |    230300106 |    230300106 |
dtlb.hits                                   140665 |       140665 |       140665 |       140665 |       298025 |       298025 |       298025 |       298025 |       624370 |       624370 |       624370 |       624370 |      1318857 |      1318857 |      1318857 |      1318857 |      2789204 |      2789204 |      2789204 |      2789204 |      5785865 |      5785865 |      5785865 |      5785865 |     12278787 |     12278787 |     12278787 |     12278787 |     25577207 |     25577207 |     25577207 |     25577207 |     53712833 |     53712833 |     53712833 |     53712833 |    111109533 |    111109533 |    111109533 |    111109533 |    230263534 |    230263534 |    230263534 |    230263534 |
dtlb.misses                                     12 |           12 |           12 |           12 |           16 |           16 |           16 |           16 |           24 |           24 |           24 |           24 |           40 |           40 |           40 |           40 |           72 |           72 |           72 |           72 |          176 |          176 |          176 |          176 |         1098 |         1098 |         1098 |         1098 |         2778 |         2778 |         2778 |         2778 |         7628 |         7628 |         7628 |         7628 |        16512 |        16512 |        16512 |        16512 |        36572 |        36572 |        36572 |        36572 |
dtlb.replacements                                0 |            0 |            0 |            0 |            0 |            0 |            0 |            0 |            0 |            0 |            0 |            0 |            0 |            0 |            0 |            0 |            0 |            0 |            0 |            0 |           48 |           48 |           48 |           48 |          970 |          970 |          970 |          970 |         2650 |         2650 |         2650 |         2650 |         7500 |         7500 |         7500 |         7500 |        16384 |        16384 |        16384 |        16384 |        36444 |        36444 |        36444 |        36444 |
dtlb.writebacks                                  0 |            0 |            0 |            0 |            0 |            0 |            0 |            0 |            0 |            0 |            0 |            0 |            0 |            0 |            0 |            0 |            0 |            0 |            0 |            0 |           46 |           46 |           46 |           46 |          968 |          968 |          968 |          968 |         2648 |         2648 |         2648 |         2648 |         7498 |         7498 |         7498 |         7498 |        16382 |        16382 |        16382 |        16382 |        36442 |        36442 |        36442 |        36442 |
dtlb.invalidations                               0 |            0 |            0 |            0 |            0 |            0 |            0 |            0 |            0 |            0 |            0 |            0 |            0 |            0 |            0 |            0 |            0 |            0 |            0 |            0 |            0 |            0 |            0 |            0 |            0 |            0 |            0 |            0 |            0 |            0 |            0 |            0 |            0 |            0 |            0 |            0 |            0 |            0 |            0 |            0 |            0 |            0 |            0 |            0 |
dtlb.miss_rate                              0.0001 |       0.0001 |       0.0001 |       0.0001 |       0.0001 |       0.0001 |       0.0001 |       0.0001 |       0.0000 |       0.0000 |       0.0000 |       0.0000 |       0.0000 |       0.0000 |       0.0000 |       0.0000 |       0.0000 |       0.0000 |       0.0000 |       0.0000 |       0.0000 |       0.0000 |       0.0000 |       0.0000 |       0.0001 |       0.0001 |       0.0001 |       0.0001 |       0.0001 |       0.0001 |       0.0001 |       0.0001 |       0.0001 |       0.0001 |       0.0001 |       0.0001 |       0.0001 |       0.0001 |       0.0001 |       0.0001 |       0.0002 |       0.0002 |       0.0002 |       0.0002 |
dtlb.repl_rate                              0.0000 |       0.0000 |       0.0000 |       0.0000 |       0.0000 |       0.0000 |       0.0000 |       0.0000 |       0.0000 |       0.0000 |       0.0000 |       0.0000 |       0.0000 |       0.0000 |       0.0000 |       0.0000 |       0.0000 |       0.0000 |       0.0000 |       0.0000 |       0.0000 |       0.0000 |       0.0000 |       0.0000 |       0.0001 |       0.0001 |       0.0001 |       0.0001 |       0.0001 |       0.0001 |       0.0001 |       0.0001 |       0.0001 |       0.0001 |       0.0001 |       0.0001 |       0.0001 |       0.0001 |       0.0001 |       0.0001 |       0.0002 |       0.0002 |       0.0002 |       0.0002 |
dtlb.wb_rate                                0.0000 |       0.0000 |       0.0000 |       0.0000 |       0.0000 |       0.0000 |       0.0000 |       0.0000 |       0.0000 |       0.0000 |       0.0000 |       0.0000 |       0.0000 |       0.0000 |       0.0000 |       0.0000 |       0.0000 |       0.0000 |       0.0000 |       0.0000 |       0.0000 |       0.0000 |       0.0000 |       0.0000 |       0.0001 |       0.0001 |       0.0001 |       0.0001 |       0.0001 |       0.0001 |       0.0001 |       0.0001 |       0.0001 |       0.0001 |       0.0001 |       0.0001 |       0.0001 |       0.0001 |       0.0001 |       0.0001 |       0.0002 |       0.0002 |       0.0002 |       0.0002 |
dtlb.inv_rate                               0.0000 |       0.0000 |       0.0000 |       0.0000 |       0.0000 |       0.0000 |       0.0000 |       0.0000 |       0.0000 |       0.0000 |       0.0000 |       0.0000 |       0.0000 |       0.0000 |       0.0000 |       0.0000 |       0.0000 |       0.0000 |       0.0000 |       0.0000 |       0.0000 |       0.0000 |       0.0000 |       0.0000 |       0.0000 |       0.0000 |       0.0000 |       0.0000 |       0.0000 |       0.0000 |       0.0000 |       0.0000 |       0.0000 |       0.0000 |       0.0000 |       0.0000 |       0.0000 |       0.0000 |       0.0000 |       0.0000 |       0.0000 |       0.0000 |       0.0000 |       0.0000 |
ld_text_base                            0x00400000 |   0x00400000 |   0x00400000 |   0x00400000 |   0x00400000 |   0x00400000 |   0x00400000 |   0x00400000 |   0x00400000 |   0x00400000 |   0x00400000 |   0x00400000 |   0x00400000 |   0x00400000 |   0x00400000 |   0x00400000 |   0x00400000 |   0x00400000 |   0x00400000 |   0x00400000 |   0x00400000 |   0x00400000 |   0x00400000 |   0x00400000 |   0x00400000 |   0x00400000 |   0x00400000 |   0x00400000 |   0x00400000 |   0x00400000 |   0x00400000 |   0x00400000 |   0x00400000 |   0x00400000 |   0x00400000 |   0x00400000 |   0x00400000 |   0x00400000 |   0x00400000 |   0x00400000 |   0x00400000 |   0x00400000 |   0x00400000 |   0x00400000 |
ld_text_size                                 73456 |        73456 |        73456 |        73456 |        73488 |        73488 |        73488 |        73488 |        73504 |        73504 |        73504 |        73504 |        73504 |        73504 |        73504 |        73504 |        73504 |        73504 |        73504 |        73504 |        73520 |        73520 |        73520 |        73520 |        73520 |        73520 |        73520 |        73520 |        73520 |        73520 |        73520 |        73520 |        73520 |        73520 |        73520 |        73520 |        73520 |        73520 |        73520 |        73520 |        73520 |        73520 |        73520 |        73520 |
ld_data_base                            0x10000000 |   0x10000000 |   0x10000000 |   0x10000000 |   0x10000000 |   0x10000000 |   0x10000000 |   0x10000000 |   0x10000000 |   0x10000000 |   0x10000000 |   0x10000000 |   0x10000000 |   0x10000000 |   0x10000000 |   0x10000000 |   0x10000000 |   0x10000000 |   0x10000000 |   0x10000000 |   0x10000000 |   0x10000000 |   0x10000000 |   0x10000000 |   0x10000000 |   0x10000000 |   0x10000000 |   0x10000000 |   0x10000000 |   0x10000000 |   0x10000000 |   0x10000000 |   0x10000000 |   0x10000000 |   0x10000000 |   0x10000000 |   0x10000000 |   0x10000000 |   0x10000000 |   0x10000000 |   0x10000000 |   0x10000000 |   0x10000000 |   0x10000000 |
ld_data_size                                  8192 |         8192 |         8192 |         8192 |         8192 |         8192 |         8192 |         8192 |         8192 |         8192 |         8192 |         8192 |         8192 |         8192 |         8192 |         8192 |         8192 |         8192 |         8192 |         8192 |         8192 |         8192 |         8192 |         8192 |         8192 |         8192 |         8192 |         8192 |         8192 |         8192 |         8192 |         8192 |         8192 |         8192 |         8192 |         8192 |         8192 |         8192 |         8192 |         8192 |         8192 |         8192 |         8192 |         8192 |
ld_stack_base                           0x7fffc000 |   0x7fffc000 |   0x7fffc000 |   0x7fffc000 |   0x7fffc000 |   0x7fffc000 |   0x7fffc000 |   0x7fffc000 |   0x7fffc000 |   0x7fffc000 |   0x7fffc000 |   0x7fffc000 |   0x7fffc000 |   0x7fffc000 |   0x7fffc000 |   0x7fffc000 |   0x7fffc000 |   0x7fffc000 |   0x7fffc000 |   0x7fffc000 |   0x7fffc000 |   0x7fffc000 |   0x7fffc000 |   0x7fffc000 |   0x7fffc000 |   0x7fffc000 |   0x7fffc000 |   0x7fffc000 |   0x7fffc000 |   0x7fffc000 |   0x7fffc000 |   0x7fffc000 |   0x7fffc000 |   0x7fffc000 |   0x7fffc000 |   0x7fffc000 |   0x7fffc000 |   0x7fffc000 |   0x7fffc000 |   0x7fffc000 |   0x7fffc000 |   0x7fffc000 |   0x7fffc000 |   0x7fffc000 |
ld_stack_size                                16384 |        16384 |        16384 |        16384 |        16384 |        16384 |        16384 |        16384 |        16384 |        16384 |        16384 |        16384 |        16384 |        16384 |        16384 |        16384 |        16384 |        16384 |        16384 |        16384 |        16384 |        16384 |        16384 |        16384 |        16384 |        16384 |        16384 |        16384 |        16384 |        16384 |        16384 |        16384 |        16384 |        16384 |        16384 |        16384 |        16384 |        16384 |        16384 |        16384 |        16384 |        16384 |        16384 |        16384 |
ld_prog_entry                           0x00400140 |   0x00400140 |   0x00400140 |   0x00400140 |   0x00400140 |   0x00400140 |   0x00400140 |   0x00400140 |   0x00400140 |   0x00400140 |   0x00400140 |   0x00400140 |   0x00400140 |   0x00400140 |   0x00400140 |   0x00400140 |   0x00400140 |   0x00400140 |   0x00400140 |   0x00400140 |   0x00400140 |   0x00400140 |   0x00400140 |   0x00400140 |   0x00400140 |   0x00400140 |   0x00400140 |   0x00400140 |   0x00400140 |   0x00400140 |   0x00400140 |   0x00400140 |   0x00400140 |   0x00400140 |   0x00400140 |   0x00400140 |   0x00400140 |   0x00400140 |   0x00400140 |   0x00400140 |   0x00400140 |   0x00400140 |   0x00400140 |   0x00400140 |
ld_environ_base                         0x7fff8000 |   0x7fff8000 |   0x7fff8000 |   0x7fff8000 |   0x7fff8000 |   0x7fff8000 |   0x7fff8000 |   0x7fff8000 |   0x7fff8000 |   0x7fff8000 |   0x7fff8000 |   0x7fff8000 |   0x7fff8000 |   0x7fff8000 |   0x7fff8000 |   0x7fff8000 |   0x7fff8000 |   0x7fff8000 |   0x7fff8000 |   0x7fff8000 |   0x7fff8000 |   0x7fff8000 |   0x7fff8000 |   0x7fff8000 |   0x7fff8000 |   0x7fff8000 |   0x7fff8000 |   0x7fff8000 |   0x7fff8000 |   0x7fff8000 |   0x7fff8000 |   0x7fff8000 |   0x7fff8000 |   0x7fff8000 |   0x7fff8000 |   0x7fff8000 |   0x7fff8000 |   0x7fff8000 |   0x7fff8000 |   0x7fff8000 |   0x7fff8000 |   0x7fff8000 |   0x7fff8000 |   0x7fff8000 |
ld_target_big_endian                             0 |            0 |            0 |            0 |            0 |            0 |            0 |            0 |            0 |            0 |            0 |            0 |            0 |            0 |            0 |            0 |            0 |            0 |            0 |            0 |            0 |            0 |            0 |            0 |            0 |            0 |            0 |            0 |            0 |            0 |            0 |            0 |            0 |            0 |            0 |            0 |            0 |            0 |            0 |            0 |            0 |            0 |            0 |            0 |
mem.page_count                                  30 |           30 |           30 |           30 |           34 |           34 |           34 |           34 |           42 |           42 |           42 |           42 |           58 |           58 |           58 |           58 |           90 |           90 |           90 |           90 |          154 |          154 |          154 |          154 |          282 |          282 |          282 |          282 |          538 |          538 |          538 |          538 |         1050 |         1050 |         1050 |         1050 |         2074 |         2074 |         2074 |         2074 |         4122 |         4122 |         4122 |         4122 |
mem.page_mem                                  120k |         120k |         120k |         120k |         136k |         136k |         136k |         136k |         168k |         168k |         168k |         168k |         232k |         232k |         232k |         232k |         360k |         360k |         360k |         360k |         616k |         616k |         616k |         616k |        1128k |        1128k |        1128k |        1128k |        2152k |        2152k |        2152k |        2152k |        4200k |        4200k |        4200k |        4200k |        8296k |        8296k |        8296k |        8296k |       16488k |       16488k |       16488k |       16488k |
mem.ptab_misses                                 30 |           30 |           30 |           30 |           34 |           34 |           34 |           34 |           42 |           42 |           42 |           42 |           58 |           58 |           58 |           58 |           90 |           90 |           90 |           90 |          154 |          154 |          154 |          154 |          282 |          282 |          282 |          282 |          538 |          538 |          538 |          538 |         1050 |         1050 |         1050 |         1050 |         2074 |         2074 |         2074 |         2074 |         4122 |         4122 |         4122 |         4122 |
mem.ptab_accesses                          2598850 |      2598850 |      2598850 |      2598850 |      5128802 |      5128802 |      5128802 |      5128802 |     10358096 |     10358096 |     10358096 |     10358096 |     21757146 |     21757146 |     21757146 |     21757146 |     46032644 |     46032644 |     46032644 |     46032644 |     95051602 |     95051602 |     95051602 |     95051602 |    205065106 |    205065106 |    205065106 |    205065106 |    427938058 |    427938058 |    427938058 |    427938058 |    909034506 |    909034506 |    909034506 |    909034506 |   1881670574 |   1881670574 |   1881670574 |   1881670574 |   3906445036 |   3906445036 |   3906445036 |   3906445036 |
mem.ptab_miss_rate                          0.0000 |       0.0000 |       0.0000 |       0.0000 |       0.0000 |       0.0000 |       0.0000 |       0.0000 |       0.0000 |       0.0000 |       0.0000 |       0.0000 |       0.0000 |       0.0000 |       0.0000 |       0.0000 |       0.0000 |       0.0000 |       0.0000 |       0.0000 |       0.0000 |       0.0000 |       0.0000 |       0.0000 |       0.0000 |       0.0000 |       0.0000 |       0.0000 |       0.0000 |       0.0000 |       0.0000 |       0.0000 |       0.0000 |       0.0000 |       0.0000 |       0.0000 |       0.0000 |       0.0000 |       0.0000 |       0.0000 |       0.0000 |       0.0000 |       0.0000 |       0.0000 |
-------------------------------------------------------------------------------------------------
sim-bpred                                     4096 |         4096 |         4096 |         4096 |         4096 |         4096 |         4096 |         8192 |         8192 |         8192 |         8192 |         8192 |         8192 |         8192 |        16384 |        16384 |        16384 |        16384 |        16384 |        16384 |        16384 |        32768 |        32768 |        32768 |        32768 |        32768 |        32768 |        32768 |        65536 |        65536 |        65536 |        65536 |        65536 |        65536 |        65536 |       131072 |       131072 |       131072 |       131072 |       131072 |       131072 |       131072 |       262144 |       262144 |       262144 |       262144 |       262144 |       262144 |       262144 |       524288 |       524288 |       524288 |       524288 |       524288 |       524288 |       524288 |      1048576 |      1048576 |      1048576 |      1048576 |      1048576 |      1048576 |      1048576 |      2097152 |      2097152 |      2097152 |      2097152 |      2097152 |      2097152 |      2097152 |      4194304 |      4194304 |      4194304 |      4194304 |      4194304 |      4194304 |      4194304 |
-bpred bimod -bpred:bimod 512
-bpred bimod -bpred:bimod 1024
-bpred bimod -bpred:bimod 2048
-bpred 2lev -bpred:2lev 1 512 10 1
-bpred 2lev -bpred:2lev 1 1024 10 1
-bpred 2lev -bpred:2lev 1 2048 10 1
-bpred 2lev -bpred:2lev 1 4096 10 1
-------------------------------------------------------------------------------------------------
sim_num_insn                                465535 |       465535 |       465535 |       465535 |       465535 |       465535 |       465535 |      1019293 |      1019293 |      1019293 |      1019293 |      1019293 |      1019293 |      1019293 |      2163416 |      2163416 |      2163416 |      2163416 |      2163416 |      2163416 |      2163416 |      4665927 |      4665927 |      4665927 |      4665927 |      4665927 |      4665927 |      4665927 |      9999612 |      9999612 |      9999612 |      9999612 |      9999612 |      9999612 |      9999612 |     20755945 |     20755945 |     20755945 |     20755945 |     20755945 |     20755945 |     20755945 |     45012399 |     45012399 |     45012399 |     45012399 |     45012399 |     45012399 |     45012399 |     94080587 |     94080587 |     94080587 |     94080587 |     94080587 |     94080587 |     94080587 |    200284461 |    200284461 |    200284461 |    200284461 |    200284461 |    200284461 |    200284461 |    414740686 |    414740686 |    414740686 |    414740686 |    414740686 |    414740686 |    414740686 |    861347271 |    861347271 |    861347271 |    861347271 |    861347271 |    861347271 |    861347271 |
sim_num_refs                                124211 |       124211 |       124211 |       124211 |       124211 |       124211 |       124211 |       265191 |       265191 |       265191 |       265191 |       265191 |       265191 |       265191 |       558776 |       558776 |       558776 |       558776 |       558776 |       558776 |       558776 |      1187743 |      1187743 |      1187743 |      1187743 |      1187743 |      1187743 |      1187743 |      2527050 |      2527050 |      2527050 |      2527050 |      2527050 |      2527050 |      2527050 |      5261671 |      5261671 |      5261671 |      5261671 |      5261671 |      5261671 |      5261671 |     11231227 |     11231227 |     11231227 |     11231227 |     11231227 |     11231227 |     11231227 |     23482751 |     23482751 |     23482751 |     23482751 |     23482751 |     23482751 |     23482751 |     49526075 |     49526075 |     49526075 |     49526075 |     49526075 |     49526075 |     49526075 |    102737355 |    102737355 |    102737355 |    102737355 |    102737355 |    102737355 |    102737355 |    213522808 |    213522808 |    213522808 |    213522808 |    213522808 |    213522808 |    213522808 |
sim_elapsed_time                                 1 |            1 |            1 |            1 |            1 |            1 |            1 |            1 |            1 |            1 |            1 |            1 |            1 |            1 |            1 |            1 |            1 |            1 |            1 |            1 |            1 |            1 |            1 |            1 |            1 |            1 |            1 |            1 |            1 |            1 |            1 |            1 |            2 |            1 |            1 |            2 |            3 |            2 |            3 |            2 |            2 |            3 |            5 |            5 |            5 |            5 |            6 |            5 |            5 |           10 |           11 |           11 |           11 |           10 |           11 |           11 |           23 |           23 |           22 |           24 |           23 |           23 |           23 |           47 |           47 |           47 |           48 |           48 |           48 |           48 |           98 |           98 |           98 |           99 |           99 |          100 |           99 |
sim_inst_rate                          465535.0000 |  465535.0000 |  465535.0000 |  465535.0000 |  465535.0000 |  465535.0000 |  465535.0000 | 1019293.0000 | 1019293.0000 | 1019293.0000 | 1019293.0000 | 1019293.0000 | 1019293.0000 | 1019293.0000 | 2163416.0000 | 2163416.0000 | 2163416.0000 | 2163416.0000 | 2163416.0000 | 2163416.0000 | 2163416.0000 | 4665927.0000 | 4665927.0000 | 4665927.0000 | 4665927.0000 | 4665927.0000 | 4665927.0000 | 4665927.0000 | 9999612.0000 | 9999612.0000 | 9999612.0000 | 9999612.0000 | 4999806.0000 | 9999612.0000 | 9999612.0000 |10377972.5000 | 6918648.3333 |10377972.5000 | 6918648.3333 |10377972.5000 |10377972.5000 | 6918648.3333 | 9002479.8000 | 9002479.8000 | 9002479.8000 | 9002479.8000 | 7502066.5000 | 9002479.8000 | 9002479.8000 | 9408058.7000 | 8552780.6364 | 8552780.6364 | 8552780.6364 | 9408058.7000 | 8552780.6364 | 8552780.6364 | 8708020.0435 | 8708020.0435 | 9103839.1364 | 8345185.8750 | 8708020.0435 | 8708020.0435 | 8708020.0435 | 8824269.9149 | 8824269.9149 | 8824269.9149 | 8640430.9583 | 8640430.9583 | 8640430.9583 | 8640430.9583 | 8789257.8673 | 8789257.8673 | 8789257.8673 | 8700477.4848 | 8700477.4848 | 8613472.7100 | 8700477.4848 |
sim_num_branches                             75862 |        75862 |        75862 |        75862 |        75862 |        75862 |        75862 |       167315 |       167315 |       167315 |       167315 |       167315 |       167315 |       167315 |       358508 |       358508 |       358508 |       358508 |       358508 |       358508 |       358508 |       776754 |       776754 |       776754 |       776754 |       776754 |       776754 |       776754 |      1674646 |      1674646 |      1674646 |      1674646 |      1674646 |      1674646 |      1674646 |      3485150 |      3485150 |      3485150 |      3485150 |      3485150 |      3485150 |      3485150 |      7583923 |      7583923 |      7583923 |      7583923 |      7583923 |      7583923 |      7583923 |     15920636 |     15920636 |     15920636 |     15920636 |     15920636 |     15920636 |     15920636 |     33956681 |     33956681 |     33956681 |     33956681 |     33956681 |     33956681 |     33956681 |     70532896 |     70532896 |     70532896 |     70532896 |     70532896 |     70532896 |     70532896 |    146931172 |    146931172 |    146931172 |    146931172 |    146931172 |    146931172 |    146931172 |
sim_IPB                                     6.1366 |       6.1366 |       6.1366 |       6.1366 |       6.1366 |       6.1366 |       6.1366 |       6.0921 |       6.0921 |       6.0921 |       6.0921 |       6.0921 |       6.0921 |       6.0921 |       6.0345 |       6.0345 |       6.0345 |       6.0345 |       6.0345 |       6.0345 |       6.0345 |       6.0070 |       6.0070 |       6.0070 |       6.0070 |       6.0070 |       6.0070 |       6.0070 |       5.9712 |       5.9712 |       5.9712 |       5.9712 |       5.9712 |       5.9712 |       5.9712 |       5.9555 |       5.9555 |       5.9555 |       5.9555 |       5.9555 |       5.9555 |       5.9555 |       5.9352 |       5.9352 |       5.9352 |       5.9352 |       5.9352 |       5.9352 |       5.9352 |       5.9093 |       5.9093 |       5.9093 |       5.9093 |       5.9093 |       5.9093 |       5.9093 |       5.8982 |       5.8982 |       5.8982 |       5.8982 |       5.8982 |       5.8982 |       5.8982 |       5.8801 |       5.8801 |       5.8801 |       5.8801 |       5.8801 |       5.8801 |       5.8801 |       5.8623 |       5.8623 |       5.8623 |       5.8623 |       5.8623 |       5.8623 |       5.8623 |
bpred_bimod.lookups                          75862 |        75862 |        75862 |xxxxxxxxxxxxx |xxxxxxxxxxxxx |xxxxxxxxxxxxx |xxxxxxxxxxxxx |       167315 |       167315 |       167315 |xxxxxxxxxxxxx |xxxxxxxxxxxxx |xxxxxxxxxxxxx |xxxxxxxxxxxxx |       358508 |       358508 |       358508 |xxxxxxxxxxxxx |xxxxxxxxxxxxx |xxxxxxxxxxxxx |xxxxxxxxxxxxx |       776754 |       776754 |       776754 |xxxxxxxxxxxxx |xxxxxxxxxxxxx |xxxxxxxxxxxxx |xxxxxxxxxxxxx |      1674646 |      1674646 |      1674646 |xxxxxxxxxxxxx |xxxxxxxxxxxxx |xxxxxxxxxxxxx |xxxxxxxxxxxxx |      3485150 |      3485150 |      3485150 |xxxxxxxxxxxxx |xxxxxxxxxxxxx |xxxxxxxxxxxxx |xxxxxxxxxxxxx |      7583923 |      7583923 |      7583923 |xxxxxxxxxxxxx |xxxxxxxxxxxxx |xxxxxxxxxxxxx |xxxxxxxxxxxxx |     15920636 |     15920636 |     15920636 |xxxxxxxxxxxxx |xxxxxxxxxxxxx |xxxxxxxxxxxxx |xxxxxxxxxxxxx |     33956681 |     33956681 |     33956681 |xxxxxxxxxxxxx |xxxxxxxxxxxxx |xxxxxxxxxxxxx |xxxxxxxxxxxxx |     70532896 |     70532896 |     70532896 |xxxxxxxxxxxxx |xxxxxxxxxxxxx |xxxxxxxxxxxxx |xxxxxxxxxxxxx |    146931172 |    146931172 |    146931172 |
bpred_bimod.updates                          75862 |        75862 |        75862 |xxxxxxxxxxxxx |xxxxxxxxxxxxx |xxxxxxxxxxxxx |xxxxxxxxxxxxx |       167315 |       167315 |       167315 |xxxxxxxxxxxxx |xxxxxxxxxxxxx |xxxxxxxxxxxxx |xxxxxxxxxxxxx |       358508 |       358508 |       358508 |xxxxxxxxxxxxx |xxxxxxxxxxxxx |xxxxxxxxxxxxx |xxxxxxxxxxxxx |       776754 |       776754 |       776754 |xxxxxxxxxxxxx |xxxxxxxxxxxxx |xxxxxxxxxxxxx |xxxxxxxxxxxxx |      1674646 |      1674646 |      1674646 |xxxxxxxxxxxxx |xxxxxxxxxxxxx |xxxxxxxxxxxxx |xxxxxxxxxxxxx |      3485150 |      3485150 |      3485150 |xxxxxxxxxxxxx |xxxxxxxxxxxxx |xxxxxxxxxxxxx |xxxxxxxxxxxxx |      7583923 |      7583923 |      7583923 |xxxxxxxxxxxxx |xxxxxxxxxxxxx |xxxxxxxxxxxxx |xxxxxxxxxxxxx |     15920636 |     15920636 |     15920636 |xxxxxxxxxxxxx |xxxxxxxxxxxxx |xxxxxxxxxxxxx |xxxxxxxxxxxxx |     33956681 |     33956681 |     33956681 |xxxxxxxxxxxxx |xxxxxxxxxxxxx |xxxxxxxxxxxxx |xxxxxxxxxxxxx |     70532896 |     70532896 |     70532896 |xxxxxxxxxxxxx |xxxxxxxxxxxxx |xxxxxxxxxxxxx |xxxxxxxxxxxxx |    146931172 |    146931172 |    146931172 |
bpred_bimod.addr_hits                        53711 |        53711 |        53713 |xxxxxxxxxxxxx |xxxxxxxxxxxxx |xxxxxxxxxxxxx |xxxxxxxxxxxxx |       120091 |       120091 |       120094 |xxxxxxxxxxxxx |xxxxxxxxxxxxx |xxxxxxxxxxxxx |xxxxxxxxxxxxx |       257937 |       257937 |       257939 |xxxxxxxxxxxxx |xxxxxxxxxxxxx |xxxxxxxxxxxxx |xxxxxxxxxxxxx |       565678 |       565680 |       565682 |xxxxxxxxxxxxx |xxxxxxxxxxxxx |xxxxxxxxxxxxx |xxxxxxxxxxxxx |      1215617 |      1215620 |      1215622 |xxxxxxxxxxxxx |xxxxxxxxxxxxx |xxxxxxxxxxxxx |xxxxxxxxxxxxx |      2494275 |      2494276 |      2494277 |xxxxxxxxxxxxx |xxxxxxxxxxxxx |xxxxxxxxxxxxx |xxxxxxxxxxxxx |      5563525 |      5563527 |      5563529 |xxxxxxxxxxxxx |xxxxxxxxxxxxx |xxxxxxxxxxxxx |xxxxxxxxxxxxx |     11581035 |     11581037 |     11581037 |xxxxxxxxxxxxx |xxxxxxxxxxxxx |xxxxxxxxxxxxx |xxxxxxxxxxxxx |     24988858 |     24988860 |     24988859 |xxxxxxxxxxxxx |xxxxxxxxxxxxx |xxxxxxxxxxxxx |xxxxxxxxxxxxx |     51616148 |     51616150 |     51616150 |xxxxxxxxxxxxx |xxxxxxxxxxxxx |xxxxxxxxxxxxx |xxxxxxxxxxxxx |    106753332 |    106753334 |    106753333 |
bpred_bimod.dir_hits                         53821 |        53817 |        53819 |xxxxxxxxxxxxx |xxxxxxxxxxxxx |xxxxxxxxxxxxx |xxxxxxxxxxxxx |       120201 |       120199 |       120201 |xxxxxxxxxxxxx |xxxxxxxxxxxxx |xxxxxxxxxxxxx |xxxxxxxxxxxxx |       258050 |       258046 |       258047 |xxxxxxxxxxxxx |xxxxxxxxxxxxx |xxxxxxxxxxxxx |xxxxxxxxxxxxx |       565792 |       565789 |       565791 |xxxxxxxxxxxxx |xxxxxxxxxxxxx |xxxxxxxxxxxxx |xxxxxxxxxxxxx |      1215730 |      1215729 |      1215731 |xxxxxxxxxxxxx |xxxxxxxxxxxxx |xxxxxxxxxxxxx |xxxxxxxxxxxxx |      2494388 |      2494385 |      2494385 |xxxxxxxxxxxxx |xxxxxxxxxxxxx |xxxxxxxxxxxxx |xxxxxxxxxxxxx |      5563637 |      5563636 |      5563637 |xxxxxxxxxxxxx |xxxxxxxxxxxxx |xxxxxxxxxxxxx |xxxxxxxxxxxxx |     11581148 |     11581147 |     11581146 |xxxxxxxxxxxxx |xxxxxxxxxxxxx |xxxxxxxxxxxxx |xxxxxxxxxxxxx |     24988970 |     24988969 |     24988967 |xxxxxxxxxxxxx |xxxxxxxxxxxxx |xxxxxxxxxxxxx |xxxxxxxxxxxxx |     51616258 |     51616257 |     51616256 |xxxxxxxxxxxxx |xxxxxxxxxxxxx |xxxxxxxxxxxxx |xxxxxxxxxxxxx |    106753445 |    106753443 |    106753441 |
bpred_bimod.misses                           22041 |        22045 |        22043 |xxxxxxxxxxxxx |xxxxxxxxxxxxx |xxxxxxxxxxxxx |xxxxxxxxxxxxx |        47114 |        47116 |        47114 |xxxxxxxxxxxxx |xxxxxxxxxxxxx |xxxxxxxxxxxxx |xxxxxxxxxxxxx |       100458 |       100462 |       100461 |xxxxxxxxxxxxx |xxxxxxxxxxxxx |xxxxxxxxxxxxx |xxxxxxxxxxxxx |       210962 |       210965 |       210963 |xxxxxxxxxxxxx |xxxxxxxxxxxxx |xxxxxxxxxxxxx |xxxxxxxxxxxxx |       458916 |       458917 |       458915 |xxxxxxxxxxxxx |xxxxxxxxxxxxx |xxxxxxxxxxxxx |xxxxxxxxxxxxx |       990762 |       990765 |       990765 |xxxxxxxxxxxxx |xxxxxxxxxxxxx |xxxxxxxxxxxxx |xxxxxxxxxxxxx |      2020286 |      2020287 |      2020286 |xxxxxxxxxxxxx |xxxxxxxxxxxxx |xxxxxxxxxxxxx |xxxxxxxxxxxxx |      4339488 |      4339489 |      4339490 |xxxxxxxxxxxxx |xxxxxxxxxxxxx |xxxxxxxxxxxxx |xxxxxxxxxxxxx |      8967711 |      8967712 |      8967714 |xxxxxxxxxxxxx |xxxxxxxxxxxxx |xxxxxxxxxxxxx |xxxxxxxxxxxxx |     18916638 |     18916639 |     18916640 |xxxxxxxxxxxxx |xxxxxxxxxxxxx |xxxxxxxxxxxxx |xxxxxxxxxxxxx |     40177727 |     40177729 |     40177731 |
bpred_bimod.jr_hits                             64 |           64 |           64 |xxxxxxxxxxxxx |xxxxxxxxxxxxx |xxxxxxxxxxxxx |xxxxxxxxxxxxx |           64 |           64 |           64 |xxxxxxxxxxxxx |xxxxxxxxxxxxx |xxxxxxxxxxxxx |xxxxxxxxxxxxx |           64 |           64 |           64 |xxxxxxxxxxxxx |xxxxxxxxxxxxx |xxxxxxxxxxxxx |xxxxxxxxxxxxx |           64 |           64 |           64 |xxxxxxxxxxxxx |xxxxxxxxxxxxx |xxxxxxxxxxxxx |xxxxxxxxxxxxx |           64 |           64 |           64 |xxxxxxxxxxxxx |xxxxxxxxxxxxx |xxxxxxxxxxxxx |xxxxxxxxxxxxx |           64 |           64 |           64 |xxxxxxxxxxxxx |xxxxxxxxxxxxx |xxxxxxxxxxxxx |xxxxxxxxxxxxx |           64 |           64 |           64 |xxxxxxxxxxxxx |xxxxxxxxxxxxx |xxxxxxxxxxxxx |xxxxxxxxxxxxx |           64 |           64 |           64 |xxxxxxxxxxxxx |xxxxxxxxxxxxx |xxxxxxxxxxxxx |xxxxxxxxxxxxx |           64 |           64 |           64 |xxxxxxxxxxxxx |xxxxxxxxxxxxx |xxxxxxxxxxxxx |xxxxxxxxxxxxx |           64 |           64 |           64 |xxxxxxxxxxxxx |xxxxxxxxxxxxx |xxxxxxxxxxxxx |xxxxxxxxxxxxx |           64 |           64 |           64 |
bpred_bimod.jr_seen                             64 |           64 |           64 |xxxxxxxxxxxxx |xxxxxxxxxxxxx |xxxxxxxxxxxxx |xxxxxxxxxxxxx |           64 |           64 |           64 |xxxxxxxxxxxxx |xxxxxxxxxxxxx |xxxxxxxxxxxxx |xxxxxxxxxxxxx |           64 |           64 |           64 |xxxxxxxxxxxxx |xxxxxxxxxxxxx |xxxxxxxxxxxxx |xxxxxxxxxxxxx |           64 |           64 |           64 |xxxxxxxxxxxxx |xxxxxxxxxxxxx |xxxxxxxxxxxxx |xxxxxxxxxxxxx |           64 |           64 |           64 |xxxxxxxxxxxxx |xxxxxxxxxxxxx |xxxxxxxxxxxxx |xxxxxxxxxxxxx |           64 |           64 |           64 |xxxxxxxxxxxxx |xxxxxxxxxxxxx |xxxxxxxxxxxxx |xxxxxxxxxxxxx |           64 |           64 |           64 |xxxxxxxxxxxxx |xxxxxxxxxxxxx |xxxxxxxxxxxxx |xxxxxxxxxxxxx |           64 |           64 |           64 |xxxxxxxxxxxxx |xxxxxxxxxxxxx |xxxxxxxxxxxxx |xxxxxxxxxxxxx |           64 |           64 |           64 |xxxxxxxxxxxxx |xxxxxxxxxxxxx |xxxxxxxxxxxxx |xxxxxxxxxxxxx |           64 |           64 |           64 |xxxxxxxxxxxxx |xxxxxxxxxxxxx |xxxxxxxxxxxxx |xxxxxxxxxxxxx |           64 |           64 |           64 |
bpred_bimod.jr_non_ras_hits.PP                   0 |            0 |            0 |xxxxxxxxxxxxx |xxxxxxxxxxxxx |xxxxxxxxxxxxx |xxxxxxxxxxxxx |            0 |            0 |            0 |xxxxxxxxxxxxx |xxxxxxxxxxxxx |xxxxxxxxxxxxx |xxxxxxxxxxxxx |            0 |            0 |            0 |xxxxxxxxxxxxx |xxxxxxxxxxxxx |xxxxxxxxxxxxx |xxxxxxxxxxxxx |            0 |            0 |            0 |xxxxxxxxxxxxx |xxxxxxxxxxxxx |xxxxxxxxxxxxx |xxxxxxxxxxxxx |            0 |            0 |            0 |xxxxxxxxxxxxx |xxxxxxxxxxxxx |xxxxxxxxxxxxx |xxxxxxxxxxxxx |            0 |            0 |            0 |xxxxxxxxxxxxx |xxxxxxxxxxxxx |xxxxxxxxxxxxx |xxxxxxxxxxxxx |            0 |            0 |            0 |xxxxxxxxxxxxx |xxxxxxxxxxxxx |xxxxxxxxxxxxx |xxxxxxxxxxxxx |            0 |            0 |            0 |xxxxxxxxxxxxx |xxxxxxxxxxxxx |xxxxxxxxxxxxx |xxxxxxxxxxxxx |            0 |            0 |            0 |xxxxxxxxxxxxx |xxxxxxxxxxxxx |xxxxxxxxxxxxx |xxxxxxxxxxxxx |            0 |            0 |            0 |xxxxxxxxxxxxx |xxxxxxxxxxxxx |xxxxxxxxxxxxx |xxxxxxxxxxxxx |            0 |            0 |            0 |
bpred_bimod.jr_non_ras_seen.PP                   0 |            0 |            0 |xxxxxxxxxxxxx |xxxxxxxxxxxxx |xxxxxxxxxxxxx |xxxxxxxxxxxxx |            0 |            0 |            0 |xxxxxxxxxxxxx |xxxxxxxxxxxxx |xxxxxxxxxxxxx |xxxxxxxxxxxxx |            0 |            0 |            0 |xxxxxxxxxxxxx |xxxxxxxxxxxxx |xxxxxxxxxxxxx |xxxxxxxxxxxxx |            0 |            0 |            0 |xxxxxxxxxxxxx |xxxxxxxxxxxxx |xxxxxxxxxxxxx |xxxxxxxxxxxxx |            0 |            0 |            0 |xxxxxxxxxxxxx |xxxxxxxxxxxxx |xxxxxxxxxxxxx |xxxxxxxxxxxxx |            0 |            0 |            0 |xxxxxxxxxxxxx |xxxxxxxxxxxxx |xxxxxxxxxxxxx |xxxxxxxxxxxxx |            0 |            0 |            0 |xxxxxxxxxxxxx |xxxxxxxxxxxxx |xxxxxxxxxxxxx |xxxxxxxxxxxxx |            0 |            0 |            0 |xxxxxxxxxxxxx |xxxxxxxxxxxxx |xxxxxxxxxxxxx |xxxxxxxxxxxxx |            0 |            0 |            0 |xxxxxxxxxxxxx |xxxxxxxxxxxxx |xxxxxxxxxxxxx |xxxxxxxxxxxxx |            0 |            0 |            0 |xxxxxxxxxxxxx |xxxxxxxxxxxxx |xxxxxxxxxxxxx |xxxxxxxxxxxxx |            0 |            0 |            0 |
bpred_bimod.bpred_addr_rate                 0.7080 |       0.7080 |       0.7080 |xxxxxxxxxxxxx |xxxxxxxxxxxxx |xxxxxxxxxxxxx |xxxxxxxxxxxxx |       0.7178 |       0.7178 |       0.7178 |xxxxxxxxxxxxx |xxxxxxxxxxxxx |xxxxxxxxxxxxx |xxxxxxxxxxxxx |       0.7195 |       0.7195 |       0.7195 |xxxxxxxxxxxxx |xxxxxxxxxxxxx |xxxxxxxxxxxxx |xxxxxxxxxxxxx |       0.7283 |       0.7283 |       0.7283 |xxxxxxxxxxxxx |xxxxxxxxxxxxx |xxxxxxxxxxxxx |xxxxxxxxxxxxx |       0.7259 |       0.7259 |       0.7259 |xxxxxxxxxxxxx |xxxxxxxxxxxxx |xxxxxxxxxxxxx |xxxxxxxxxxxxx |       0.7157 |       0.7157 |       0.7157 |xxxxxxxxxxxxx |xxxxxxxxxxxxx |xxxxxxxxxxxxx |xxxxxxxxxxxxx |       0.7336 |       0.7336 |       0.7336 |xxxxxxxxxxxxx |xxxxxxxxxxxxx |xxxxxxxxxxxxx |xxxxxxxxxxxxx |       0.7274 |       0.7274 |       0.7274 |xxxxxxxxxxxxx |xxxxxxxxxxxxx |xxxxxxxxxxxxx |xxxxxxxxxxxxx |       0.7359 |       0.7359 |       0.7359 |xxxxxxxxxxxxx |xxxxxxxxxxxxx |xxxxxxxxxxxxx |xxxxxxxxxxxxx |       0.7318 |       0.7318 |       0.7318 |xxxxxxxxxxxxx |xxxxxxxxxxxxx |xxxxxxxxxxxxx |xxxxxxxxxxxxx |       0.7266 |       0.7266 |       0.7266 |
bpred_bimod.bpred_dir_rate                  0.7095 |       0.7094 |       0.7094 |xxxxxxxxxxxxx |xxxxxxxxxxxxx |xxxxxxxxxxxxx |xxxxxxxxxxxxx |       0.7184 |       0.7184 |       0.7184 |xxxxxxxxxxxxx |xxxxxxxxxxxxx |xxxxxxxxxxxxx |xxxxxxxxxxxxx |       0.7198 |       0.7198 |       0.7198 |xxxxxxxxxxxxx |xxxxxxxxxxxxx |xxxxxxxxxxxxx |xxxxxxxxxxxxx |       0.7284 |       0.7284 |       0.7284 |xxxxxxxxxxxxx |xxxxxxxxxxxxx |xxxxxxxxxxxxx |xxxxxxxxxxxxx |       0.7260 |       0.7260 |       0.7260 |xxxxxxxxxxxxx |xxxxxxxxxxxxx |xxxxxxxxxxxxx |xxxxxxxxxxxxx |       0.7157 |       0.7157 |       0.7157 |xxxxxxxxxxxxx |xxxxxxxxxxxxx |xxxxxxxxxxxxx |xxxxxxxxxxxxx |       0.7336 |       0.7336 |       0.7336 |xxxxxxxxxxxxx |xxxxxxxxxxxxx |xxxxxxxxxxxxx |xxxxxxxxxxxxx |       0.7274 |       0.7274 |       0.7274 |xxxxxxxxxxxxx |xxxxxxxxxxxxx |xxxxxxxxxxxxx |xxxxxxxxxxxxx |       0.7359 |       0.7359 |       0.7359 |xxxxxxxxxxxxx |xxxxxxxxxxxxx |xxxxxxxxxxxxx |xxxxxxxxxxxxx |       0.7318 |       0.7318 |       0.7318 |xxxxxxxxxxxxx |xxxxxxxxxxxxx |xxxxxxxxxxxxx |xxxxxxxxxxxxx |       0.7266 |       0.7266 |       0.7266 |
bpred_bimod.bpred_jr_rate                   1.0000 |       1.0000 |       1.0000 |xxxxxxxxxxxxx |xxxxxxxxxxxxx |xxxxxxxxxxxxx |xxxxxxxxxxxxx |       1.0000 |       1.0000 |       1.0000 |xxxxxxxxxxxxx |xxxxxxxxxxxxx |xxxxxxxxxxxxx |xxxxxxxxxxxxx |       1.0000 |       1.0000 |       1.0000 |xxxxxxxxxxxxx |xxxxxxxxxxxxx |xxxxxxxxxxxxx |xxxxxxxxxxxxx |       1.0000 |       1.0000 |       1.0000 |xxxxxxxxxxxxx |xxxxxxxxxxxxx |xxxxxxxxxxxxx |xxxxxxxxxxxxx |       1.0000 |       1.0000 |       1.0000 |xxxxxxxxxxxxx |xxxxxxxxxxxxx |xxxxxxxxxxxxx |xxxxxxxxxxxxx |       1.0000 |       1.0000 |       1.0000 |xxxxxxxxxxxxx |xxxxxxxxxxxxx |xxxxxxxxxxxxx |xxxxxxxxxxxxx |       1.0000 |       1.0000 |       1.0000 |xxxxxxxxxxxxx |xxxxxxxxxxxxx |xxxxxxxxxxxxx |xxxxxxxxxxxxx |       1.0000 |       1.0000 |       1.0000 |xxxxxxxxxxxxx |xxxxxxxxxxxxx |xxxxxxxxxxxxx |xxxxxxxxxxxxx |       1.0000 |       1.0000 |       1.0000 |xxxxxxxxxxxxx |xxxxxxxxxxxxx |xxxxxxxxxxxxx |xxxxxxxxxxxxx |       1.0000 |       1.0000 |       1.0000 |xxxxxxxxxxxxx |xxxxxxxxxxxxx |xxxxxxxxxxxxx |xxxxxxxxxxxxx |       1.0000 |       1.0000 |       1.0000 |
bpred_bimod.bpred_jr_non_ras_rate.PP       <error: |      <error: |      <error: |xxxxxxxxxxxxx |xxxxxxxxxxxxx |xxxxxxxxxxxxx |xxxxxxxxxxxxx |      <error: |      <error: |      <error: |xxxxxxxxxxxxx |xxxxxxxxxxxxx |xxxxxxxxxxxxx |xxxxxxxxxxxxx |      <error: |      <error: |      <error: |xxxxxxxxxxxxx |xxxxxxxxxxxxx |xxxxxxxxxxxxx |xxxxxxxxxxxxx |      <error: |      <error: |      <error: |xxxxxxxxxxxxx |xxxxxxxxxxxxx |xxxxxxxxxxxxx |xxxxxxxxxxxxx |      <error: |      <error: |      <error: |xxxxxxxxxxxxx |xxxxxxxxxxxxx |xxxxxxxxxxxxx |xxxxxxxxxxxxx |      <error: |      <error: |      <error: |xxxxxxxxxxxxx |xxxxxxxxxxxxx |xxxxxxxxxxxxx |xxxxxxxxxxxxx |      <error: |      <error: |      <error: |xxxxxxxxxxxxx |xxxxxxxxxxxxx |xxxxxxxxxxxxx |xxxxxxxxxxxxx |      <error: |      <error: |      <error: |xxxxxxxxxxxxx |xxxxxxxxxxxxx |xxxxxxxxxxxxx |xxxxxxxxxxxxx |      <error: |      <error: |      <error: |xxxxxxxxxxxxx |xxxxxxxxxxxxx |xxxxxxxxxxxxx |xxxxxxxxxxxxx |      <error: |      <error: |      <error: |xxxxxxxxxxxxx |xxxxxxxxxxxxx |xxxxxxxxxxxxx |xxxxxxxxxxxxx |      <error: |      <error: |      <error: |
bpred_bimod.retstack_pushes                     66 |           66 |           66 |xxxxxxxxxxxxx |xxxxxxxxxxxxx |xxxxxxxxxxxxx |xxxxxxxxxxxxx |           66 |           66 |           66 |xxxxxxxxxxxxx |xxxxxxxxxxxxx |xxxxxxxxxxxxx |xxxxxxxxxxxxx |           66 |           66 |           66 |xxxxxxxxxxxxx |xxxxxxxxxxxxx |xxxxxxxxxxxxx |xxxxxxxxxxxxx |           66 |           66 |           66 |xxxxxxxxxxxxx |xxxxxxxxxxxxx |xxxxxxxxxxxxx |xxxxxxxxxxxxx |           66 |           66 |           66 |xxxxxxxxxxxxx |xxxxxxxxxxxxx |xxxxxxxxxxxxx |xxxxxxxxxxxxx |           66 |           66 |           66 |xxxxxxxxxxxxx |xxxxxxxxxxxxx |xxxxxxxxxxxxx |xxxxxxxxxxxxx |           66 |           66 |           66 |xxxxxxxxxxxxx |xxxxxxxxxxxxx |xxxxxxxxxxxxx |xxxxxxxxxxxxx |           66 |           66 |           66 |xxxxxxxxxxxxx |xxxxxxxxxxxxx |xxxxxxxxxxxxx |xxxxxxxxxxxxx |           66 |           66 |           66 |xxxxxxxxxxxxx |xxxxxxxxxxxxx |xxxxxxxxxxxxx |xxxxxxxxxxxxx |           66 |           66 |           66 |xxxxxxxxxxxxx |xxxxxxxxxxxxx |xxxxxxxxxxxxx |xxxxxxxxxxxxx |           66 |           66 |           66 |
bpred_bimod.retstack_pops                       64 |           64 |           64 |xxxxxxxxxxxxx |xxxxxxxxxxxxx |xxxxxxxxxxxxx |xxxxxxxxxxxxx |           64 |           64 |           64 |xxxxxxxxxxxxx |xxxxxxxxxxxxx |xxxxxxxxxxxxx |xxxxxxxxxxxxx |           64 |           64 |           64 |xxxxxxxxxxxxx |xxxxxxxxxxxxx |xxxxxxxxxxxxx |xxxxxxxxxxxxx |           64 |           64 |           64 |xxxxxxxxxxxxx |xxxxxxxxxxxxx |xxxxxxxxxxxxx |xxxxxxxxxxxxx |           64 |           64 |           64 |xxxxxxxxxxxxx |xxxxxxxxxxxxx |xxxxxxxxxxxxx |xxxxxxxxxxxxx |           64 |           64 |           64 |xxxxxxxxxxxxx |xxxxxxxxxxxxx |xxxxxxxxxxxxx |xxxxxxxxxxxxx |           64 |           64 |           64 |xxxxxxxxxxxxx |xxxxxxxxxxxxx |xxxxxxxxxxxxx |xxxxxxxxxxxxx |           64 |           64 |           64 |xxxxxxxxxxxxx |xxxxxxxxxxxxx |xxxxxxxxxxxxx |xxxxxxxxxxxxx |           64 |           64 |           64 |xxxxxxxxxxxxx |xxxxxxxxxxxxx |xxxxxxxxxxxxx |xxxxxxxxxxxxx |           64 |           64 |           64 |xxxxxxxxxxxxx |xxxxxxxxxxxxx |xxxxxxxxxxxxx |xxxxxxxxxxxxx |           64 |           64 |           64 |
bpred_bimod.used_ras.PP                         64 |           64 |           64 |xxxxxxxxxxxxx |xxxxxxxxxxxxx |xxxxxxxxxxxxx |xxxxxxxxxxxxx |           64 |           64 |           64 |xxxxxxxxxxxxx |xxxxxxxxxxxxx |xxxxxxxxxxxxx |xxxxxxxxxxxxx |           64 |           64 |           64 |xxxxxxxxxxxxx |xxxxxxxxxxxxx |xxxxxxxxxxxxx |xxxxxxxxxxxxx |           64 |           64 |           64 |xxxxxxxxxxxxx |xxxxxxxxxxxxx |xxxxxxxxxxxxx |xxxxxxxxxxxxx |           64 |           64 |           64 |xxxxxxxxxxxxx |xxxxxxxxxxxxx |xxxxxxxxxxxxx |xxxxxxxxxxxxx |           64 |           64 |           64 |xxxxxxxxxxxxx |xxxxxxxxxxxxx |xxxxxxxxxxxxx |xxxxxxxxxxxxx |           64 |           64 |           64 |xxxxxxxxxxxxx |xxxxxxxxxxxxx |xxxxxxxxxxxxx |xxxxxxxxxxxxx |           64 |           64 |           64 |xxxxxxxxxxxxx |xxxxxxxxxxxxx |xxxxxxxxxxxxx |xxxxxxxxxxxxx |           64 |           64 |           64 |xxxxxxxxxxxxx |xxxxxxxxxxxxx |xxxxxxxxxxxxx |xxxxxxxxxxxxx |           64 |           64 |           64 |xxxxxxxxxxxxx |xxxxxxxxxxxxx |xxxxxxxxxxxxx |xxxxxxxxxxxxx |           64 |           64 |           64 |
bpred_bimod.ras_hits.PP                         64 |           64 |           64 |xxxxxxxxxxxxx |xxxxxxxxxxxxx |xxxxxxxxxxxxx |xxxxxxxxxxxxx |           64 |           64 |           64 |xxxxxxxxxxxxx |xxxxxxxxxxxxx |xxxxxxxxxxxxx |xxxxxxxxxxxxx |           64 |           64 |           64 |xxxxxxxxxxxxx |xxxxxxxxxxxxx |xxxxxxxxxxxxx |xxxxxxxxxxxxx |           64 |           64 |           64 |xxxxxxxxxxxxx |xxxxxxxxxxxxx |xxxxxxxxxxxxx |xxxxxxxxxxxxx |           64 |           64 |           64 |xxxxxxxxxxxxx |xxxxxxxxxxxxx |xxxxxxxxxxxxx |xxxxxxxxxxxxx |           64 |           64 |           64 |xxxxxxxxxxxxx |xxxxxxxxxxxxx |xxxxxxxxxxxxx |xxxxxxxxxxxxx |           64 |           64 |           64 |xxxxxxxxxxxxx |xxxxxxxxxxxxx |xxxxxxxxxxxxx |xxxxxxxxxxxxx |           64 |           64 |           64 |xxxxxxxxxxxxx |xxxxxxxxxxxxx |xxxxxxxxxxxxx |xxxxxxxxxxxxx |           64 |           64 |           64 |xxxxxxxxxxxxx |xxxxxxxxxxxxx |xxxxxxxxxxxxx |xxxxxxxxxxxxx |           64 |           64 |           64 |xxxxxxxxxxxxx |xxxxxxxxxxxxx |xxxxxxxxxxxxx |xxxxxxxxxxxxx |           64 |           64 |           64 |
bpred_bimod.ras_rate.PP                     1.0000 |       1.0000 |       1.0000 |xxxxxxxxxxxxx |xxxxxxxxxxxxx |xxxxxxxxxxxxx |xxxxxxxxxxxxx |       1.0000 |       1.0000 |       1.0000 |xxxxxxxxxxxxx |xxxxxxxxxxxxx |xxxxxxxxxxxxx |xxxxxxxxxxxxx |       1.0000 |       1.0000 |       1.0000 |xxxxxxxxxxxxx |xxxxxxxxxxxxx |xxxxxxxxxxxxx |xxxxxxxxxxxxx |       1.0000 |       1.0000 |       1.0000 |xxxxxxxxxxxxx |xxxxxxxxxxxxx |xxxxxxxxxxxxx |xxxxxxxxxxxxx |       1.0000 |       1.0000 |       1.0000 |xxxxxxxxxxxxx |xxxxxxxxxxxxx |xxxxxxxxxxxxx |xxxxxxxxxxxxx |       1.0000 |       1.0000 |       1.0000 |xxxxxxxxxxxxx |xxxxxxxxxxxxx |xxxxxxxxxxxxx |xxxxxxxxxxxxx |       1.0000 |       1.0000 |       1.0000 |xxxxxxxxxxxxx |xxxxxxxxxxxxx |xxxxxxxxxxxxx |xxxxxxxxxxxxx |       1.0000 |       1.0000 |       1.0000 |xxxxxxxxxxxxx |xxxxxxxxxxxxx |xxxxxxxxxxxxx |xxxxxxxxxxxxx |       1.0000 |       1.0000 |       1.0000 |xxxxxxxxxxxxx |xxxxxxxxxxxxx |xxxxxxxxxxxxx |xxxxxxxxxxxxx |       1.0000 |       1.0000 |       1.0000 |xxxxxxxxxxxxx |xxxxxxxxxxxxx |xxxxxxxxxxxxx |xxxxxxxxxxxxx |       1.0000 |       1.0000 |       1.0000 |
bpred_2lev.lookups                   xxxxxxxxxxxxx |xxxxxxxxxxxxx |xxxxxxxxxxxxx |        75862 |        75862 |        75862 |        75862 |xxxxxxxxxxxxx |xxxxxxxxxxxxx |xxxxxxxxxxxxx |       167315 |       167315 |       167315 |       167315 |xxxxxxxxxxxxx |xxxxxxxxxxxxx |xxxxxxxxxxxxx |       358508 |       358508 |       358508 |       358508 |xxxxxxxxxxxxx |xxxxxxxxxxxxx |xxxxxxxxxxxxx |       776754 |       776754 |       776754 |       776754 |xxxxxxxxxxxxx |xxxxxxxxxxxxx |xxxxxxxxxxxxx |      1674646 |      1674646 |      1674646 |      1674646 |xxxxxxxxxxxxx |xxxxxxxxxxxxx |xxxxxxxxxxxxx |      3485150 |      3485150 |      3485150 |      3485150 |xxxxxxxxxxxxx |xxxxxxxxxxxxx |xxxxxxxxxxxxx |      7583923 |      7583923 |      7583923 |      7583923 |xxxxxxxxxxxxx |xxxxxxxxxxxxx |xxxxxxxxxxxxx |     15920636 |     15920636 |     15920636 |     15920636 |xxxxxxxxxxxxx |xxxxxxxxxxxxx |xxxxxxxxxxxxx |     33956681 |     33956681 |     33956681 |     33956681 |xxxxxxxxxxxxx |xxxxxxxxxxxxx |xxxxxxxxxxxxx |     70532896 |     70532896 |     70532896 |     70532896 |xxxxxxxxxxxxx |xxxxxxxxxxxxx |xxxxxxxxxxxxx |    146931172 |    146931172 |    146931172 |    146931172 |
[...]
bpred_2lev.retstack_pushes           xxxxxxxxxxxxx |xxxxxxxxxxxxx |xxxxxxxxxxxxx |           66 |           66 |           66 |           66 |xxxxxxxxxxxxx |xxxxxxxxxxxxx |xxxxxxxxxxxxx |           66 |           66 |           66 |           66 |xxxxxxxxxxxxx |xxxxxxxxxxxxx |xxxxxxxxxxxxx |           66 |           66 |           66 |           66 |xxxxxxxxxxxxx |xxxxxxxxxxxxx |xxxxxxxxxxxxx |           66 |           66 |           66 |           66 |xxxxxxxxxxxxx |xxxxxxxxxxxxx |xxxxxxxxxxxxx |           66 |           66 |           66 |           66 |xxxxxxxxxxxxx |xxxxxxxxxxxxx |xxxxxxxxxxxxx |           66 |           66 |           66 |           66 |xxxxxxxxxxxxx |xxxxxxxxxxxxx |xxxxxxxxxxxxx |           66 |           66 |           66 |           66 |xxxxxxxxxxxxx |xxxxxxxxxxxxx |xxxxxxxxxxxxx |           66 |           66 |           66 |           66 |xxxxxxxxxxxxx |xxxxxxxxxxxxx |xxxxxxxxxxxxx |           66 |           66 |           66 |           66 |xxxxxxxxxxxxx |xxxxxxxxxxxxx |xxxxxxxxxxxxx |           66 |           66 |           66 |           66 |xxxxxxxxxxxxx |xxxxxxxxxxxxx |xxxxxxxxxxxxx |           66 |           66 |           66 |           66 |
bpred_2lev.retstack_pops             xxxxxxxxxxxxx |xxxxxxxxxxxxx |xxxxxxxxxxxxx |           64 |           64 |           64 |           64 |xxxxxxxxxxxxx |xxxxxxxxxxxxx |xxxxxxxxxxxxx |           64 |           64 |           64 |           64 |xxxxxxxxxxxxx |xxxxxxxxxxxxx |xxxxxxxxxxxxx |           64 |           64 |           64 |           64 |xxxxxxxxxxxxx |xxxxxxxxxxxxx |xxxxxxxxxxxxx |           64 |           64 |           64 |           64 |xxxxxxxxxxxxx |xxxxxxxxxxxxx |xxxxxxxxxxxxx |           64 |           64 |           64 |           64 |xxxxxxxxxxxxx |xxxxxxxxxxxxx |xxxxxxxxxxxxx |           64 |           64 |           64 |           64 |xxxxxxxxxxxxx |xxxxxxxxxxxxx |xxxxxxxxxxxxx |           64 |           64 |           64 |           64 |xxxxxxxxxxxxx |xxxxxxxxxxxxx |xxxxxxxxxxxxx |           64 |           64 |           64 |           64 |xxxxxxxxxxxxx |xxxxxxxxxxxxx |xxxxxxxxxxxxx |           64 |           64 |           64 |           64 |xxxxxxxxxxxxx |xxxxxxxxxxxxx |xxxxxxxxxxxxx |           64 |           64 |           64 |           64 |xxxxxxxxxxxxx |xxxxxxxxxxxxx |xxxxxxxxxxxxx |           64 |           64 |           64 |           64 |
bpred_2lev.used_ras.PP               xxxxxxxxxxxxx |xxxxxxxxxxxxx |xxxxxxxxxxxxx |           64 |           64 |           64 |           64 |xxxxxxxxxxxxx |xxxxxxxxxxxxx |xxxxxxxxxxxxx |           64 |           64 |           64 |           64 |xxxxxxxxxxxxx |xxxxxxxxxxxxx |xxxxxxxxxxxxx |           64 |           64 |           64 |           64 |xxxxxxxxxxxxx |xxxxxxxxxxxxx |xxxxxxxxxxxxx |           64 |           64 |           64 |           64 |xxxxxxxxxxxxx |xxxxxxxxxxxxx |xxxxxxxxxxxxx |           64 |           64 |           64 |           64 |xxxxxxxxxxxxx |xxxxxxxxxxxxx |xxxxxxxxxxxxx |           64 |           64 |           64 |           64 |xxxxxxxxxxxxx |xxxxxxxxxxxxx |xxxxxxxxxxxxx |           64 |           64 |           64 |           64 |xxxxxxxxxxxxx |xxxxxxxxxxxxx |xxxxxxxxxxxxx |           64 |           64 |           64 |           64 |xxxxxxxxxxxxx |xxxxxxxxxxxxx |xxxxxxxxxxxxx |           64 |           64 |           64 |           64 |xxxxxxxxxxxxx |xxxxxxxxxxxxx |xxxxxxxxxxxxx |           64 |           64 |           64 |           64 |xxxxxxxxxxxxx |xxxxxxxxxxxxx |xxxxxxxxxxxxx |           64 |           64 |           64 |           64 |
bpred_2lev.ras_hits.PP               xxxxxxxxxxxxx |xxxxxxxxxxxxx |xxxxxxxxxxxxx |           64 |           64 |           64 |           64 |xxxxxxxxxxxxx |xxxxxxxxxxxxx |xxxxxxxxxxxxx |           64 |           64 |           64 |           64 |xxxxxxxxxxxxx |xxxxxxxxxxxxx |xxxxxxxxxxxxx |           64 |           64 |           64 |           64 |xxxxxxxxxxxxx |xxxxxxxxxxxxx |xxxxxxxxxxxxx |           64 |           64 |           64 |           64 |xxxxxxxxxxxxx |xxxxxxxxxxxxx |xxxxxxxxxxxxx |           64 |           64 |           64 |           64 |xxxxxxxxxxxxx |xxxxxxxxxxxxx |xxxxxxxxxxxxx |           64 |           64 |           64 |           64 |xxxxxxxxxxxxx |xxxxxxxxxxxxx |xxxxxxxxxxxxx |           64 |           64 |           64 |           64 |xxxxxxxxxxxxx |xxxxxxxxxxxxx |xxxxxxxxxxxxx |           64 |           64 |           64 |           64 |xxxxxxxxxxxxx |xxxxxxxxxxxxx |xxxxxxxxxxxxx |           64 |           64 |           64 |           64 |xxxxxxxxxxxxx |xxxxxxxxxxxxx |xxxxxxxxxxxxx |           64 |           64 |           64 |           64 |xxxxxxxxxxxxx |xxxxxxxxxxxxx |xxxxxxxxxxxxx |           64 |           64 |           64 |           64 |
bpred_2lev.ras_rate.PP               xxxxxxxxxxxxx |xxxxxxxxxxxxx |xxxxxxxxxxxxx |       1.0000 |       1.0000 |       1.0000 |       1.0000 |xxxxxxxxxxxxx |xxxxxxxxxxxxx |xxxxxxxxxxxxx |       1.0000 |       1.0000 |       1.0000 |       1.0000 |xxxxxxxxxxxxx |xxxxxxxxxxxxx |xxxxxxxxxxxxx |       1.0000 |       1.0000 |       1.0000 |       1.0000 |xxxxxxxxxxxxx |xxxxxxxxxxxxx |xxxxxxxxxxxxx |       1.0000 |       1.0000 |       1.0000 |       1.0000 |xxxxxxxxxxxxx |xxxxxxxxxxxxx |xxxxxxxxxxxxx |       1.0000 |       1.0000 |       1.0000 |       1.0000 |xxxxxxxxxxxxx |xxxxxxxxxxxxx |xxxxxxxxxxxxx |       1.0000 |       1.0000 |       1.0000 |       1.0000 |xxxxxxxxxxxxx |xxxxxxxxxxxxx |xxxxxxxxxxxxx |       1.0000 |       1.0000 |       1.0000 |       1.0000 |xxxxxxxxxxxxx |xxxxxxxxxxxxx |xxxxxxxxxxxxx |       1.0000 |       1.0000 |       1.0000 |       1.0000 |xxxxxxxxxxxxx |xxxxxxxxxxxxx |xxxxxxxxxxxxx |       1.0000 |       1.0000 |       1.0000 |       1.0000 |xxxxxxxxxxxxx |xxxxxxxxxxxxx |xxxxxxxxxxxxx |       1.0000 |       1.0000 |       1.0000 |       1.0000 |xxxxxxxxxxxxx |xxxxxxxxxxxxx |xxxxxxxxxxxxx |       1.0000 |       1.0000 |       1.0000 |       1.0000 |

Command list: 
	sslittle-na-sstrix-gcc -Wall -O3 -funroll-loops -finline-functions  -DRANDOM_SIZE=4096 -DOFFSET=0 -DSORT=base_quicksort sorts/base_quicksort184410295.c simpleMain.c -o base_quicksort2112812300
	sim-cache -cache:dl1 dl1:256:32:1:l -cache:dl2 dl2:131072:32:1:l -cache:il1 il1:256:32:1:l -cache:il2 dl2 base_quicksort2112812300
	sim-cache -cache:dl1 dl1:256:32:1:l -cache:dl2 dl2:65536:32:1:l -cache:il1 il1:256:32:1:l -cache:il2 dl2 base_quicksort2112812300
	sim-cache -cache:dl1 dl1:1:32:256:l -cache:dl2 dl2:1:32:131072:l -cache:il1 il1:1:32:256:l -cache:il2 dl2 base_quicksort2112812300
	sim-cache -cache:dl1 dl1:1:32:256:l -cache:dl2 dl2:1:32:65536:l -cache:il1 il1:1:32:256:l -cache:il2 dl2 base_quicksort2112812300
	sim-bpred -bpred bimod -bpred:bimod 512 base_quicksort2112812300
	sim-bpred -bpred bimod -bpred:bimod 1024 base_quicksort2112812300
	sim-bpred -bpred bimod -bpred:bimod 2048 base_quicksort2112812300
	sim-bpred -bpred 2lev -bpred:2lev 1 512 10 1 base_quicksort2112812300
	sim-bpred -bpred 2lev -bpred:2lev 1 1024 10 1 base_quicksort2112812300
	sim-bpred -bpred 2lev -bpred:2lev 1 2048 10 1 base_quicksort2112812300
	sim-bpred -bpred 2lev -bpred:2lev 1 4096 10 1 base_quicksort2112812300
	sslittle-na-sstrix-gcc -Wall -O3 -funroll-loops -finline-functions  -DRANDOM_SIZE=8192 -DOFFSET=0 -DSORT=base_quicksort sorts/base_quicksort184410295.c simpleMain.c -o base_quicksort2112812300
	sim-cache -cache:dl1 dl1:256:32:1:l -cache:dl2 dl2:131072:32:1:l -cache:il1 il1:256:32:1:l -cache:il2 dl2 base_quicksort2112812300
	sim-cache -cache:dl1 dl1:256:32:1:l -cache:dl2 dl2:65536:32:1:l -cache:il1 il1:256:32:1:l -cache:il2 dl2 base_quicksort2112812300
	sim-cache -cache:dl1 dl1:1:32:256:l -cache:dl2 dl2:1:32:131072:l -cache:il1 il1:1:32:256:l -cache:il2 dl2 base_quicksort2112812300
	sim-cache -cache:dl1 dl1:1:32:256:l -cache:dl2 dl2:1:32:65536:l -cache:il1 il1:1:32:256:l -cache:il2 dl2 base_quicksort2112812300
	sim-bpred -bpred bimod -bpred:bimod 512 base_quicksort2112812300
	sim-bpred -bpred bimod -bpred:bimod 1024 base_quicksort2112812300
	sim-bpred -bpred bimod -bpred:bimod 2048 base_quicksort2112812300
	sim-bpred -bpred 2lev -bpred:2lev 1 512 10 1 base_quicksort2112812300
	sim-bpred -bpred 2lev -bpred:2lev 1 1024 10 1 base_quicksort2112812300
	sim-bpred -bpred 2lev -bpred:2lev 1 2048 10 1 base_quicksort2112812300
	sim-bpred -bpred 2lev -bpred:2lev 1 4096 10 1 base_quicksort2112812300
	sslittle-na-sstrix-gcc -Wall -O3 -funroll-loops -finline-functions  -DRANDOM_SIZE=16384 -DOFFSET=0 -DSORT=base_quicksort sorts/base_quicksort184410295.c simpleMain.c -o base_quicksort2112812300
	sim-cache -cache:dl1 dl1:256:32:1:l -cache:dl2 dl2:131072:32:1:l -cache:il1 il1:256:32:1:l -cache:il2 dl2 base_quicksort2112812300
	sim-cache -cache:dl1 dl1:256:32:1:l -cache:dl2 dl2:65536:32:1:l -cache:il1 il1:256:32:1:l -cache:il2 dl2 base_quicksort2112812300
	sim-cache -cache:dl1 dl1:1:32:256:l -cache:dl2 dl2:1:32:131072:l -cache:il1 il1:1:32:256:l -cache:il2 dl2 base_quicksort2112812300
	sim-cache -cache:dl1 dl1:1:32:256:l -cache:dl2 dl2:1:32:65536:l -cache:il1 il1:1:32:256:l -cache:il2 dl2 base_quicksort2112812300
	sim-bpred -bpred bimod -bpred:bimod 512 base_quicksort2112812300
	sim-bpred -bpred bimod -bpred:bimod 1024 base_quicksort2112812300
	sim-bpred -bpred bimod -bpred:bimod 2048 base_quicksort2112812300
	sim-bpred -bpred 2lev -bpred:2lev 1 512 10 1 base_quicksort2112812300
	sim-bpred -bpred 2lev -bpred:2lev 1 1024 10 1 base_quicksort2112812300
	sim-bpred -bpred 2lev -bpred:2lev 1 2048 10 1 base_quicksort2112812300
	sim-bpred -bpred 2lev -bpred:2lev 1 4096 10 1 base_quicksort2112812300
	sslittle-na-sstrix-gcc -Wall -O3 -funroll-loops -finline-functions  -DRANDOM_SIZE=32768 -DOFFSET=0 -DSORT=base_quicksort sorts/base_quicksort184410295.c simpleMain.c -o base_quicksort2112812300
	sim-cache -cache:dl1 dl1:256:32:1:l -cache:dl2 dl2:131072:32:1:l -cache:il1 il1:256:32:1:l -cache:il2 dl2 base_quicksort2112812300
	sim-cache -cache:dl1 dl1:256:32:1:l -cache:dl2 dl2:65536:32:1:l -cache:il1 il1:256:32:1:l -cache:il2 dl2 base_quicksort2112812300
	sim-cache -cache:dl1 dl1:1:32:256:l -cache:dl2 dl2:1:32:131072:l -cache:il1 il1:1:32:256:l -cache:il2 dl2 base_quicksort2112812300
	sim-cache -cache:dl1 dl1:1:32:256:l -cache:dl2 dl2:1:32:65536:l -cache:il1 il1:1:32:256:l -cache:il2 dl2 base_quicksort2112812300
	sim-bpred -bpred bimod -bpred:bimod 512 base_quicksort2112812300
	sim-bpred -bpred bimod -bpred:bimod 1024 base_quicksort2112812300
	sim-bpred -bpred bimod -bpred:bimod 2048 base_quicksort2112812300
	sim-bpred -bpred 2lev -bpred:2lev 1 512 10 1 base_quicksort2112812300
	sim-bpred -bpred 2lev -bpred:2lev 1 1024 10 1 base_quicksort2112812300
	sim-bpred -bpred 2lev -bpred:2lev 1 2048 10 1 base_quicksort2112812300
	sim-bpred -bpred 2lev -bpred:2lev 1 4096 10 1 base_quicksort2112812300
	sslittle-na-sstrix-gcc -Wall -O3 -funroll-loops -finline-functions  -DRANDOM_SIZE=65536 -DOFFSET=0 -DSORT=base_quicksort sorts/base_quicksort184410295.c simpleMain.c -o base_quicksort2112812300
	sim-cache -cache:dl1 dl1:256:32:1:l -cache:dl2 dl2:131072:32:1:l -cache:il1 il1:256:32:1:l -cache:il2 dl2 base_quicksort2112812300
	sim-cache -cache:dl1 dl1:256:32:1:l -cache:dl2 dl2:65536:32:1:l -cache:il1 il1:256:32:1:l -cache:il2 dl2 base_quicksort2112812300
	sim-cache -cache:dl1 dl1:1:32:256:l -cache:dl2 dl2:1:32:131072:l -cache:il1 il1:1:32:256:l -cache:il2 dl2 base_quicksort2112812300
	sim-cache -cache:dl1 dl1:1:32:256:l -cache:dl2 dl2:1:32:65536:l -cache:il1 il1:1:32:256:l -cache:il2 dl2 base_quicksort2112812300
	sim-bpred -bpred bimod -bpred:bimod 512 base_quicksort2112812300
	sim-bpred -bpred bimod -bpred:bimod 1024 base_quicksort2112812300
	sim-bpred -bpred bimod -bpred:bimod 2048 base_quicksort2112812300
	sim-bpred -bpred 2lev -bpred:2lev 1 512 10 1 base_quicksort2112812300
	sim-bpred -bpred 2lev -bpred:2lev 1 1024 10 1 base_quicksort2112812300
	sim-bpred -bpred 2lev -bpred:2lev 1 2048 10 1 base_quicksort2112812300
	sim-bpred -bpred 2lev -bpred:2lev 1 4096 10 1 base_quicksort2112812300
	sslittle-na-sstrix-gcc -Wall -O3 -funroll-loops -finline-functions  -DRANDOM_SIZE=131072 -DOFFSET=0 -DSORT=base_quicksort sorts/base_quicksort184410295.c simpleMain.c -o base_quicksort2112812300
	sim-cache -cache:dl1 dl1:256:32:1:l -cache:dl2 dl2:131072:32:1:l -cache:il1 il1:256:32:1:l -cache:il2 dl2 base_quicksort2112812300
	sim-cache -cache:dl1 dl1:256:32:1:l -cache:dl2 dl2:65536:32:1:l -cache:il1 il1:256:32:1:l -cache:il2 dl2 base_quicksort2112812300
	sim-cache -cache:dl1 dl1:1:32:256:l -cache:dl2 dl2:1:32:131072:l -cache:il1 il1:1:32:256:l -cache:il2 dl2 base_quicksort2112812300
	sim-cache -cache:dl1 dl1:1:32:256:l -cache:dl2 dl2:1:32:65536:l -cache:il1 il1:1:32:256:l -cache:il2 dl2 base_quicksort2112812300
	sim-bpred -bpred bimod -bpred:bimod 512 base_quicksort2112812300
	sim-bpred -bpred bimod -bpred:bimod 1024 base_quicksort2112812300
	sim-bpred -bpred bimod -bpred:bimod 2048 base_quicksort2112812300
	sim-bpred -bpred 2lev -bpred:2lev 1 512 10 1 base_quicksort2112812300
	sim-bpred -bpred 2lev -bpred:2lev 1 1024 10 1 base_quicksort2112812300
	sim-bpred -bpred 2lev -bpred:2lev 1 2048 10 1 base_quicksort2112812300
	sim-bpred -bpred 2lev -bpred:2lev 1 4096 10 1 base_quicksort2112812300
	sslittle-na-sstrix-gcc -Wall -O3 -funroll-loops -finline-functions  -DRANDOM_SIZE=262144 -DOFFSET=0 -DSORT=base_quicksort sorts/base_quicksort184410295.c simpleMain.c -o base_quicksort2112812300
	sim-cache -cache:dl1 dl1:256:32:1:l -cache:dl2 dl2:131072:32:1:l -cache:il1 il1:256:32:1:l -cache:il2 dl2 base_quicksort2112812300
	sim-cache -cache:dl1 dl1:256:32:1:l -cache:dl2 dl2:65536:32:1:l -cache:il1 il1:256:32:1:l -cache:il2 dl2 base_quicksort2112812300
	sim-cache -cache:dl1 dl1:1:32:256:l -cache:dl2 dl2:1:32:131072:l -cache:il1 il1:1:32:256:l -cache:il2 dl2 base_quicksort2112812300
	sim-cache -cache:dl1 dl1:1:32:256:l -cache:dl2 dl2:1:32:65536:l -cache:il1 il1:1:32:256:l -cache:il2 dl2 base_quicksort2112812300
	sim-bpred -bpred bimod -bpred:bimod 512 base_quicksort2112812300
	sim-bpred -bpred bimod -bpred:bimod 1024 base_quicksort2112812300
	sim-bpred -bpred bimod -bpred:bimod 2048 base_quicksort2112812300
	sim-bpred -bpred 2lev -bpred:2lev 1 512 10 1 base_quicksort2112812300
	sim-bpred -bpred 2lev -bpred:2lev 1 1024 10 1 base_quicksort2112812300
	sim-bpred -bpred 2lev -bpred:2lev 1 2048 10 1 base_quicksort2112812300
	sim-bpred -bpred 2lev -bpred:2lev 1 4096 10 1 base_quicksort2112812300
	sslittle-na-sstrix-gcc -Wall -O3 -funroll-loops -finline-functions  -DRANDOM_SIZE=524288 -DOFFSET=0 -DSORT=base_quicksort sorts/base_quicksort184410295.c simpleMain.c -o base_quicksort2112812300
	sim-cache -cache:dl1 dl1:256:32:1:l -cache:dl2 dl2:131072:32:1:l -cache:il1 il1:256:32:1:l -cache:il2 dl2 base_quicksort2112812300
	sim-cache -cache:dl1 dl1:256:32:1:l -cache:dl2 dl2:65536:32:1:l -cache:il1 il1:256:32:1:l -cache:il2 dl2 base_quicksort2112812300
	sim-cache -cache:dl1 dl1:1:32:256:l -cache:dl2 dl2:1:32:131072:l -cache:il1 il1:1:32:256:l -cache:il2 dl2 base_quicksort2112812300
	sim-cache -cache:dl1 dl1:1:32:256:l -cache:dl2 dl2:1:32:65536:l -cache:il1 il1:1:32:256:l -cache:il2 dl2 base_quicksort2112812300
	sim-bpred -bpred bimod -bpred:bimod 512 base_quicksort2112812300
	sim-bpred -bpred bimod -bpred:bimod 1024 base_quicksort2112812300
	sim-bpred -bpred bimod -bpred:bimod 2048 base_quicksort2112812300
	sim-bpred -bpred 2lev -bpred:2lev 1 512 10 1 base_quicksort2112812300
	sim-bpred -bpred 2lev -bpred:2lev 1 1024 10 1 base_quicksort2112812300
	sim-bpred -bpred 2lev -bpred:2lev 1 2048 10 1 base_quicksort2112812300
	sim-bpred -bpred 2lev -bpred:2lev 1 4096 10 1 base_quicksort2112812300
	sslittle-na-sstrix-gcc -Wall -O3 -funroll-loops -finline-functions  -DRANDOM_SIZE=1048576 -DOFFSET=0 -DSORT=base_quicksort sorts/base_quicksort184410295.c simpleMain.c -o base_quicksort2112812300
	sim-cache -cache:dl1 dl1:256:32:1:l -cache:dl2 dl2:131072:32:1:l -cache:il1 il1:256:32:1:l -cache:il2 dl2 base_quicksort2112812300
	sim-cache -cache:dl1 dl1:256:32:1:l -cache:dl2 dl2:65536:32:1:l -cache:il1 il1:256:32:1:l -cache:il2 dl2 base_quicksort2112812300
	sim-cache -cache:dl1 dl1:1:32:256:l -cache:dl2 dl2:1:32:131072:l -cache:il1 il1:1:32:256:l -cache:il2 dl2 base_quicksort2112812300
	sim-cache -cache:dl1 dl1:1:32:256:l -cache:dl2 dl2:1:32:65536:l -cache:il1 il1:1:32:256:l -cache:il2 dl2 base_quicksort2112812300
	sim-bpred -bpred bimod -bpred:bimod 512 base_quicksort2112812300
	sim-bpred -bpred bimod -bpred:bimod 1024 base_quicksort2112812300
	sim-bpred -bpred bimod -bpred:bimod 2048 base_quicksort2112812300
	sim-bpred -bpred 2lev -bpred:2lev 1 512 10 1 base_quicksort2112812300
	sim-bpred -bpred 2lev -bpred:2lev 1 1024 10 1 base_quicksort2112812300
	sim-bpred -bpred 2lev -bpred:2lev 1 2048 10 1 base_quicksort2112812300
	sim-bpred -bpred 2lev -bpred:2lev 1 4096 10 1 base_quicksort2112812300
	sslittle-na-sstrix-gcc -Wall -O3 -funroll-loops -finline-functions  -DRANDOM_SIZE=2097152 -DOFFSET=0 -DSORT=base_quicksort sorts/base_quicksort184410295.c simpleMain.c -o base_quicksort2112812300
	sim-cache -cache:dl1 dl1:256:32:1:l -cache:dl2 dl2:131072:32:1:l -cache:il1 il1:256:32:1:l -cache:il2 dl2 base_quicksort2112812300
	sim-cache -cache:dl1 dl1:256:32:1:l -cache:dl2 dl2:65536:32:1:l -cache:il1 il1:256:32:1:l -cache:il2 dl2 base_quicksort2112812300
	sim-cache -cache:dl1 dl1:1:32:256:l -cache:dl2 dl2:1:32:131072:l -cache:il1 il1:1:32:256:l -cache:il2 dl2 base_quicksort2112812300
	sim-cache -cache:dl1 dl1:1:32:256:l -cache:dl2 dl2:1:32:65536:l -cache:il1 il1:1:32:256:l -cache:il2 dl2 base_quicksort2112812300
	sim-bpred -bpred bimod -bpred:bimod 512 base_quicksort2112812300
	sim-bpred -bpred bimod -bpred:bimod 1024 base_quicksort2112812300
	sim-bpred -bpred bimod -bpred:bimod 2048 base_quicksort2112812300
	sim-bpred -bpred 2lev -bpred:2lev 1 512 10 1 base_quicksort2112812300
	sim-bpred -bpred 2lev -bpred:2lev 1 1024 10 1 base_quicksort2112812300
	sim-bpred -bpred 2lev -bpred:2lev 1 2048 10 1 base_quicksort2112812300
	sim-bpred -bpred 2lev -bpred:2lev 1 4096 10 1 base_quicksort2112812300
	sslittle-na-sstrix-gcc -Wall -O3 -funroll-loops -finline-functions  -DRANDOM_SIZE=4194304 -DOFFSET=0 -DSORT=base_quicksort sorts/base_quicksort184410295.c simpleMain.c -o base_quicksort2112812300
	sim-cache -cache:dl1 dl1:256:32:1:l -cache:dl2 dl2:131072:32:1:l -cache:il1 il1:256:32:1:l -cache:il2 dl2 base_quicksort2112812300
	sim-cache -cache:dl1 dl1:256:32:1:l -cache:dl2 dl2:65536:32:1:l -cache:il1 il1:256:32:1:l -cache:il2 dl2 base_quicksort2112812300
	sim-cache -cache:dl1 dl1:1:32:256:l -cache:dl2 dl2:1:32:131072:l -cache:il1 il1:1:32:256:l -cache:il2 dl2 base_quicksort2112812300
	sim-cache -cache:dl1 dl1:1:32:256:l -cache:dl2 dl2:1:32:65536:l -cache:il1 il1:1:32:256:l -cache:il2 dl2 base_quicksort2112812300
	sim-bpred -bpred bimod -bpred:bimod 512 base_quicksort2112812300
	sim-bpred -bpred bimod -bpred:bimod 1024 base_quicksort2112812300
	sim-bpred -bpred bimod -bpred:bimod 2048 base_quicksort2112812300
	sim-bpred -bpred 2lev -bpred:2lev 1 512 10 1 base_quicksort2112812300
	sim-bpred -bpred 2lev -bpred:2lev 1 1024 10 1 base_quicksort2112812300
	sim-bpred -bpred 2lev -bpred:2lev 1 2048 10 1 base_quicksort2112812300
	sim-bpred -bpred 2lev -bpred:2lev 1 4096 10 1 base_quicksort2112812300
