Tue Jul 12 02:07:34 2005
Run as: "./do_simple -c random.org5 -o 5 base_quicksort5"
-------------------------------------------------------------------------------------------------
sim-cache                                     4096 |         4096 |         4096 |         4096 |         8192 |         8192 |         8192 |         8192 |        16384 |        16384 |        16384 |        16384 |        32768 |        32768 |        32768 |        32768 |        65536 |        65536 |        65536 |        65536 |       131072 |       131072 |       131072 |       131072 |       262144 |       262144 |       262144 |       262144 |       524288 |       524288 |       524288 |       524288 |      1048576 |      1048576 |      1048576 |      1048576 |      2097152 |      2097152 |      2097152 |      2097152 |      4194304 |      4194304 |      4194304 |      4194304 |
-cache:dl1 dl1:256:32:1:l -cache:dl2 dl2:131072:32:1:l -cache:il1 il1:256:32:1:l -cache:il2 dl2
-cache:dl1 dl1:256:32:1:l -cache:dl2 dl2:65536:32:1:l -cache:il1 il1:256:32:1:l -cache:il2 dl2
-cache:dl1 dl1:1:32:256:l -cache:dl2 dl2:1:32:131072:l -cache:il1 il1:1:32:256:l -cache:il2 dl2
-cache:dl1 dl1:1:32:256:l -cache:dl2 dl2:1:32:65536:l -cache:il1 il1:1:32:256:l -cache:il2 dl2
-------------------------------------------------------------------------------------------------
sim_num_insn                                479333 |       479333 |       479333 |       479333 |      1010631 |      1010631 |      1010631 |      1010631 |      2158499 |      2158499 |      2158499 |      2158499 |      4624423 |      4624423 |      4624423 |      4624423 |      9654517 |      9654517 |      9654517 |      9654517 |     20660948 |     20660948 |     20660948 |     20660948 |     43599805 |     43599805 |     43599805 |     43599805 |     91689699 |     91689699 |     91689699 |     91689699 |    193340818 |    193340818 |    193340818 |    193340818 |    404531195 |    404531195 |    404531195 |    404531195 |    843989159 |    843989159 |    843989159 |    843989159 |
sim_num_refs                                126959 |       126959 |       126959 |       126959 |       264737 |       264737 |       264737 |       264737 |       557304 |       557304 |       557304 |       557304 |      1182385 |      1182385 |      1182385 |      1182385 |      2475876 |      2475876 |      2475876 |      2475876 |      5248181 |      5248181 |      5248181 |      5248181 |     11030657 |     11030657 |     11030657 |     11030657 |     23134879 |     23134879 |     23134879 |     23134879 |     48558507 |     48558507 |     48558507 |     48558507 |    101384195 |    101384195 |    101384195 |    101384195 |    211149823 |    211149823 |    211149823 |    211149823 |
sim_elapsed_time                                 1 |            1 |            7 |            4 |            1 |            1 |           10 |            5 |            1 |            1 |           16 |            8 |            1 |            2 |           27 |           14 |            2 |            3 |           49 |           26 |            5 |            6 |           92 |           46 |           12 |           12 |          169 |           80 |           25 |           25 |          291 |          113 |           53 |           53 |          406 |          144 |          111 |          111 |          468 |          207 |          231 |          232 |          601 |          341 |
sim_inst_rate                          479333.0000 |  479333.0000 |   68476.1429 |  119833.2500 | 1010631.0000 | 1010631.0000 |  101063.1000 |  202126.2000 | 2158499.0000 | 2158499.0000 |  134906.1875 |  269812.3750 | 4624423.0000 | 2312211.5000 |  171274.9259 |  330315.9286 | 4827258.5000 | 3218172.3333 |  197030.9592 |  371327.5769 | 4132189.6000 | 3443491.3333 |  224575.5217 |  449151.0435 | 3633317.0833 | 3633317.0833 |  257987.0118 |  544997.5625 | 3667587.9600 | 3667587.9600 |  315084.8763 |  811413.2655 | 3647939.9623 | 3647939.9623 |  476208.9113 | 1342644.5694 | 3644425.1802 | 3644425.1802 |  864382.8953 | 1954256.9807 | 3653632.7229 | 3637884.3060 | 1404308.0849 | 2475041.5220 |
il1.accesses                                479333 |       479333 |       479333 |       479333 |      1010631 |      1010631 |      1010631 |      1010631 |      2158499 |      2158499 |      2158499 |      2158499 |      4624423 |      4624423 |      4624423 |      4624423 |      9654517 |      9654517 |      9654517 |      9654517 |     20660948 |     20660948 |     20660948 |     20660948 |     43599805 |     43599805 |     43599805 |     43599805 |     91689699 |     91689699 |     91689699 |     91689699 |    193340818 |    193340818 |    193340818 |    193340818 |    404531195 |    404531195 |    404531195 |    404531195 |    843989159 |    843989159 |    843989159 |    843989159 |
il1.hits                                    478869 |       478869 |       478905 |       478905 |      1010170 |      1010170 |      1010203 |      1010203 |      2158048 |      2158048 |      2158074 |      2158074 |      4623959 |      4623959 |      4623993 |      4623993 |      9654053 |      9654053 |      9654087 |      9654087 |     20660484 |     20660484 |     20660518 |     20660518 |     43599341 |     43599341 |     43599375 |     43599375 |     91689235 |     91689235 |     91689269 |     91689269 |    193340354 |    193340354 |    193340388 |    193340388 |    404530731 |    404530731 |    404530765 |    404530765 |    843988695 |    843988695 |    843988729 |    843988729 |
il1.misses                                     464 |          464 |          428 |          428 |          461 |          461 |          428 |          428 |          451 |          451 |          425 |          425 |          464 |          464 |          430 |          430 |          464 |          464 |          430 |          430 |          464 |          464 |          430 |          430 |          464 |          464 |          430 |          430 |          464 |          464 |          430 |          430 |          464 |          464 |          430 |          430 |          464 |          464 |          430 |          430 |          464 |          464 |          430 |          430 |
il1.replacements                               224 |          224 |          172 |          172 |          222 |          222 |          172 |          172 |          213 |          213 |          169 |          169 |          226 |          226 |          174 |          174 |          226 |          226 |          174 |          174 |          226 |          226 |          174 |          174 |          226 |          226 |          174 |          174 |          226 |          226 |          174 |          174 |          226 |          226 |          174 |          174 |          226 |          226 |          174 |          174 |          226 |          226 |          174 |          174 |
il1.writebacks                                   0 |            0 |            0 |            0 |            0 |            0 |            0 |            0 |            0 |            0 |            0 |            0 |            0 |            0 |            0 |            0 |            0 |            0 |            0 |            0 |            0 |            0 |            0 |            0 |            0 |            0 |            0 |            0 |            0 |            0 |            0 |            0 |            0 |            0 |            0 |            0 |            0 |            0 |            0 |            0 |            0 |            0 |            0 |            0 |
il1.invalidations                                0 |            0 |            0 |            0 |            0 |            0 |            0 |            0 |            0 |            0 |            0 |            0 |            0 |            0 |            0 |            0 |            0 |            0 |            0 |            0 |            0 |            0 |            0 |            0 |            0 |            0 |            0 |            0 |            0 |            0 |            0 |            0 |            0 |            0 |            0 |            0 |            0 |            0 |            0 |            0 |            0 |            0 |            0 |            0 |
il1.miss_rate                               0.0010 |       0.0010 |       0.0009 |       0.0009 |       0.0005 |       0.0005 |       0.0004 |       0.0004 |       0.0002 |       0.0002 |       0.0002 |       0.0002 |       0.0001 |       0.0001 |       0.0001 |       0.0001 |       0.0000 |       0.0000 |       0.0000 |       0.0000 |       0.0000 |       0.0000 |       0.0000 |       0.0000 |       0.0000 |       0.0000 |       0.0000 |       0.0000 |       0.0000 |       0.0000 |       0.0000 |       0.0000 |       0.0000 |       0.0000 |       0.0000 |       0.0000 |       0.0000 |       0.0000 |       0.0000 |       0.0000 |       0.0000 |       0.0000 |       0.0000 |       0.0000 |
il1.repl_rate                               0.0005 |       0.0005 |       0.0004 |       0.0004 |       0.0002 |       0.0002 |       0.0002 |       0.0002 |       0.0001 |       0.0001 |       0.0001 |       0.0001 |       0.0000 |       0.0000 |       0.0000 |       0.0000 |       0.0000 |       0.0000 |       0.0000 |       0.0000 |       0.0000 |       0.0000 |       0.0000 |       0.0000 |       0.0000 |       0.0000 |       0.0000 |       0.0000 |       0.0000 |       0.0000 |       0.0000 |       0.0000 |       0.0000 |       0.0000 |       0.0000 |       0.0000 |       0.0000 |       0.0000 |       0.0000 |       0.0000 |       0.0000 |       0.0000 |       0.0000 |       0.0000 |
il1.wb_rate                                 0.0000 |       0.0000 |       0.0000 |       0.0000 |       0.0000 |       0.0000 |       0.0000 |       0.0000 |       0.0000 |       0.0000 |       0.0000 |       0.0000 |       0.0000 |       0.0000 |       0.0000 |       0.0000 |       0.0000 |       0.0000 |       0.0000 |       0.0000 |       0.0000 |       0.0000 |       0.0000 |       0.0000 |       0.0000 |       0.0000 |       0.0000 |       0.0000 |       0.0000 |       0.0000 |       0.0000 |       0.0000 |       0.0000 |       0.0000 |       0.0000 |       0.0000 |       0.0000 |       0.0000 |       0.0000 |       0.0000 |       0.0000 |       0.0000 |       0.0000 |       0.0000 |
il1.inv_rate                                0.0000 |       0.0000 |       0.0000 |       0.0000 |       0.0000 |       0.0000 |       0.0000 |       0.0000 |       0.0000 |       0.0000 |       0.0000 |       0.0000 |       0.0000 |       0.0000 |       0.0000 |       0.0000 |       0.0000 |       0.0000 |       0.0000 |       0.0000 |       0.0000 |       0.0000 |       0.0000 |       0.0000 |       0.0000 |       0.0000 |       0.0000 |       0.0000 |       0.0000 |       0.0000 |       0.0000 |       0.0000 |       0.0000 |       0.0000 |       0.0000 |       0.0000 |       0.0000 |       0.0000 |       0.0000 |       0.0000 |       0.0000 |       0.0000 |       0.0000 |       0.0000 |
dl1.accesses                                143425 |       143425 |       143425 |       143425 |       297587 |       297587 |       297587 |       297587 |       622922 |       622922 |       622922 |       622922 |      1313539 |      1313539 |      1313539 |      1313539 |      2738102 |      2738102 |      2738102 |      2738102 |      5772551 |      5772551 |      5772551 |      5772551 |     12079315 |     12079315 |     12079315 |     12079315 |     25232113 |     25232113 |     25232113 |     25232113 |     52752893 |     52752893 |     52752893 |     52752893 |    109772885 |    109772885 |    109772885 |    109772885 |    227927121 |    227927121 |    227927121 |    227927121 |
dl1.hits                                    140553 |       140553 |       140393 |       140393 |       291569 |       291569 |       291496 |       291496 |       608499 |       608499 |       608330 |       608330 |      1280117 |      1280117 |      1279862 |      1279862 |      2666716 |      2666716 |      2666962 |      2666962 |      5609036 |      5609036 |      5609507 |      5609507 |     11712681 |     11712681 |     11714807 |     11714807 |     24428031 |     24428031 |     24432960 |     24432960 |     50981573 |     50981573 |     50997807 |     50997807 |    105944510 |    105944510 |    105984903 |    105984903 |    219716975 |    219716975 |    219813220 |    219813220 |
dl1.misses                                    2872 |         2872 |         3032 |         3032 |         6018 |         6018 |         6091 |         6091 |        14423 |        14423 |        14592 |        14592 |        33422 |        33422 |        33677 |        33677 |        71386 |        71386 |        71140 |        71140 |       163515 |       163515 |       163044 |       163044 |       366634 |       366634 |       364508 |       364508 |       804082 |       804082 |       799153 |       799153 |      1771320 |      1771320 |      1755086 |      1755086 |      3828375 |      3828375 |      3787982 |      3787982 |      8210146 |      8210146 |      8113901 |      8113901 |
dl1.replacements                              2616 |         2616 |         2776 |         2776 |         5762 |         5762 |         5835 |         5835 |        14167 |        14167 |        14336 |        14336 |        33166 |        33166 |        33421 |        33421 |        71130 |        71130 |        70884 |        70884 |       163259 |       163259 |       162788 |       162788 |       366378 |       366378 |       364252 |       364252 |       803826 |       803826 |       798897 |       798897 |      1771064 |      1771064 |      1754830 |      1754830 |      3828119 |      3828119 |      3787726 |      3787726 |      8209890 |      8209890 |      8113645 |      8113645 |
dl1.writebacks                                2392 |         2392 |         2541 |         2541 |         5521 |         5521 |         5592 |         5592 |        13335 |        13335 |        13572 |        13572 |        30705 |        30705 |        31120 |        31120 |        68213 |        68213 |        68635 |        68635 |       154439 |       154439 |       155517 |       155517 |       345432 |       345432 |       346672 |       346672 |       759907 |       759907 |       762646 |       762646 |      1661223 |      1661223 |      1663284 |      1663284 |      3592317 |      3592317 |      3592715 |      3592715 |      7755561 |      7755561 |      7749276 |      7749276 |
dl1.invalidations                                0 |            0 |            0 |            0 |            0 |            0 |            0 |            0 |            0 |            0 |            0 |            0 |            0 |            0 |            0 |            0 |            0 |            0 |            0 |            0 |            0 |            0 |            0 |            0 |            0 |            0 |            0 |            0 |            0 |            0 |            0 |            0 |            0 |            0 |            0 |            0 |            0 |            0 |            0 |            0 |            0 |            0 |            0 |            0 |
dl1.miss_rate                               0.0200 |       0.0200 |       0.0211 |       0.0211 |       0.0202 |       0.0202 |       0.0205 |       0.0205 |       0.0232 |       0.0232 |       0.0234 |       0.0234 |       0.0254 |       0.0254 |       0.0256 |       0.0256 |       0.0261 |       0.0261 |       0.0260 |       0.0260 |       0.0283 |       0.0283 |       0.0282 |       0.0282 |       0.0304 |       0.0304 |       0.0302 |       0.0302 |       0.0319 |       0.0319 |       0.0317 |       0.0317 |       0.0336 |       0.0336 |       0.0333 |       0.0333 |       0.0349 |       0.0349 |       0.0345 |       0.0345 |       0.0360 |       0.0360 |       0.0356 |       0.0356 |
dl1.repl_rate                               0.0182 |       0.0182 |       0.0194 |       0.0194 |       0.0194 |       0.0194 |       0.0196 |       0.0196 |       0.0227 |       0.0227 |       0.0230 |       0.0230 |       0.0252 |       0.0252 |       0.0254 |       0.0254 |       0.0260 |       0.0260 |       0.0259 |       0.0259 |       0.0283 |       0.0283 |       0.0282 |       0.0282 |       0.0303 |       0.0303 |       0.0302 |       0.0302 |       0.0319 |       0.0319 |       0.0317 |       0.0317 |       0.0336 |       0.0336 |       0.0333 |       0.0333 |       0.0349 |       0.0349 |       0.0345 |       0.0345 |       0.0360 |       0.0360 |       0.0356 |       0.0356 |
dl1.wb_rate                                 0.0167 |       0.0167 |       0.0177 |       0.0177 |       0.0186 |       0.0186 |       0.0188 |       0.0188 |       0.0214 |       0.0214 |       0.0218 |       0.0218 |       0.0234 |       0.0234 |       0.0237 |       0.0237 |       0.0249 |       0.0249 |       0.0251 |       0.0251 |       0.0268 |       0.0268 |       0.0269 |       0.0269 |       0.0286 |       0.0286 |       0.0287 |       0.0287 |       0.0301 |       0.0301 |       0.0302 |       0.0302 |       0.0315 |       0.0315 |       0.0315 |       0.0315 |       0.0327 |       0.0327 |       0.0327 |       0.0327 |       0.0340 |       0.0340 |       0.0340 |       0.0340 |
dl1.inv_rate                                0.0000 |       0.0000 |       0.0000 |       0.0000 |       0.0000 |       0.0000 |       0.0000 |       0.0000 |       0.0000 |       0.0000 |       0.0000 |       0.0000 |       0.0000 |       0.0000 |       0.0000 |       0.0000 |       0.0000 |       0.0000 |       0.0000 |       0.0000 |       0.0000 |       0.0000 |       0.0000 |       0.0000 |       0.0000 |       0.0000 |       0.0000 |       0.0000 |       0.0000 |       0.0000 |       0.0000 |       0.0000 |       0.0000 |       0.0000 |       0.0000 |       0.0000 |       0.0000 |       0.0000 |       0.0000 |       0.0000 |       0.0000 |       0.0000 |       0.0000 |       0.0000 |
dl2.accesses                                  5728 |         5728 |         6001 |         6001 |        12000 |        12000 |        12111 |        12111 |        28209 |        28209 |        28589 |        28589 |        64591 |        64591 |        65227 |        65227 |       140063 |       140063 |       140205 |       140205 |       318418 |       318418 |       318991 |       318991 |       712530 |       712530 |       711610 |       711610 |      1564453 |      1564453 |      1562229 |      1562229 |      3433007 |      3433007 |      3418800 |      3418800 |      7421156 |      7421156 |      7381127 |      7381127 |     15966171 |     15966171 |     15863607 |     15863607 |
dl2.hits                                      4354 |         4354 |         4641 |         4641 |        10113 |        10113 |        10239 |        10239 |        25310 |        25310 |        25702 |        25702 |        59638 |        59638 |        60289 |        60289 |       131013 |       131013 |       131170 |       131170 |       301176 |       301176 |       301764 |       301764 |       678904 |       678904 |       677999 |       677999 |      1498059 |      1497317 |      1495850 |      1473465 |      3300313 |      2983224 |      3247410 |      2905494 |      6600315 |      6155822 |      6414300 |      5997794 |     13542200 |     12886595 |     13255137 |     12652800 |
dl2.misses                                    1374 |         1374 |         1360 |         1360 |         1887 |         1887 |         1872 |         1872 |         2899 |         2899 |         2887 |         2887 |         4953 |         4953 |         4938 |         4938 |         9050 |         9050 |         9035 |         9035 |        17242 |        17242 |        17227 |        17227 |        33626 |        33626 |        33611 |        33611 |        66394 |        67136 |        66379 |        88764 |       132694 |       449783 |       171390 |       513306 |       820841 |      1265334 |       966827 |      1383333 |      2423971 |      3079576 |      2608470 |      3210807 |
dl2.replacements                               152 |          152 |            0 |            0 |          155 |          155 |            0 |            0 |          151 |          151 |            0 |            0 |          157 |          157 |            0 |            0 |          157 |          157 |            0 |            0 |          157 |          157 |            0 |            0 |          157 |          157 |            0 |            0 |          157 |         1600 |            0 |        23228 |         1622 |       384247 |        40318 |       447770 |       689769 |      1199798 |       835755 |      1317797 |      2292899 |      3014040 |      2477398 |      3145271 |
dl2.writebacks                                  91 |           91 |            0 |            0 |           92 |           92 |            0 |            0 |           90 |           90 |            0 |            0 |           93 |           93 |            0 |            0 |           93 |           93 |            0 |            0 |           93 |           93 |            0 |            0 |           93 |           93 |            0 |            0 |           93 |         1284 |            0 |        22933 |         1304 |       379841 |        40023 |       442656 |       688306 |      1181635 |       833293 |      1272298 |      2284514 |      2972824 |      2464999 |      3097864 |
dl2.invalidations                                0 |            0 |            0 |            0 |            0 |            0 |            0 |            0 |            0 |            0 |            0 |            0 |            0 |            0 |            0 |            0 |            0 |            0 |            0 |            0 |            0 |            0 |            0 |            0 |            0 |            0 |            0 |            0 |            0 |            0 |            0 |            0 |            0 |            0 |            0 |            0 |            0 |            0 |            0 |            0 |            0 |            0 |            0 |            0 |
dl2.miss_rate                               0.2399 |       0.2399 |       0.2266 |       0.2266 |       0.1573 |       0.1573 |       0.1546 |       0.1546 |       0.1028 |       0.1028 |       0.1010 |       0.1010 |       0.0767 |       0.0767 |       0.0757 |       0.0757 |       0.0646 |       0.0646 |       0.0644 |       0.0644 |       0.0541 |       0.0541 |       0.0540 |       0.0540 |       0.0472 |       0.0472 |       0.0472 |       0.0472 |       0.0424 |       0.0429 |       0.0425 |       0.0568 |       0.0387 |       0.1310 |       0.0501 |       0.1501 |       0.1106 |       0.1705 |       0.1310 |       0.1874 |       0.1518 |       0.1929 |       0.1644 |       0.2024 |
dl2.repl_rate                               0.0265 |       0.0265 |       0.0000 |       0.0000 |       0.0129 |       0.0129 |       0.0000 |       0.0000 |       0.0054 |       0.0054 |       0.0000 |       0.0000 |       0.0024 |       0.0024 |       0.0000 |       0.0000 |       0.0011 |       0.0011 |       0.0000 |       0.0000 |       0.0005 |       0.0005 |       0.0000 |       0.0000 |       0.0002 |       0.0002 |       0.0000 |       0.0000 |       0.0001 |       0.0010 |       0.0000 |       0.0149 |       0.0005 |       0.1119 |       0.0118 |       0.1310 |       0.0929 |       0.1617 |       0.1132 |       0.1785 |       0.1436 |       0.1888 |       0.1562 |       0.1983 |
dl2.wb_rate                                 0.0159 |       0.0159 |       0.0000 |       0.0000 |       0.0077 |       0.0077 |       0.0000 |       0.0000 |       0.0032 |       0.0032 |       0.0000 |       0.0000 |       0.0014 |       0.0014 |       0.0000 |       0.0000 |       0.0007 |       0.0007 |       0.0000 |       0.0000 |       0.0003 |       0.0003 |       0.0000 |       0.0000 |       0.0001 |       0.0001 |       0.0000 |       0.0000 |       0.0001 |       0.0008 |       0.0000 |       0.0147 |       0.0004 |       0.1106 |       0.0117 |       0.1295 |       0.0927 |       0.1592 |       0.1129 |       0.1724 |       0.1431 |       0.1862 |       0.1554 |       0.1953 |
dl2.inv_rate                                0.0000 |       0.0000 |       0.0000 |       0.0000 |       0.0000 |       0.0000 |       0.0000 |       0.0000 |       0.0000 |       0.0000 |       0.0000 |       0.0000 |       0.0000 |       0.0000 |       0.0000 |       0.0000 |       0.0000 |       0.0000 |       0.0000 |       0.0000 |       0.0000 |       0.0000 |       0.0000 |       0.0000 |       0.0000 |       0.0000 |       0.0000 |       0.0000 |       0.0000 |       0.0000 |       0.0000 |       0.0000 |       0.0000 |       0.0000 |       0.0000 |       0.0000 |       0.0000 |       0.0000 |       0.0000 |       0.0000 |       0.0000 |       0.0000 |       0.0000 |       0.0000 |
itlb.accesses                               479333 |       479333 |       479333 |       479333 |      1010631 |      1010631 |      1010631 |      1010631 |      2158499 |      2158499 |      2158499 |      2158499 |      4624423 |      4624423 |      4624423 |      4624423 |      9654517 |      9654517 |      9654517 |      9654517 |     20660948 |     20660948 |     20660948 |     20660948 |     43599805 |     43599805 |     43599805 |     43599805 |     91689699 |     91689699 |     91689699 |     91689699 |    193340818 |    193340818 |    193340818 |    193340818 |    404531195 |    404531195 |    404531195 |    404531195 |    843989159 |    843989159 |    843989159 |    843989159 |
itlb.hits                                   479323 |       479323 |       479323 |       479323 |      1010621 |      1010621 |      1010621 |      1010621 |      2158489 |      2158489 |      2158489 |      2158489 |      4624413 |      4624413 |      4624413 |      4624413 |      9654507 |      9654507 |      9654507 |      9654507 |     20660938 |     20660938 |     20660938 |     20660938 |     43599795 |     43599795 |     43599795 |     43599795 |     91689689 |     91689689 |     91689689 |     91689689 |    193340808 |    193340808 |    193340808 |    193340808 |    404531185 |    404531185 |    404531185 |    404531185 |    843989149 |    843989149 |    843989149 |    843989149 |
itlb.misses                                     10 |           10 |           10 |           10 |           10 |           10 |           10 |           10 |           10 |           10 |           10 |           10 |           10 |           10 |           10 |           10 |           10 |           10 |           10 |           10 |           10 |           10 |           10 |           10 |           10 |           10 |           10 |           10 |           10 |           10 |           10 |           10 |           10 |           10 |           10 |           10 |           10 |           10 |           10 |           10 |           10 |           10 |           10 |           10 |
itlb.replacements                                0 |            0 |            0 |            0 |            0 |            0 |            0 |            0 |            0 |            0 |            0 |            0 |            0 |            0 |            0 |            0 |            0 |            0 |            0 |            0 |            0 |            0 |            0 |            0 |            0 |            0 |            0 |            0 |            0 |            0 |            0 |            0 |            0 |            0 |            0 |            0 |            0 |            0 |            0 |            0 |            0 |            0 |            0 |            0 |
itlb.writebacks                                  0 |            0 |            0 |            0 |            0 |            0 |            0 |            0 |            0 |            0 |            0 |            0 |            0 |            0 |            0 |            0 |            0 |            0 |            0 |            0 |            0 |            0 |            0 |            0 |            0 |            0 |            0 |            0 |            0 |            0 |            0 |            0 |            0 |            0 |            0 |            0 |            0 |            0 |            0 |            0 |            0 |            0 |            0 |            0 |
itlb.invalidations                               0 |            0 |            0 |            0 |            0 |            0 |            0 |            0 |            0 |            0 |            0 |            0 |            0 |            0 |            0 |            0 |            0 |            0 |            0 |            0 |            0 |            0 |            0 |            0 |            0 |            0 |            0 |            0 |            0 |            0 |            0 |            0 |            0 |            0 |            0 |            0 |            0 |            0 |            0 |            0 |            0 |            0 |            0 |            0 |
itlb.miss_rate                              0.0000 |       0.0000 |       0.0000 |       0.0000 |       0.0000 |       0.0000 |       0.0000 |       0.0000 |       0.0000 |       0.0000 |       0.0000 |       0.0000 |       0.0000 |       0.0000 |       0.0000 |       0.0000 |       0.0000 |       0.0000 |       0.0000 |       0.0000 |       0.0000 |       0.0000 |       0.0000 |       0.0000 |       0.0000 |       0.0000 |       0.0000 |       0.0000 |       0.0000 |       0.0000 |       0.0000 |       0.0000 |       0.0000 |       0.0000 |       0.0000 |       0.0000 |       0.0000 |       0.0000 |       0.0000 |       0.0000 |       0.0000 |       0.0000 |       0.0000 |       0.0000 |
itlb.repl_rate                              0.0000 |       0.0000 |       0.0000 |       0.0000 |       0.0000 |       0.0000 |       0.0000 |       0.0000 |       0.0000 |       0.0000 |       0.0000 |       0.0000 |       0.0000 |       0.0000 |       0.0000 |       0.0000 |       0.0000 |       0.0000 |       0.0000 |       0.0000 |       0.0000 |       0.0000 |       0.0000 |       0.0000 |       0.0000 |       0.0000 |       0.0000 |       0.0000 |       0.0000 |       0.0000 |       0.0000 |       0.0000 |       0.0000 |       0.0000 |       0.0000 |       0.0000 |       0.0000 |       0.0000 |       0.0000 |       0.0000 |       0.0000 |       0.0000 |       0.0000 |       0.0000 |
itlb.wb_rate                                0.0000 |       0.0000 |       0.0000 |       0.0000 |       0.0000 |       0.0000 |       0.0000 |       0.0000 |       0.0000 |       0.0000 |       0.0000 |       0.0000 |       0.0000 |       0.0000 |       0.0000 |       0.0000 |       0.0000 |       0.0000 |       0.0000 |       0.0000 |       0.0000 |       0.0000 |       0.0000 |       0.0000 |       0.0000 |       0.0000 |       0.0000 |       0.0000 |       0.0000 |       0.0000 |       0.0000 |       0.0000 |       0.0000 |       0.0000 |       0.0000 |       0.0000 |       0.0000 |       0.0000 |       0.0000 |       0.0000 |       0.0000 |       0.0000 |       0.0000 |       0.0000 |
itlb.inv_rate                               0.0000 |       0.0000 |       0.0000 |       0.0000 |       0.0000 |       0.0000 |       0.0000 |       0.0000 |       0.0000 |       0.0000 |       0.0000 |       0.0000 |       0.0000 |       0.0000 |       0.0000 |       0.0000 |       0.0000 |       0.0000 |       0.0000 |       0.0000 |       0.0000 |       0.0000 |       0.0000 |       0.0000 |       0.0000 |       0.0000 |       0.0000 |       0.0000 |       0.0000 |       0.0000 |       0.0000 |       0.0000 |       0.0000 |       0.0000 |       0.0000 |       0.0000 |       0.0000 |       0.0000 |       0.0000 |       0.0000 |       0.0000 |       0.0000 |       0.0000 |       0.0000 |
dtlb.accesses                               143425 |       143425 |       143425 |       143425 |       297587 |       297587 |       297587 |       297587 |       622922 |       622922 |       622922 |       622922 |      1313539 |      1313539 |      1313539 |      1313539 |      2738102 |      2738102 |      2738102 |      2738102 |      5772551 |      5772551 |      5772551 |      5772551 |     12079315 |     12079315 |     12079315 |     12079315 |     25232113 |     25232113 |     25232113 |     25232113 |     52752893 |     52752893 |     52752893 |     52752893 |    109772885 |    109772885 |    109772885 |    109772885 |    227927121 |    227927121 |    227927121 |    227927121 |
dtlb.hits                                   143413 |       143413 |       143413 |       143413 |       297571 |       297571 |       297571 |       297571 |       622898 |       622898 |       622898 |       622898 |      1313499 |      1313499 |      1313499 |      1313499 |      2738030 |      2738030 |      2738030 |      2738030 |      5772375 |      5772375 |      5772375 |      5772375 |     12078226 |     12078226 |     12078226 |     12078226 |     25229399 |     25229399 |     25229399 |     25229399 |     52746201 |     52746201 |     52746201 |     52746201 |    109757390 |    109757390 |    109757390 |    109757390 |    227892274 |    227892274 |    227892274 |    227892274 |
dtlb.misses                                     12 |           12 |           12 |           12 |           16 |           16 |           16 |           16 |           24 |           24 |           24 |           24 |           40 |           40 |           40 |           40 |           72 |           72 |           72 |           72 |          176 |          176 |          176 |          176 |         1089 |         1089 |         1089 |         1089 |         2714 |         2714 |         2714 |         2714 |         6692 |         6692 |         6692 |         6692 |        15495 |        15495 |        15495 |        15495 |        34847 |        34847 |        34847 |        34847 |
dtlb.replacements                                0 |            0 |            0 |            0 |            0 |            0 |            0 |            0 |            0 |            0 |            0 |            0 |            0 |            0 |            0 |            0 |            0 |            0 |            0 |            0 |           48 |           48 |           48 |           48 |          961 |          961 |          961 |          961 |         2586 |         2586 |         2586 |         2586 |         6564 |         6564 |         6564 |         6564 |        15367 |        15367 |        15367 |        15367 |        34719 |        34719 |        34719 |        34719 |
dtlb.writebacks                                  0 |            0 |            0 |            0 |            0 |            0 |            0 |            0 |            0 |            0 |            0 |            0 |            0 |            0 |            0 |            0 |            0 |            0 |            0 |            0 |           45 |           45 |           45 |           45 |          957 |          957 |          957 |          957 |         2576 |         2576 |         2576 |         2576 |         6550 |         6550 |         6550 |         6550 |        15328 |        15328 |        15328 |        15328 |        34652 |        34652 |        34652 |        34652 |
dtlb.invalidations                               0 |            0 |            0 |            0 |            0 |            0 |            0 |            0 |            0 |            0 |            0 |            0 |            0 |            0 |            0 |            0 |            0 |            0 |            0 |            0 |            0 |            0 |            0 |            0 |            0 |            0 |            0 |            0 |            0 |            0 |            0 |            0 |            0 |            0 |            0 |            0 |            0 |            0 |            0 |            0 |            0 |            0 |            0 |            0 |
dtlb.miss_rate                              0.0001 |       0.0001 |       0.0001 |       0.0001 |       0.0001 |       0.0001 |       0.0001 |       0.0001 |       0.0000 |       0.0000 |       0.0000 |       0.0000 |       0.0000 |       0.0000 |       0.0000 |       0.0000 |       0.0000 |       0.0000 |       0.0000 |       0.0000 |       0.0000 |       0.0000 |       0.0000 |       0.0000 |       0.0001 |       0.0001 |       0.0001 |       0.0001 |       0.0001 |       0.0001 |       0.0001 |       0.0001 |       0.0001 |       0.0001 |       0.0001 |       0.0001 |       0.0001 |       0.0001 |       0.0001 |       0.0001 |       0.0002 |       0.0002 |       0.0002 |       0.0002 |
dtlb.repl_rate                              0.0000 |       0.0000 |       0.0000 |       0.0000 |       0.0000 |       0.0000 |       0.0000 |       0.0000 |       0.0000 |       0.0000 |       0.0000 |       0.0000 |       0.0000 |       0.0000 |       0.0000 |       0.0000 |       0.0000 |       0.0000 |       0.0000 |       0.0000 |       0.0000 |       0.0000 |       0.0000 |       0.0000 |       0.0001 |       0.0001 |       0.0001 |       0.0001 |       0.0001 |       0.0001 |       0.0001 |       0.0001 |       0.0001 |       0.0001 |       0.0001 |       0.0001 |       0.0001 |       0.0001 |       0.0001 |       0.0001 |       0.0002 |       0.0002 |       0.0002 |       0.0002 |
dtlb.wb_rate                                0.0000 |       0.0000 |       0.0000 |       0.0000 |       0.0000 |       0.0000 |       0.0000 |       0.0000 |       0.0000 |       0.0000 |       0.0000 |       0.0000 |       0.0000 |       0.0000 |       0.0000 |       0.0000 |       0.0000 |       0.0000 |       0.0000 |       0.0000 |       0.0000 |       0.0000 |       0.0000 |       0.0000 |       0.0001 |       0.0001 |       0.0001 |       0.0001 |       0.0001 |       0.0001 |       0.0001 |       0.0001 |       0.0001 |       0.0001 |       0.0001 |       0.0001 |       0.0001 |       0.0001 |       0.0001 |       0.0001 |       0.0002 |       0.0002 |       0.0002 |       0.0002 |
dtlb.inv_rate                               0.0000 |       0.0000 |       0.0000 |       0.0000 |       0.0000 |       0.0000 |       0.0000 |       0.0000 |       0.0000 |       0.0000 |       0.0000 |       0.0000 |       0.0000 |       0.0000 |       0.0000 |       0.0000 |       0.0000 |       0.0000 |       0.0000 |       0.0000 |       0.0000 |       0.0000 |       0.0000 |       0.0000 |       0.0000 |       0.0000 |       0.0000 |       0.0000 |       0.0000 |       0.0000 |       0.0000 |       0.0000 |       0.0000 |       0.0000 |       0.0000 |       0.0000 |       0.0000 |       0.0000 |       0.0000 |       0.0000 |       0.0000 |       0.0000 |       0.0000 |       0.0000 |
ld_text_base                            0x00400000 |   0x00400000 |   0x00400000 |   0x00400000 |   0x00400000 |   0x00400000 |   0x00400000 |   0x00400000 |   0x00400000 |   0x00400000 |   0x00400000 |   0x00400000 |   0x00400000 |   0x00400000 |   0x00400000 |   0x00400000 |   0x00400000 |   0x00400000 |   0x00400000 |   0x00400000 |   0x00400000 |   0x00400000 |   0x00400000 |   0x00400000 |   0x00400000 |   0x00400000 |   0x00400000 |   0x00400000 |   0x00400000 |   0x00400000 |   0x00400000 |   0x00400000 |   0x00400000 |   0x00400000 |   0x00400000 |   0x00400000 |   0x00400000 |   0x00400000 |   0x00400000 |   0x00400000 |   0x00400000 |   0x00400000 |   0x00400000 |   0x00400000 |
ld_text_size                                 73600 |        73600 |        73600 |        73600 |        73632 |        73632 |        73632 |        73632 |        73648 |        73648 |        73648 |        73648 |        73664 |        73664 |        73664 |        73664 |        73664 |        73664 |        73664 |        73664 |        73664 |        73664 |        73664 |        73664 |        73664 |        73664 |        73664 |        73664 |        73664 |        73664 |        73664 |        73664 |        73664 |        73664 |        73664 |        73664 |        73664 |        73664 |        73664 |        73664 |        73664 |        73664 |        73664 |        73664 |
ld_data_base                            0x10000000 |   0x10000000 |   0x10000000 |   0x10000000 |   0x10000000 |   0x10000000 |   0x10000000 |   0x10000000 |   0x10000000 |   0x10000000 |   0x10000000 |   0x10000000 |   0x10000000 |   0x10000000 |   0x10000000 |   0x10000000 |   0x10000000 |   0x10000000 |   0x10000000 |   0x10000000 |   0x10000000 |   0x10000000 |   0x10000000 |   0x10000000 |   0x10000000 |   0x10000000 |   0x10000000 |   0x10000000 |   0x10000000 |   0x10000000 |   0x10000000 |   0x10000000 |   0x10000000 |   0x10000000 |   0x10000000 |   0x10000000 |   0x10000000 |   0x10000000 |   0x10000000 |   0x10000000 |   0x10000000 |   0x10000000 |   0x10000000 |   0x10000000 |
ld_data_size                                  8192 |         8192 |         8192 |         8192 |         8192 |         8192 |         8192 |         8192 |         8192 |         8192 |         8192 |         8192 |         8192 |         8192 |         8192 |         8192 |         8192 |         8192 |         8192 |         8192 |         8192 |         8192 |         8192 |         8192 |         8192 |         8192 |         8192 |         8192 |         8192 |         8192 |         8192 |         8192 |         8192 |         8192 |         8192 |         8192 |         8192 |         8192 |         8192 |         8192 |         8192 |         8192 |         8192 |         8192 |
ld_stack_base                           0x7fffc000 |   0x7fffc000 |   0x7fffc000 |   0x7fffc000 |   0x7fffc000 |   0x7fffc000 |   0x7fffc000 |   0x7fffc000 |   0x7fffc000 |   0x7fffc000 |   0x7fffc000 |   0x7fffc000 |   0x7fffc000 |   0x7fffc000 |   0x7fffc000 |   0x7fffc000 |   0x7fffc000 |   0x7fffc000 |   0x7fffc000 |   0x7fffc000 |   0x7fffc000 |   0x7fffc000 |   0x7fffc000 |   0x7fffc000 |   0x7fffc000 |   0x7fffc000 |   0x7fffc000 |   0x7fffc000 |   0x7fffc000 |   0x7fffc000 |   0x7fffc000 |   0x7fffc000 |   0x7fffc000 |   0x7fffc000 |   0x7fffc000 |   0x7fffc000 |   0x7fffc000 |   0x7fffc000 |   0x7fffc000 |   0x7fffc000 |   0x7fffc000 |   0x7fffc000 |   0x7fffc000 |   0x7fffc000 |
ld_stack_size                                16384 |        16384 |        16384 |        16384 |        16384 |        16384 |        16384 |        16384 |        16384 |        16384 |        16384 |        16384 |        16384 |        16384 |        16384 |        16384 |        16384 |        16384 |        16384 |        16384 |        16384 |        16384 |        16384 |        16384 |        16384 |        16384 |        16384 |        16384 |        16384 |        16384 |        16384 |        16384 |        16384 |        16384 |        16384 |        16384 |        16384 |        16384 |        16384 |        16384 |        16384 |        16384 |        16384 |        16384 |
ld_prog_entry                           0x00400140 |   0x00400140 |   0x00400140 |   0x00400140 |   0x00400140 |   0x00400140 |   0x00400140 |   0x00400140 |   0x00400140 |   0x00400140 |   0x00400140 |   0x00400140 |   0x00400140 |   0x00400140 |   0x00400140 |   0x00400140 |   0x00400140 |   0x00400140 |   0x00400140 |   0x00400140 |   0x00400140 |   0x00400140 |   0x00400140 |   0x00400140 |   0x00400140 |   0x00400140 |   0x00400140 |   0x00400140 |   0x00400140 |   0x00400140 |   0x00400140 |   0x00400140 |   0x00400140 |   0x00400140 |   0x00400140 |   0x00400140 |   0x00400140 |   0x00400140 |   0x00400140 |   0x00400140 |   0x00400140 |   0x00400140 |   0x00400140 |   0x00400140 |
ld_environ_base                         0x7fff8000 |   0x7fff8000 |   0x7fff8000 |   0x7fff8000 |   0x7fff8000 |   0x7fff8000 |   0x7fff8000 |   0x7fff8000 |   0x7fff8000 |   0x7fff8000 |   0x7fff8000 |   0x7fff8000 |   0x7fff8000 |   0x7fff8000 |   0x7fff8000 |   0x7fff8000 |   0x7fff8000 |   0x7fff8000 |   0x7fff8000 |   0x7fff8000 |   0x7fff8000 |   0x7fff8000 |   0x7fff8000 |   0x7fff8000 |   0x7fff8000 |   0x7fff8000 |   0x7fff8000 |   0x7fff8000 |   0x7fff8000 |   0x7fff8000 |   0x7fff8000 |   0x7fff8000 |   0x7fff8000 |   0x7fff8000 |   0x7fff8000 |   0x7fff8000 |   0x7fff8000 |   0x7fff8000 |   0x7fff8000 |   0x7fff8000 |   0x7fff8000 |   0x7fff8000 |   0x7fff8000 |   0x7fff8000 |
ld_target_big_endian                             0 |            0 |            0 |            0 |            0 |            0 |            0 |            0 |            0 |            0 |            0 |            0 |            0 |            0 |            0 |            0 |            0 |            0 |            0 |            0 |            0 |            0 |            0 |            0 |            0 |            0 |            0 |            0 |            0 |            0 |            0 |            0 |            0 |            0 |            0 |            0 |            0 |            0 |            0 |            0 |            0 |            0 |            0 |            0 |
mem.page_count                                  30 |           30 |           30 |           30 |           34 |           34 |           34 |           34 |           42 |           42 |           42 |           42 |           58 |           58 |           58 |           58 |           90 |           90 |           90 |           90 |          154 |          154 |          154 |          154 |          282 |          282 |          282 |          282 |          538 |          538 |          538 |          538 |         1050 |         1050 |         1050 |         1050 |         2074 |         2074 |         2074 |         2074 |         4122 |         4122 |         4122 |         4122 |
mem.page_mem                                  120k |         120k |         120k |         120k |         136k |         136k |         136k |         136k |         168k |         168k |         168k |         168k |         232k |         232k |         232k |         232k |         360k |         360k |         360k |         360k |         616k |         616k |         616k |         616k |        1128k |        1128k |        1128k |        1128k |        2152k |        2152k |        2152k |        2152k |        4200k |        4200k |        4200k |        4200k |        8296k |        8296k |        8296k |        8296k |       16488k |       16488k |       16488k |       16488k |
mem.ptab_misses                                 30 |           30 |           30 |           30 |           34 |           34 |           34 |           34 |           42 |           42 |           42 |           42 |           58 |           58 |           58 |           58 |           90 |           90 |           90 |           90 |          154 |          154 |          154 |          154 |          282 |          282 |          282 |          282 |          538 |          538 |          538 |          538 |         1050 |         1050 |         1050 |         1050 |         2074 |         2074 |         2074 |         2074 |         4122 |         4122 |         4122 |         4122 |
mem.ptab_accesses                          2660404 |      2660404 |      2660404 |      2660404 |      5094112 |      5094112 |      5094112 |      5094112 |     10336350 |     10336350 |     10336350 |     10336350 |     21581376 |     21581376 |     21581376 |     21581376 |     44550878 |     44550878 |     44550878 |     44550878 |     94645500 |     94645500 |     94645500 |     94645500 |    199014456 |    199014456 |    199014456 |    199014456 |    417679628 |    417679628 |    417679628 |    417679628 |    879325664 |    879325664 |    879325664 |    879325664 |   1838127156 |   1838127156 |   1838127156 |   1838127156 |   3832267484 |   3832267484 |   3832267484 |   3832267484 |
mem.ptab_miss_rate                          0.0000 |       0.0000 |       0.0000 |       0.0000 |       0.0000 |       0.0000 |       0.0000 |       0.0000 |       0.0000 |       0.0000 |       0.0000 |       0.0000 |       0.0000 |       0.0000 |       0.0000 |       0.0000 |       0.0000 |       0.0000 |       0.0000 |       0.0000 |       0.0000 |       0.0000 |       0.0000 |       0.0000 |       0.0000 |       0.0000 |       0.0000 |       0.0000 |       0.0000 |       0.0000 |       0.0000 |       0.0000 |       0.0000 |       0.0000 |       0.0000 |       0.0000 |       0.0000 |       0.0000 |       0.0000 |       0.0000 |       0.0000 |       0.0000 |       0.0000 |       0.0000 |
-------------------------------------------------------------------------------------------------
sim-bpred                                     4096 |         4096 |         4096 |         4096 |         4096 |         4096 |         4096 |         8192 |         8192 |         8192 |         8192 |         8192 |         8192 |         8192 |        16384 |        16384 |        16384 |        16384 |        16384 |        16384 |        16384 |        32768 |        32768 |        32768 |        32768 |        32768 |        32768 |        32768 |        65536 |        65536 |        65536 |        65536 |        65536 |        65536 |        65536 |       131072 |       131072 |       131072 |       131072 |       131072 |       131072 |       131072 |       262144 |       262144 |       262144 |       262144 |       262144 |       262144 |       262144 |       524288 |       524288 |       524288 |       524288 |       524288 |       524288 |       524288 |      1048576 |      1048576 |      1048576 |      1048576 |      1048576 |      1048576 |      1048576 |      2097152 |      2097152 |      2097152 |      2097152 |      2097152 |      2097152 |      2097152 |      4194304 |      4194304 |      4194304 |      4194304 |      4194304 |      4194304 |      4194304 |
-bpred bimod -bpred:bimod 512
-bpred bimod -bpred:bimod 1024
-bpred bimod -bpred:bimod 2048
-bpred 2lev -bpred:2lev 1 512 10 1
-bpred 2lev -bpred:2lev 1 1024 10 1
-bpred 2lev -bpred:2lev 1 2048 10 1
-bpred 2lev -bpred:2lev 1 4096 10 1
-------------------------------------------------------------------------------------------------
sim_num_insn                                479333 |       479333 |       479333 |       479333 |       479333 |       479333 |       479333 |      1010631 |      1010631 |      1010631 |      1010631 |      1010631 |      1010631 |      1010631 |      2158499 |      2158499 |      2158499 |      2158499 |      2158499 |      2158499 |      2158499 |      4624423 |      4624423 |      4624423 |      4624423 |      4624423 |      4624423 |      4624423 |      9654517 |      9654517 |      9654517 |      9654517 |      9654517 |      9654517 |      9654517 |     20660948 |     20660948 |     20660948 |     20660948 |     20660948 |     20660948 |     20660948 |     43599805 |     43599805 |     43599805 |     43599805 |     43599805 |     43599805 |     43599805 |     91689699 |     91689699 |     91689699 |     91689699 |     91689699 |     91689699 |     91689699 |    193340818 |    193340818 |    193340818 |    193340818 |    193340818 |    193340818 |    193340818 |    404531195 |    404531195 |    404531195 |    404531195 |    404531195 |    404531195 |    404531195 |    843989159 |    843989159 |    843989159 |    843989159 |    843989159 |    843989159 |    843989159 |
sim_num_refs                                126959 |       126959 |       126959 |       126959 |       126959 |       126959 |       126959 |       264737 |       264737 |       264737 |       264737 |       264737 |       264737 |       264737 |       557304 |       557304 |       557304 |       557304 |       557304 |       557304 |       557304 |      1182385 |      1182385 |      1182385 |      1182385 |      1182385 |      1182385 |      1182385 |      2475876 |      2475876 |      2475876 |      2475876 |      2475876 |      2475876 |      2475876 |      5248181 |      5248181 |      5248181 |      5248181 |      5248181 |      5248181 |      5248181 |     11030657 |     11030657 |     11030657 |     11030657 |     11030657 |     11030657 |     11030657 |     23134879 |     23134879 |     23134879 |     23134879 |     23134879 |     23134879 |     23134879 |     48558507 |     48558507 |     48558507 |     48558507 |     48558507 |     48558507 |     48558507 |    101384195 |    101384195 |    101384195 |    101384195 |    101384195 |    101384195 |    101384195 |    211149823 |    211149823 |    211149823 |    211149823 |    211149823 |    211149823 |    211149823 |
sim_elapsed_time                                 1 |            1 |            1 |            1 |            1 |            1 |            1 |            1 |            1 |            1 |            1 |            1 |            1 |            1 |            1 |            1 |            1 |            1 |            1 |            1 |            1 |            1 |            1 |            1 |            1 |            1 |            1 |            1 |            1 |            1 |            1 |            2 |            1 |            1 |            1 |            3 |            2 |            3 |            3 |            2 |            3 |            3 |            5 |            6 |            5 |            6 |            5 |            6 |            5 |           12 |           11 |           12 |           12 |           11 |           12 |           12 |           25 |           24 |           24 |           25 |           24 |           25 |           25 |           51 |           51 |           51 |           51 |           51 |           52 |           51 |          105 |          106 |          105 |          108 |          107 |          107 |          108 |
sim_inst_rate                          479333.0000 |  479333.0000 |  479333.0000 |  479333.0000 |  479333.0000 |  479333.0000 |  479333.0000 | 1010631.0000 | 1010631.0000 | 1010631.0000 | 1010631.0000 | 1010631.0000 | 1010631.0000 | 1010631.0000 | 2158499.0000 | 2158499.0000 | 2158499.0000 | 2158499.0000 | 2158499.0000 | 2158499.0000 | 2158499.0000 | 4624423.0000 | 4624423.0000 | 4624423.0000 | 4624423.0000 | 4624423.0000 | 4624423.0000 | 4624423.0000 | 9654517.0000 | 9654517.0000 | 9654517.0000 | 4827258.5000 | 9654517.0000 | 9654517.0000 | 9654517.0000 | 6886982.6667 |10330474.0000 | 6886982.6667 | 6886982.6667 |10330474.0000 | 6886982.6667 | 6886982.6667 | 8719961.0000 | 7266634.1667 | 8719961.0000 | 7266634.1667 | 8719961.0000 | 7266634.1667 | 8719961.0000 | 7640808.2500 | 8335427.1818 | 7640808.2500 | 7640808.2500 | 8335427.1818 | 7640808.2500 | 7640808.2500 | 7733632.7200 | 8055867.4167 | 8055867.4167 | 7733632.7200 | 8055867.4167 | 7733632.7200 | 7733632.7200 | 7931984.2157 | 7931984.2157 | 7931984.2157 | 7931984.2157 | 7931984.2157 | 7779446.0577 | 7931984.2157 | 8037991.9905 | 7962161.8774 | 8037991.9905 | 7814714.4352 | 7887749.1495 | 7887749.1495 | 7814714.4352 |
sim_num_branches                             78934 |        78934 |        78934 |        78934 |        78934 |        78934 |        78934 |       167663 |       167663 |       167663 |       167663 |       167663 |       167663 |       167663 |       360738 |       360738 |       360738 |       360738 |       360738 |       360738 |       360738 |       777164 |       777164 |       777164 |       777164 |       777164 |       777164 |       777164 |      1628938 |      1628938 |      1628938 |      1628938 |      1628938 |      1628938 |      1628938 |      3496628 |      3496628 |      3496628 |      3496628 |      3496628 |      3496628 |      3496628 |      7402424 |      7402424 |      7402424 |      7402424 |      7402424 |      7402424 |      7402424 |     15634907 |     15634907 |     15634907 |     15634907 |     15634907 |     15634907 |     15634907 |     33055307 |     33055307 |     33055307 |     33055307 |     33055307 |     33055307 |     33055307 |     69340415 |     69340415 |     69340415 |     69340415 |     69340415 |     69340415 |     69340415 |    145028946 |    145028946 |    145028946 |    145028946 |    145028946 |    145028946 |    145028946 |
sim_IPB                                     6.0726 |       6.0726 |       6.0726 |       6.0726 |       6.0726 |       6.0726 |       6.0726 |       6.0278 |       6.0278 |       6.0278 |       6.0278 |       6.0278 |       6.0278 |       6.0278 |       5.9836 |       5.9836 |       5.9836 |       5.9836 |       5.9836 |       5.9836 |       5.9836 |       5.9504 |       5.9504 |       5.9504 |       5.9504 |       5.9504 |       5.9504 |       5.9504 |       5.9269 |       5.9269 |       5.9269 |       5.9269 |       5.9269 |       5.9269 |       5.9269 |       5.9088 |       5.9088 |       5.9088 |       5.9088 |       5.9088 |       5.9088 |       5.9088 |       5.8899 |       5.8899 |       5.8899 |       5.8899 |       5.8899 |       5.8899 |       5.8899 |       5.8644 |       5.8644 |       5.8644 |       5.8644 |       5.8644 |       5.8644 |       5.8644 |       5.8490 |       5.8490 |       5.8490 |       5.8490 |       5.8490 |       5.8490 |       5.8490 |       5.8340 |       5.8340 |       5.8340 |       5.8340 |       5.8340 |       5.8340 |       5.8340 |       5.8195 |       5.8195 |       5.8195 |       5.8195 |       5.8195 |       5.8195 |       5.8195 |
bpred_bimod.lookups                          78934 |        78934 |        78934 |xxxxxxxxxxxxx |xxxxxxxxxxxxx |xxxxxxxxxxxxx |xxxxxxxxxxxxx |       167663 |       167663 |       167663 |xxxxxxxxxxxxx |xxxxxxxxxxxxx |xxxxxxxxxxxxx |xxxxxxxxxxxxx |       360738 |       360738 |       360738 |xxxxxxxxxxxxx |xxxxxxxxxxxxx |xxxxxxxxxxxxx |xxxxxxxxxxxxx |       777164 |       777164 |       777164 |xxxxxxxxxxxxx |xxxxxxxxxxxxx |xxxxxxxxxxxxx |xxxxxxxxxxxxx |      1628938 |      1628938 |      1628938 |xxxxxxxxxxxxx |xxxxxxxxxxxxx |xxxxxxxxxxxxx |xxxxxxxxxxxxx |      3496628 |      3496628 |      3496628 |xxxxxxxxxxxxx |xxxxxxxxxxxxx |xxxxxxxxxxxxx |xxxxxxxxxxxxx |      7402424 |      7402424 |      7402424 |xxxxxxxxxxxxx |xxxxxxxxxxxxx |xxxxxxxxxxxxx |xxxxxxxxxxxxx |     15634907 |     15634907 |     15634907 |xxxxxxxxxxxxx |xxxxxxxxxxxxx |xxxxxxxxxxxxx |xxxxxxxxxxxxx |     33055307 |     33055307 |     33055307 |xxxxxxxxxxxxx |xxxxxxxxxxxxx |xxxxxxxxxxxxx |xxxxxxxxxxxxx |     69340415 |     69340415 |     69340415 |xxxxxxxxxxxxx |xxxxxxxxxxxxx |xxxxxxxxxxxxx |xxxxxxxxxxxxx |    145028946 |    145028946 |    145028946 |
bpred_bimod.updates                          78934 |        78934 |        78934 |xxxxxxxxxxxxx |xxxxxxxxxxxxx |xxxxxxxxxxxxx |xxxxxxxxxxxxx |       167663 |       167663 |       167663 |xxxxxxxxxxxxx |xxxxxxxxxxxxx |xxxxxxxxxxxxx |xxxxxxxxxxxxx |       360738 |       360738 |       360738 |xxxxxxxxxxxxx |xxxxxxxxxxxxx |xxxxxxxxxxxxx |xxxxxxxxxxxxx |       777164 |       777164 |       777164 |xxxxxxxxxxxxx |xxxxxxxxxxxxx |xxxxxxxxxxxxx |xxxxxxxxxxxxx |      1628938 |      1628938 |      1628938 |xxxxxxxxxxxxx |xxxxxxxxxxxxx |xxxxxxxxxxxxx |xxxxxxxxxxxxx |      3496628 |      3496628 |      3496628 |xxxxxxxxxxxxx |xxxxxxxxxxxxx |xxxxxxxxxxxxx |xxxxxxxxxxxxx |      7402424 |      7402424 |      7402424 |xxxxxxxxxxxxx |xxxxxxxxxxxxx |xxxxxxxxxxxxx |xxxxxxxxxxxxx |     15634907 |     15634907 |     15634907 |xxxxxxxxxxxxx |xxxxxxxxxxxxx |xxxxxxxxxxxxx |xxxxxxxxxxxxx |     33055307 |     33055307 |     33055307 |xxxxxxxxxxxxx |xxxxxxxxxxxxx |xxxxxxxxxxxxx |xxxxxxxxxxxxx |     69340415 |     69340415 |     69340415 |xxxxxxxxxxxxx |xxxxxxxxxxxxx |xxxxxxxxxxxxx |xxxxxxxxxxxxx |    145028946 |    145028946 |    145028946 |
bpred_bimod.addr_hits                        56316 |        56314 |        56314 |xxxxxxxxxxxxx |xxxxxxxxxxxxx |xxxxxxxxxxxxx |xxxxxxxxxxxxx |       119341 |       119339 |       119339 |xxxxxxxxxxxxx |xxxxxxxxxxxxx |xxxxxxxxxxxxx |xxxxxxxxxxxxx |       259471 |       259474 |       259476 |xxxxxxxxxxxxx |xxxxxxxxxxxxx |xxxxxxxxxxxxx |xxxxxxxxxxxxx |       558901 |       558904 |       558905 |xxxxxxxxxxxxx |xxxxxxxxxxxxx |xxxxxxxxxxxxx |xxxxxxxxxxxxx |      1154216 |      1154217 |      1154219 |xxxxxxxxxxxxx |xxxxxxxxxxxxx |xxxxxxxxxxxxx |xxxxxxxxxxxxx |      2498061 |      2498062 |      2498062 |xxxxxxxxxxxxx |xxxxxxxxxxxxx |xxxxxxxxxxxxx |xxxxxxxxxxxxx |      5288662 |      5288664 |      5288664 |xxxxxxxxxxxxx |xxxxxxxxxxxxx |xxxxxxxxxxxxx |xxxxxxxxxxxxx |     11174176 |     11174178 |     11174178 |xxxxxxxxxxxxx |xxxxxxxxxxxxx |xxxxxxxxxxxxx |xxxxxxxxxxxxx |     23686051 |     23686051 |     23686055 |xxxxxxxxxxxxx |xxxxxxxxxxxxx |xxxxxxxxxxxxx |xxxxxxxxxxxxx |     49582990 |     49582994 |     49582995 |xxxxxxxxxxxxx |xxxxxxxxxxxxx |xxxxxxxxxxxxx |xxxxxxxxxxxxx |    103735199 |    103735200 |    103735200 |
bpred_bimod.dir_hits                         56431 |        56423 |        56423 |xxxxxxxxxxxxx |xxxxxxxxxxxxx |xxxxxxxxxxxxx |xxxxxxxxxxxxx |       119457 |       119452 |       119453 |xxxxxxxxxxxxx |xxxxxxxxxxxxx |xxxxxxxxxxxxx |xxxxxxxxxxxxx |       259586 |       259586 |       259588 |xxxxxxxxxxxxx |xxxxxxxxxxxxx |xxxxxxxxxxxxx |xxxxxxxxxxxxx |       559017 |       559017 |       559017 |xxxxxxxxxxxxx |xxxxxxxxxxxxx |xxxxxxxxxxxxx |xxxxxxxxxxxxx |      1154332 |      1154330 |      1154332 |xxxxxxxxxxxxx |xxxxxxxxxxxxx |xxxxxxxxxxxxx |xxxxxxxxxxxxx |      2498175 |      2498173 |      2498172 |xxxxxxxxxxxxx |xxxxxxxxxxxxx |xxxxxxxxxxxxx |xxxxxxxxxxxxx |      5288780 |      5288779 |      5288778 |xxxxxxxxxxxxx |xxxxxxxxxxxxx |xxxxxxxxxxxxx |xxxxxxxxxxxxx |     11174293 |     11174292 |     11174291 |xxxxxxxxxxxxx |xxxxxxxxxxxxx |xxxxxxxxxxxxx |xxxxxxxxxxxxx |     23686167 |     23686164 |     23686168 |xxxxxxxxxxxxx |xxxxxxxxxxxxx |xxxxxxxxxxxxx |xxxxxxxxxxxxx |     49583107 |     49583108 |     49583108 |xxxxxxxxxxxxx |xxxxxxxxxxxxx |xxxxxxxxxxxxx |xxxxxxxxxxxxx |    103735318 |    103735316 |    103735315 |
bpred_bimod.misses                           22503 |        22511 |        22511 |xxxxxxxxxxxxx |xxxxxxxxxxxxx |xxxxxxxxxxxxx |xxxxxxxxxxxxx |        48206 |        48211 |        48210 |xxxxxxxxxxxxx |xxxxxxxxxxxxx |xxxxxxxxxxxxx |xxxxxxxxxxxxx |       101152 |       101152 |       101150 |xxxxxxxxxxxxx |xxxxxxxxxxxxx |xxxxxxxxxxxxx |xxxxxxxxxxxxx |       218147 |       218147 |       218147 |xxxxxxxxxxxxx |xxxxxxxxxxxxx |xxxxxxxxxxxxx |xxxxxxxxxxxxx |       474606 |       474608 |       474606 |xxxxxxxxxxxxx |xxxxxxxxxxxxx |xxxxxxxxxxxxx |xxxxxxxxxxxxx |       998453 |       998455 |       998456 |xxxxxxxxxxxxx |xxxxxxxxxxxxx |xxxxxxxxxxxxx |xxxxxxxxxxxxx |      2113644 |      2113645 |      2113646 |xxxxxxxxxxxxx |xxxxxxxxxxxxx |xxxxxxxxxxxxx |xxxxxxxxxxxxx |      4460614 |      4460615 |      4460616 |xxxxxxxxxxxxx |xxxxxxxxxxxxx |xxxxxxxxxxxxx |xxxxxxxxxxxxx |      9369140 |      9369143 |      9369139 |xxxxxxxxxxxxx |xxxxxxxxxxxxx |xxxxxxxxxxxxx |xxxxxxxxxxxxx |     19757308 |     19757307 |     19757307 |xxxxxxxxxxxxx |xxxxxxxxxxxxx |xxxxxxxxxxxxx |xxxxxxxxxxxxx |     41293628 |     41293630 |     41293631 |
bpred_bimod.jr_hits                             64 |           64 |           64 |xxxxxxxxxxxxx |xxxxxxxxxxxxx |xxxxxxxxxxxxx |xxxxxxxxxxxxx |           64 |           64 |           64 |xxxxxxxxxxxxx |xxxxxxxxxxxxx |xxxxxxxxxxxxx |xxxxxxxxxxxxx |           64 |           64 |           64 |xxxxxxxxxxxxx |xxxxxxxxxxxxx |xxxxxxxxxxxxx |xxxxxxxxxxxxx |           64 |           64 |           64 |xxxxxxxxxxxxx |xxxxxxxxxxxxx |xxxxxxxxxxxxx |xxxxxxxxxxxxx |           64 |           64 |           64 |xxxxxxxxxxxxx |xxxxxxxxxxxxx |xxxxxxxxxxxxx |xxxxxxxxxxxxx |           64 |           64 |           64 |xxxxxxxxxxxxx |xxxxxxxxxxxxx |xxxxxxxxxxxxx |xxxxxxxxxxxxx |           64 |           64 |           64 |xxxxxxxxxxxxx |xxxxxxxxxxxxx |xxxxxxxxxxxxx |xxxxxxxxxxxxx |           64 |           64 |           64 |xxxxxxxxxxxxx |xxxxxxxxxxxxx |xxxxxxxxxxxxx |xxxxxxxxxxxxx |           64 |           64 |           64 |xxxxxxxxxxxxx |xxxxxxxxxxxxx |xxxxxxxxxxxxx |xxxxxxxxxxxxx |           64 |           64 |           64 |xxxxxxxxxxxxx |xxxxxxxxxxxxx |xxxxxxxxxxxxx |xxxxxxxxxxxxx |           64 |           64 |           64 |
bpred_bimod.jr_seen                             64 |           64 |           64 |xxxxxxxxxxxxx |xxxxxxxxxxxxx |xxxxxxxxxxxxx |xxxxxxxxxxxxx |           64 |           64 |           64 |xxxxxxxxxxxxx |xxxxxxxxxxxxx |xxxxxxxxxxxxx |xxxxxxxxxxxxx |           64 |           64 |           64 |xxxxxxxxxxxxx |xxxxxxxxxxxxx |xxxxxxxxxxxxx |xxxxxxxxxxxxx |           64 |           64 |           64 |xxxxxxxxxxxxx |xxxxxxxxxxxxx |xxxxxxxxxxxxx |xxxxxxxxxxxxx |           64 |           64 |           64 |xxxxxxxxxxxxx |xxxxxxxxxxxxx |xxxxxxxxxxxxx |xxxxxxxxxxxxx |           64 |           64 |           64 |xxxxxxxxxxxxx |xxxxxxxxxxxxx |xxxxxxxxxxxxx |xxxxxxxxxxxxx |           64 |           64 |           64 |xxxxxxxxxxxxx |xxxxxxxxxxxxx |xxxxxxxxxxxxx |xxxxxxxxxxxxx |           64 |           64 |           64 |xxxxxxxxxxxxx |xxxxxxxxxxxxx |xxxxxxxxxxxxx |xxxxxxxxxxxxx |           64 |           64 |           64 |xxxxxxxxxxxxx |xxxxxxxxxxxxx |xxxxxxxxxxxxx |xxxxxxxxxxxxx |           64 |           64 |           64 |xxxxxxxxxxxxx |xxxxxxxxxxxxx |xxxxxxxxxxxxx |xxxxxxxxxxxxx |           64 |           64 |           64 |
bpred_bimod.jr_non_ras_hits.PP                   0 |            0 |            0 |xxxxxxxxxxxxx |xxxxxxxxxxxxx |xxxxxxxxxxxxx |xxxxxxxxxxxxx |            0 |            0 |            0 |xxxxxxxxxxxxx |xxxxxxxxxxxxx |xxxxxxxxxxxxx |xxxxxxxxxxxxx |            0 |            0 |            0 |xxxxxxxxxxxxx |xxxxxxxxxxxxx |xxxxxxxxxxxxx |xxxxxxxxxxxxx |            0 |            0 |            0 |xxxxxxxxxxxxx |xxxxxxxxxxxxx |xxxxxxxxxxxxx |xxxxxxxxxxxxx |            0 |            0 |            0 |xxxxxxxxxxxxx |xxxxxxxxxxxxx |xxxxxxxxxxxxx |xxxxxxxxxxxxx |            0 |            0 |            0 |xxxxxxxxxxxxx |xxxxxxxxxxxxx |xxxxxxxxxxxxx |xxxxxxxxxxxxx |            0 |            0 |            0 |xxxxxxxxxxxxx |xxxxxxxxxxxxx |xxxxxxxxxxxxx |xxxxxxxxxxxxx |            0 |            0 |            0 |xxxxxxxxxxxxx |xxxxxxxxxxxxx |xxxxxxxxxxxxx |xxxxxxxxxxxxx |            0 |            0 |            0 |xxxxxxxxxxxxx |xxxxxxxxxxxxx |xxxxxxxxxxxxx |xxxxxxxxxxxxx |            0 |            0 |            0 |xxxxxxxxxxxxx |xxxxxxxxxxxxx |xxxxxxxxxxxxx |xxxxxxxxxxxxx |            0 |            0 |            0 |
bpred_bimod.jr_non_ras_seen.PP                   0 |            0 |            0 |xxxxxxxxxxxxx |xxxxxxxxxxxxx |xxxxxxxxxxxxx |xxxxxxxxxxxxx |            0 |            0 |            0 |xxxxxxxxxxxxx |xxxxxxxxxxxxx |xxxxxxxxxxxxx |xxxxxxxxxxxxx |            0 |            0 |            0 |xxxxxxxxxxxxx |xxxxxxxxxxxxx |xxxxxxxxxxxxx |xxxxxxxxxxxxx |            0 |            0 |            0 |xxxxxxxxxxxxx |xxxxxxxxxxxxx |xxxxxxxxxxxxx |xxxxxxxxxxxxx |            0 |            0 |            0 |xxxxxxxxxxxxx |xxxxxxxxxxxxx |xxxxxxxxxxxxx |xxxxxxxxxxxxx |            0 |            0 |            0 |xxxxxxxxxxxxx |xxxxxxxxxxxxx |xxxxxxxxxxxxx |xxxxxxxxxxxxx |            0 |            0 |            0 |xxxxxxxxxxxxx |xxxxxxxxxxxxx |xxxxxxxxxxxxx |xxxxxxxxxxxxx |            0 |            0 |            0 |xxxxxxxxxxxxx |xxxxxxxxxxxxx |xxxxxxxxxxxxx |xxxxxxxxxxxxx |            0 |            0 |            0 |xxxxxxxxxxxxx |xxxxxxxxxxxxx |xxxxxxxxxxxxx |xxxxxxxxxxxxx |            0 |            0 |            0 |xxxxxxxxxxxxx |xxxxxxxxxxxxx |xxxxxxxxxxxxx |xxxxxxxxxxxxx |            0 |            0 |            0 |
bpred_bimod.bpred_addr_rate                 0.7135 |       0.7134 |       0.7134 |xxxxxxxxxxxxx |xxxxxxxxxxxxx |xxxxxxxxxxxxx |xxxxxxxxxxxxx |       0.7118 |       0.7118 |       0.7118 |xxxxxxxxxxxxx |xxxxxxxxxxxxx |xxxxxxxxxxxxx |xxxxxxxxxxxxx |       0.7193 |       0.7193 |       0.7193 |xxxxxxxxxxxxx |xxxxxxxxxxxxx |xxxxxxxxxxxxx |xxxxxxxxxxxxx |       0.7192 |       0.7192 |       0.7192 |xxxxxxxxxxxxx |xxxxxxxxxxxxx |xxxxxxxxxxxxx |xxxxxxxxxxxxx |       0.7086 |       0.7086 |       0.7086 |xxxxxxxxxxxxx |xxxxxxxxxxxxx |xxxxxxxxxxxxx |xxxxxxxxxxxxx |       0.7144 |       0.7144 |       0.7144 |xxxxxxxxxxxxx |xxxxxxxxxxxxx |xxxxxxxxxxxxx |xxxxxxxxxxxxx |       0.7145 |       0.7145 |       0.7145 |xxxxxxxxxxxxx |xxxxxxxxxxxxx |xxxxxxxxxxxxx |xxxxxxxxxxxxx |       0.7147 |       0.7147 |       0.7147 |xxxxxxxxxxxxx |xxxxxxxxxxxxx |xxxxxxxxxxxxx |xxxxxxxxxxxxx |       0.7166 |       0.7166 |       0.7166 |xxxxxxxxxxxxx |xxxxxxxxxxxxx |xxxxxxxxxxxxx |xxxxxxxxxxxxx |       0.7151 |       0.7151 |       0.7151 |xxxxxxxxxxxxx |xxxxxxxxxxxxx |xxxxxxxxxxxxx |xxxxxxxxxxxxx |       0.7153 |       0.7153 |       0.7153 |
bpred_bimod.bpred_dir_rate                  0.7149 |       0.7148 |       0.7148 |xxxxxxxxxxxxx |xxxxxxxxxxxxx |xxxxxxxxxxxxx |xxxxxxxxxxxxx |       0.7125 |       0.7125 |       0.7125 |xxxxxxxxxxxxx |xxxxxxxxxxxxx |xxxxxxxxxxxxx |xxxxxxxxxxxxx |       0.7196 |       0.7196 |       0.7196 |xxxxxxxxxxxxx |xxxxxxxxxxxxx |xxxxxxxxxxxxx |xxxxxxxxxxxxx |       0.7193 |       0.7193 |       0.7193 |xxxxxxxxxxxxx |xxxxxxxxxxxxx |xxxxxxxxxxxxx |xxxxxxxxxxxxx |       0.7086 |       0.7086 |       0.7086 |xxxxxxxxxxxxx |xxxxxxxxxxxxx |xxxxxxxxxxxxx |xxxxxxxxxxxxx |       0.7145 |       0.7145 |       0.7145 |xxxxxxxxxxxxx |xxxxxxxxxxxxx |xxxxxxxxxxxxx |xxxxxxxxxxxxx |       0.7145 |       0.7145 |       0.7145 |xxxxxxxxxxxxx |xxxxxxxxxxxxx |xxxxxxxxxxxxx |xxxxxxxxxxxxx |       0.7147 |       0.7147 |       0.7147 |xxxxxxxxxxxxx |xxxxxxxxxxxxx |xxxxxxxxxxxxx |xxxxxxxxxxxxx |       0.7166 |       0.7166 |       0.7166 |xxxxxxxxxxxxx |xxxxxxxxxxxxx |xxxxxxxxxxxxx |xxxxxxxxxxxxx |       0.7151 |       0.7151 |       0.7151 |xxxxxxxxxxxxx |xxxxxxxxxxxxx |xxxxxxxxxxxxx |xxxxxxxxxxxxx |       0.7153 |       0.7153 |       0.7153 |
bpred_bimod.bpred_jr_rate                   1.0000 |       1.0000 |       1.0000 |xxxxxxxxxxxxx |xxxxxxxxxxxxx |xxxxxxxxxxxxx |xxxxxxxxxxxxx |       1.0000 |       1.0000 |       1.0000 |xxxxxxxxxxxxx |xxxxxxxxxxxxx |xxxxxxxxxxxxx |xxxxxxxxxxxxx |       1.0000 |       1.0000 |       1.0000 |xxxxxxxxxxxxx |xxxxxxxxxxxxx |xxxxxxxxxxxxx |xxxxxxxxxxxxx |       1.0000 |       1.0000 |       1.0000 |xxxxxxxxxxxxx |xxxxxxxxxxxxx |xxxxxxxxxxxxx |xxxxxxxxxxxxx |       1.0000 |       1.0000 |       1.0000 |xxxxxxxxxxxxx |xxxxxxxxxxxxx |xxxxxxxxxxxxx |xxxxxxxxxxxxx |       1.0000 |       1.0000 |       1.0000 |xxxxxxxxxxxxx |xxxxxxxxxxxxx |xxxxxxxxxxxxx |xxxxxxxxxxxxx |       1.0000 |       1.0000 |       1.0000 |xxxxxxxxxxxxx |xxxxxxxxxxxxx |xxxxxxxxxxxxx |xxxxxxxxxxxxx |       1.0000 |       1.0000 |       1.0000 |xxxxxxxxxxxxx |xxxxxxxxxxxxx |xxxxxxxxxxxxx |xxxxxxxxxxxxx |       1.0000 |       1.0000 |       1.0000 |xxxxxxxxxxxxx |xxxxxxxxxxxxx |xxxxxxxxxxxxx |xxxxxxxxxxxxx |       1.0000 |       1.0000 |       1.0000 |xxxxxxxxxxxxx |xxxxxxxxxxxxx |xxxxxxxxxxxxx |xxxxxxxxxxxxx |       1.0000 |       1.0000 |       1.0000 |
bpred_bimod.bpred_jr_non_ras_rate.PP       <error: |      <error: |      <error: |xxxxxxxxxxxxx |xxxxxxxxxxxxx |xxxxxxxxxxxxx |xxxxxxxxxxxxx |      <error: |      <error: |      <error: |xxxxxxxxxxxxx |xxxxxxxxxxxxx |xxxxxxxxxxxxx |xxxxxxxxxxxxx |      <error: |      <error: |      <error: |xxxxxxxxxxxxx |xxxxxxxxxxxxx |xxxxxxxxxxxxx |xxxxxxxxxxxxx |      <error: |      <error: |      <error: |xxxxxxxxxxxxx |xxxxxxxxxxxxx |xxxxxxxxxxxxx |xxxxxxxxxxxxx |      <error: |      <error: |      <error: |xxxxxxxxxxxxx |xxxxxxxxxxxxx |xxxxxxxxxxxxx |xxxxxxxxxxxxx |      <error: |      <error: |      <error: |xxxxxxxxxxxxx |xxxxxxxxxxxxx |xxxxxxxxxxxxx |xxxxxxxxxxxxx |      <error: |      <error: |      <error: |xxxxxxxxxxxxx |xxxxxxxxxxxxx |xxxxxxxxxxxxx |xxxxxxxxxxxxx |      <error: |      <error: |      <error: |xxxxxxxxxxxxx |xxxxxxxxxxxxx |xxxxxxxxxxxxx |xxxxxxxxxxxxx |      <error: |      <error: |      <error: |xxxxxxxxxxxxx |xxxxxxxxxxxxx |xxxxxxxxxxxxx |xxxxxxxxxxxxx |      <error: |      <error: |      <error: |xxxxxxxxxxxxx |xxxxxxxxxxxxx |xxxxxxxxxxxxx |xxxxxxxxxxxxx |      <error: |      <error: |      <error: |
bpred_bimod.retstack_pushes                     66 |           66 |           66 |xxxxxxxxxxxxx |xxxxxxxxxxxxx |xxxxxxxxxxxxx |xxxxxxxxxxxxx |           66 |           66 |           66 |xxxxxxxxxxxxx |xxxxxxxxxxxxx |xxxxxxxxxxxxx |xxxxxxxxxxxxx |           66 |           66 |           66 |xxxxxxxxxxxxx |xxxxxxxxxxxxx |xxxxxxxxxxxxx |xxxxxxxxxxxxx |           66 |           66 |           66 |xxxxxxxxxxxxx |xxxxxxxxxxxxx |xxxxxxxxxxxxx |xxxxxxxxxxxxx |           66 |           66 |           66 |xxxxxxxxxxxxx |xxxxxxxxxxxxx |xxxxxxxxxxxxx |xxxxxxxxxxxxx |           66 |           66 |           66 |xxxxxxxxxxxxx |xxxxxxxxxxxxx |xxxxxxxxxxxxx |xxxxxxxxxxxxx |           66 |           66 |           66 |xxxxxxxxxxxxx |xxxxxxxxxxxxx |xxxxxxxxxxxxx |xxxxxxxxxxxxx |           66 |           66 |           66 |xxxxxxxxxxxxx |xxxxxxxxxxxxx |xxxxxxxxxxxxx |xxxxxxxxxxxxx |           66 |           66 |           66 |xxxxxxxxxxxxx |xxxxxxxxxxxxx |xxxxxxxxxxxxx |xxxxxxxxxxxxx |           66 |           66 |           66 |xxxxxxxxxxxxx |xxxxxxxxxxxxx |xxxxxxxxxxxxx |xxxxxxxxxxxxx |           66 |           66 |           66 |
bpred_bimod.retstack_pops                       64 |           64 |           64 |xxxxxxxxxxxxx |xxxxxxxxxxxxx |xxxxxxxxxxxxx |xxxxxxxxxxxxx |           64 |           64 |           64 |xxxxxxxxxxxxx |xxxxxxxxxxxxx |xxxxxxxxxxxxx |xxxxxxxxxxxxx |           64 |           64 |           64 |xxxxxxxxxxxxx |xxxxxxxxxxxxx |xxxxxxxxxxxxx |xxxxxxxxxxxxx |           64 |           64 |           64 |xxxxxxxxxxxxx |xxxxxxxxxxxxx |xxxxxxxxxxxxx |xxxxxxxxxxxxx |           64 |           64 |           64 |xxxxxxxxxxxxx |xxxxxxxxxxxxx |xxxxxxxxxxxxx |xxxxxxxxxxxxx |           64 |           64 |           64 |xxxxxxxxxxxxx |xxxxxxxxxxxxx |xxxxxxxxxxxxx |xxxxxxxxxxxxx |           64 |           64 |           64 |xxxxxxxxxxxxx |xxxxxxxxxxxxx |xxxxxxxxxxxxx |xxxxxxxxxxxxx |           64 |           64 |           64 |xxxxxxxxxxxxx |xxxxxxxxxxxxx |xxxxxxxxxxxxx |xxxxxxxxxxxxx |           64 |           64 |           64 |xxxxxxxxxxxxx |xxxxxxxxxxxxx |xxxxxxxxxxxxx |xxxxxxxxxxxxx |           64 |           64 |           64 |xxxxxxxxxxxxx |xxxxxxxxxxxxx |xxxxxxxxxxxxx |xxxxxxxxxxxxx |           64 |           64 |           64 |
bpred_bimod.used_ras.PP                         64 |           64 |           64 |xxxxxxxxxxxxx |xxxxxxxxxxxxx |xxxxxxxxxxxxx |xxxxxxxxxxxxx |           64 |           64 |           64 |xxxxxxxxxxxxx |xxxxxxxxxxxxx |xxxxxxxxxxxxx |xxxxxxxxxxxxx |           64 |           64 |           64 |xxxxxxxxxxxxx |xxxxxxxxxxxxx |xxxxxxxxxxxxx |xxxxxxxxxxxxx |           64 |           64 |           64 |xxxxxxxxxxxxx |xxxxxxxxxxxxx |xxxxxxxxxxxxx |xxxxxxxxxxxxx |           64 |           64 |           64 |xxxxxxxxxxxxx |xxxxxxxxxxxxx |xxxxxxxxxxxxx |xxxxxxxxxxxxx |           64 |           64 |           64 |xxxxxxxxxxxxx |xxxxxxxxxxxxx |xxxxxxxxxxxxx |xxxxxxxxxxxxx |           64 |           64 |           64 |xxxxxxxxxxxxx |xxxxxxxxxxxxx |xxxxxxxxxxxxx |xxxxxxxxxxxxx |           64 |           64 |           64 |xxxxxxxxxxxxx |xxxxxxxxxxxxx |xxxxxxxxxxxxx |xxxxxxxxxxxxx |           64 |           64 |           64 |xxxxxxxxxxxxx |xxxxxxxxxxxxx |xxxxxxxxxxxxx |xxxxxxxxxxxxx |           64 |           64 |           64 |xxxxxxxxxxxxx |xxxxxxxxxxxxx |xxxxxxxxxxxxx |xxxxxxxxxxxxx |           64 |           64 |           64 |
bpred_bimod.ras_hits.PP                         64 |           64 |           64 |xxxxxxxxxxxxx |xxxxxxxxxxxxx |xxxxxxxxxxxxx |xxxxxxxxxxxxx |           64 |           64 |           64 |xxxxxxxxxxxxx |xxxxxxxxxxxxx |xxxxxxxxxxxxx |xxxxxxxxxxxxx |           64 |           64 |           64 |xxxxxxxxxxxxx |xxxxxxxxxxxxx |xxxxxxxxxxxxx |xxxxxxxxxxxxx |           64 |           64 |           64 |xxxxxxxxxxxxx |xxxxxxxxxxxxx |xxxxxxxxxxxxx |xxxxxxxxxxxxx |           64 |           64 |           64 |xxxxxxxxxxxxx |xxxxxxxxxxxxx |xxxxxxxxxxxxx |xxxxxxxxxxxxx |           64 |           64 |           64 |xxxxxxxxxxxxx |xxxxxxxxxxxxx |xxxxxxxxxxxxx |xxxxxxxxxxxxx |           64 |           64 |           64 |xxxxxxxxxxxxx |xxxxxxxxxxxxx |xxxxxxxxxxxxx |xxxxxxxxxxxxx |           64 |           64 |           64 |xxxxxxxxxxxxx |xxxxxxxxxxxxx |xxxxxxxxxxxxx |xxxxxxxxxxxxx |           64 |           64 |           64 |xxxxxxxxxxxxx |xxxxxxxxxxxxx |xxxxxxxxxxxxx |xxxxxxxxxxxxx |           64 |           64 |           64 |xxxxxxxxxxxxx |xxxxxxxxxxxxx |xxxxxxxxxxxxx |xxxxxxxxxxxxx |           64 |           64 |           64 |
bpred_bimod.ras_rate.PP                     1.0000 |       1.0000 |       1.0000 |xxxxxxxxxxxxx |xxxxxxxxxxxxx |xxxxxxxxxxxxx |xxxxxxxxxxxxx |       1.0000 |       1.0000 |       1.0000 |xxxxxxxxxxxxx |xxxxxxxxxxxxx |xxxxxxxxxxxxx |xxxxxxxxxxxxx |       1.0000 |       1.0000 |       1.0000 |xxxxxxxxxxxxx |xxxxxxxxxxxxx |xxxxxxxxxxxxx |xxxxxxxxxxxxx |       1.0000 |       1.0000 |       1.0000 |xxxxxxxxxxxxx |xxxxxxxxxxxxx |xxxxxxxxxxxxx |xxxxxxxxxxxxx |       1.0000 |       1.0000 |       1.0000 |xxxxxxxxxxxxx |xxxxxxxxxxxxx |xxxxxxxxxxxxx |xxxxxxxxxxxxx |       1.0000 |       1.0000 |       1.0000 |xxxxxxxxxxxxx |xxxxxxxxxxxxx |xxxxxxxxxxxxx |xxxxxxxxxxxxx |       1.0000 |       1.0000 |       1.0000 |xxxxxxxxxxxxx |xxxxxxxxxxxxx |xxxxxxxxxxxxx |xxxxxxxxxxxxx |       1.0000 |       1.0000 |       1.0000 |xxxxxxxxxxxxx |xxxxxxxxxxxxx |xxxxxxxxxxxxx |xxxxxxxxxxxxx |       1.0000 |       1.0000 |       1.0000 |xxxxxxxxxxxxx |xxxxxxxxxxxxx |xxxxxxxxxxxxx |xxxxxxxxxxxxx |       1.0000 |       1.0000 |       1.0000 |xxxxxxxxxxxxx |xxxxxxxxxxxxx |xxxxxxxxxxxxx |xxxxxxxxxxxxx |       1.0000 |       1.0000 |       1.0000 |
bpred_2lev.lookups                   xxxxxxxxxxxxx |xxxxxxxxxxxxx |xxxxxxxxxxxxx |        78934 |        78934 |        78934 |        78934 |xxxxxxxxxxxxx |xxxxxxxxxxxxx |xxxxxxxxxxxxx |       167663 |       167663 |       167663 |       167663 |xxxxxxxxxxxxx |xxxxxxxxxxxxx |xxxxxxxxxxxxx |       360738 |       360738 |       360738 |       360738 |xxxxxxxxxxxxx |xxxxxxxxxxxxx |xxxxxxxxxxxxx |       777164 |       777164 |       777164 |       777164 |xxxxxxxxxxxxx |xxxxxxxxxxxxx |xxxxxxxxxxxxx |      1628938 |      1628938 |      1628938 |      1628938 |xxxxxxxxxxxxx |xxxxxxxxxxxxx |xxxxxxxxxxxxx |      3496628 |      3496628 |      3496628 |      3496628 |xxxxxxxxxxxxx |xxxxxxxxxxxxx |xxxxxxxxxxxxx |      7402424 |      7402424 |      7402424 |      7402424 |xxxxxxxxxxxxx |xxxxxxxxxxxxx |xxxxxxxxxxxxx |     15634907 |     15634907 |     15634907 |     15634907 |xxxxxxxxxxxxx |xxxxxxxxxxxxx |xxxxxxxxxxxxx |     33055307 |     33055307 |     33055307 |     33055307 |xxxxxxxxxxxxx |xxxxxxxxxxxxx |xxxxxxxxxxxxx |     69340415 |     69340415 |     69340415 |     69340415 |xxxxxxxxxxxxx |xxxxxxxxxxxxx |xxxxxxxxxxxxx |    145028946 |    145028946 |    145028946 |    145028946 |
[...]
bpred_2lev.retstack_pushes           xxxxxxxxxxxxx |xxxxxxxxxxxxx |xxxxxxxxxxxxx |           66 |           66 |           66 |           66 |xxxxxxxxxxxxx |xxxxxxxxxxxxx |xxxxxxxxxxxxx |           66 |           66 |           66 |           66 |xxxxxxxxxxxxx |xxxxxxxxxxxxx |xxxxxxxxxxxxx |           66 |           66 |           66 |           66 |xxxxxxxxxxxxx |xxxxxxxxxxxxx |xxxxxxxxxxxxx |           66 |           66 |           66 |           66 |xxxxxxxxxxxxx |xxxxxxxxxxxxx |xxxxxxxxxxxxx |           66 |           66 |           66 |           66 |xxxxxxxxxxxxx |xxxxxxxxxxxxx |xxxxxxxxxxxxx |           66 |           66 |           66 |           66 |xxxxxxxxxxxxx |xxxxxxxxxxxxx |xxxxxxxxxxxxx |           66 |           66 |           66 |           66 |xxxxxxxxxxxxx |xxxxxxxxxxxxx |xxxxxxxxxxxxx |           66 |           66 |           66 |           66 |xxxxxxxxxxxxx |xxxxxxxxxxxxx |xxxxxxxxxxxxx |           66 |           66 |           66 |           66 |xxxxxxxxxxxxx |xxxxxxxxxxxxx |xxxxxxxxxxxxx |           66 |           66 |           66 |           66 |xxxxxxxxxxxxx |xxxxxxxxxxxxx |xxxxxxxxxxxxx |           66 |           66 |           66 |           66 |
bpred_2lev.retstack_pops             xxxxxxxxxxxxx |xxxxxxxxxxxxx |xxxxxxxxxxxxx |           64 |           64 |           64 |           64 |xxxxxxxxxxxxx |xxxxxxxxxxxxx |xxxxxxxxxxxxx |           64 |           64 |           64 |           64 |xxxxxxxxxxxxx |xxxxxxxxxxxxx |xxxxxxxxxxxxx |           64 |           64 |           64 |           64 |xxxxxxxxxxxxx |xxxxxxxxxxxxx |xxxxxxxxxxxxx |           64 |           64 |           64 |           64 |xxxxxxxxxxxxx |xxxxxxxxxxxxx |xxxxxxxxxxxxx |           64 |           64 |           64 |           64 |xxxxxxxxxxxxx |xxxxxxxxxxxxx |xxxxxxxxxxxxx |           64 |           64 |           64 |           64 |xxxxxxxxxxxxx |xxxxxxxxxxxxx |xxxxxxxxxxxxx |           64 |           64 |           64 |           64 |xxxxxxxxxxxxx |xxxxxxxxxxxxx |xxxxxxxxxxxxx |           64 |           64 |           64 |           64 |xxxxxxxxxxxxx |xxxxxxxxxxxxx |xxxxxxxxxxxxx |           64 |           64 |           64 |           64 |xxxxxxxxxxxxx |xxxxxxxxxxxxx |xxxxxxxxxxxxx |           64 |           64 |           64 |           64 |xxxxxxxxxxxxx |xxxxxxxxxxxxx |xxxxxxxxxxxxx |           64 |           64 |           64 |           64 |
bpred_2lev.used_ras.PP               xxxxxxxxxxxxx |xxxxxxxxxxxxx |xxxxxxxxxxxxx |           64 |           64 |           64 |           64 |xxxxxxxxxxxxx |xxxxxxxxxxxxx |xxxxxxxxxxxxx |           64 |           64 |           64 |           64 |xxxxxxxxxxxxx |xxxxxxxxxxxxx |xxxxxxxxxxxxx |           64 |           64 |           64 |           64 |xxxxxxxxxxxxx |xxxxxxxxxxxxx |xxxxxxxxxxxxx |           64 |           64 |           64 |           64 |xxxxxxxxxxxxx |xxxxxxxxxxxxx |xxxxxxxxxxxxx |           64 |           64 |           64 |           64 |xxxxxxxxxxxxx |xxxxxxxxxxxxx |xxxxxxxxxxxxx |           64 |           64 |           64 |           64 |xxxxxxxxxxxxx |xxxxxxxxxxxxx |xxxxxxxxxxxxx |           64 |           64 |           64 |           64 |xxxxxxxxxxxxx |xxxxxxxxxxxxx |xxxxxxxxxxxxx |           64 |           64 |           64 |           64 |xxxxxxxxxxxxx |xxxxxxxxxxxxx |xxxxxxxxxxxxx |           64 |           64 |           64 |           64 |xxxxxxxxxxxxx |xxxxxxxxxxxxx |xxxxxxxxxxxxx |           64 |           64 |           64 |           64 |xxxxxxxxxxxxx |xxxxxxxxxxxxx |xxxxxxxxxxxxx |           64 |           64 |           64 |           64 |
bpred_2lev.ras_hits.PP               xxxxxxxxxxxxx |xxxxxxxxxxxxx |xxxxxxxxxxxxx |           64 |           64 |           64 |           64 |xxxxxxxxxxxxx |xxxxxxxxxxxxx |xxxxxxxxxxxxx |           64 |           64 |           64 |           64 |xxxxxxxxxxxxx |xxxxxxxxxxxxx |xxxxxxxxxxxxx |           64 |           64 |           64 |           64 |xxxxxxxxxxxxx |xxxxxxxxxxxxx |xxxxxxxxxxxxx |           64 |           64 |           64 |           64 |xxxxxxxxxxxxx |xxxxxxxxxxxxx |xxxxxxxxxxxxx |           64 |           64 |           64 |           64 |xxxxxxxxxxxxx |xxxxxxxxxxxxx |xxxxxxxxxxxxx |           64 |           64 |           64 |           64 |xxxxxxxxxxxxx |xxxxxxxxxxxxx |xxxxxxxxxxxxx |           64 |           64 |           64 |           64 |xxxxxxxxxxxxx |xxxxxxxxxxxxx |xxxxxxxxxxxxx |           64 |           64 |           64 |           64 |xxxxxxxxxxxxx |xxxxxxxxxxxxx |xxxxxxxxxxxxx |           64 |           64 |           64 |           64 |xxxxxxxxxxxxx |xxxxxxxxxxxxx |xxxxxxxxxxxxx |           64 |           64 |           64 |           64 |xxxxxxxxxxxxx |xxxxxxxxxxxxx |xxxxxxxxxxxxx |           64 |           64 |           64 |           64 |
bpred_2lev.ras_rate.PP               xxxxxxxxxxxxx |xxxxxxxxxxxxx |xxxxxxxxxxxxx |       1.0000 |       1.0000 |       1.0000 |       1.0000 |xxxxxxxxxxxxx |xxxxxxxxxxxxx |xxxxxxxxxxxxx |       1.0000 |       1.0000 |       1.0000 |       1.0000 |xxxxxxxxxxxxx |xxxxxxxxxxxxx |xxxxxxxxxxxxx |       1.0000 |       1.0000 |       1.0000 |       1.0000 |xxxxxxxxxxxxx |xxxxxxxxxxxxx |xxxxxxxxxxxxx |       1.0000 |       1.0000 |       1.0000 |       1.0000 |xxxxxxxxxxxxx |xxxxxxxxxxxxx |xxxxxxxxxxxxx |       1.0000 |       1.0000 |       1.0000 |       1.0000 |xxxxxxxxxxxxx |xxxxxxxxxxxxx |xxxxxxxxxxxxx |       1.0000 |       1.0000 |       1.0000 |       1.0000 |xxxxxxxxxxxxx |xxxxxxxxxxxxx |xxxxxxxxxxxxx |       1.0000 |       1.0000 |       1.0000 |       1.0000 |xxxxxxxxxxxxx |xxxxxxxxxxxxx |xxxxxxxxxxxxx |       1.0000 |       1.0000 |       1.0000 |       1.0000 |xxxxxxxxxxxxx |xxxxxxxxxxxxx |xxxxxxxxxxxxx |       1.0000 |       1.0000 |       1.0000 |       1.0000 |xxxxxxxxxxxxx |xxxxxxxxxxxxx |xxxxxxxxxxxxx |       1.0000 |       1.0000 |       1.0000 |       1.0000 |xxxxxxxxxxxxx |xxxxxxxxxxxxx |xxxxxxxxxxxxx |       1.0000 |       1.0000 |       1.0000 |       1.0000 |

Command list: 
	sslittle-na-sstrix-gcc -Wall -O3 -funroll-loops -finline-functions  -DRANDOM_SIZE=4096 -DOFFSET=5 -DSORT=base_quicksort5 sorts/base_quicksort5425520422.c simpleMain.c -o base_quicksort5971438671
	sim-cache -cache:dl1 dl1:256:32:1:l -cache:dl2 dl2:131072:32:1:l -cache:il1 il1:256:32:1:l -cache:il2 dl2 base_quicksort5971438671
	sim-cache -cache:dl1 dl1:256:32:1:l -cache:dl2 dl2:65536:32:1:l -cache:il1 il1:256:32:1:l -cache:il2 dl2 base_quicksort5971438671
	sim-cache -cache:dl1 dl1:1:32:256:l -cache:dl2 dl2:1:32:131072:l -cache:il1 il1:1:32:256:l -cache:il2 dl2 base_quicksort5971438671
	sim-cache -cache:dl1 dl1:1:32:256:l -cache:dl2 dl2:1:32:65536:l -cache:il1 il1:1:32:256:l -cache:il2 dl2 base_quicksort5971438671
	sim-bpred -bpred bimod -bpred:bimod 512 base_quicksort5971438671
	sim-bpred -bpred bimod -bpred:bimod 1024 base_quicksort5971438671
	sim-bpred -bpred bimod -bpred:bimod 2048 base_quicksort5971438671
	sim-bpred -bpred 2lev -bpred:2lev 1 512 10 1 base_quicksort5971438671
	sim-bpred -bpred 2lev -bpred:2lev 1 1024 10 1 base_quicksort5971438671
	sim-bpred -bpred 2lev -bpred:2lev 1 2048 10 1 base_quicksort5971438671
	sim-bpred -bpred 2lev -bpred:2lev 1 4096 10 1 base_quicksort5971438671
	sslittle-na-sstrix-gcc -Wall -O3 -funroll-loops -finline-functions  -DRANDOM_SIZE=8192 -DOFFSET=5 -DSORT=base_quicksort5 sorts/base_quicksort5425520422.c simpleMain.c -o base_quicksort5971438671
	sim-cache -cache:dl1 dl1:256:32:1:l -cache:dl2 dl2:131072:32:1:l -cache:il1 il1:256:32:1:l -cache:il2 dl2 base_quicksort5971438671
	sim-cache -cache:dl1 dl1:256:32:1:l -cache:dl2 dl2:65536:32:1:l -cache:il1 il1:256:32:1:l -cache:il2 dl2 base_quicksort5971438671
	sim-cache -cache:dl1 dl1:1:32:256:l -cache:dl2 dl2:1:32:131072:l -cache:il1 il1:1:32:256:l -cache:il2 dl2 base_quicksort5971438671
	sim-cache -cache:dl1 dl1:1:32:256:l -cache:dl2 dl2:1:32:65536:l -cache:il1 il1:1:32:256:l -cache:il2 dl2 base_quicksort5971438671
	sim-bpred -bpred bimod -bpred:bimod 512 base_quicksort5971438671
	sim-bpred -bpred bimod -bpred:bimod 1024 base_quicksort5971438671
	sim-bpred -bpred bimod -bpred:bimod 2048 base_quicksort5971438671
	sim-bpred -bpred 2lev -bpred:2lev 1 512 10 1 base_quicksort5971438671
	sim-bpred -bpred 2lev -bpred:2lev 1 1024 10 1 base_quicksort5971438671
	sim-bpred -bpred 2lev -bpred:2lev 1 2048 10 1 base_quicksort5971438671
	sim-bpred -bpred 2lev -bpred:2lev 1 4096 10 1 base_quicksort5971438671
	sslittle-na-sstrix-gcc -Wall -O3 -funroll-loops -finline-functions  -DRANDOM_SIZE=16384 -DOFFSET=5 -DSORT=base_quicksort5 sorts/base_quicksort5425520422.c simpleMain.c -o base_quicksort5971438671
	sim-cache -cache:dl1 dl1:256:32:1:l -cache:dl2 dl2:131072:32:1:l -cache:il1 il1:256:32:1:l -cache:il2 dl2 base_quicksort5971438671
	sim-cache -cache:dl1 dl1:256:32:1:l -cache:dl2 dl2:65536:32:1:l -cache:il1 il1:256:32:1:l -cache:il2 dl2 base_quicksort5971438671
	sim-cache -cache:dl1 dl1:1:32:256:l -cache:dl2 dl2:1:32:131072:l -cache:il1 il1:1:32:256:l -cache:il2 dl2 base_quicksort5971438671
	sim-cache -cache:dl1 dl1:1:32:256:l -cache:dl2 dl2:1:32:65536:l -cache:il1 il1:1:32:256:l -cache:il2 dl2 base_quicksort5971438671
	sim-bpred -bpred bimod -bpred:bimod 512 base_quicksort5971438671
	sim-bpred -bpred bimod -bpred:bimod 1024 base_quicksort5971438671
	sim-bpred -bpred bimod -bpred:bimod 2048 base_quicksort5971438671
	sim-bpred -bpred 2lev -bpred:2lev 1 512 10 1 base_quicksort5971438671
	sim-bpred -bpred 2lev -bpred:2lev 1 1024 10 1 base_quicksort5971438671
	sim-bpred -bpred 2lev -bpred:2lev 1 2048 10 1 base_quicksort5971438671
	sim-bpred -bpred 2lev -bpred:2lev 1 4096 10 1 base_quicksort5971438671
	sslittle-na-sstrix-gcc -Wall -O3 -funroll-loops -finline-functions  -DRANDOM_SIZE=32768 -DOFFSET=5 -DSORT=base_quicksort5 sorts/base_quicksort5425520422.c simpleMain.c -o base_quicksort5971438671
	sim-cache -cache:dl1 dl1:256:32:1:l -cache:dl2 dl2:131072:32:1:l -cache:il1 il1:256:32:1:l -cache:il2 dl2 base_quicksort5971438671
	sim-cache -cache:dl1 dl1:256:32:1:l -cache:dl2 dl2:65536:32:1:l -cache:il1 il1:256:32:1:l -cache:il2 dl2 base_quicksort5971438671
	sim-cache -cache:dl1 dl1:1:32:256:l -cache:dl2 dl2:1:32:131072:l -cache:il1 il1:1:32:256:l -cache:il2 dl2 base_quicksort5971438671
	sim-cache -cache:dl1 dl1:1:32:256:l -cache:dl2 dl2:1:32:65536:l -cache:il1 il1:1:32:256:l -cache:il2 dl2 base_quicksort5971438671
	sim-bpred -bpred bimod -bpred:bimod 512 base_quicksort5971438671
	sim-bpred -bpred bimod -bpred:bimod 1024 base_quicksort5971438671
	sim-bpred -bpred bimod -bpred:bimod 2048 base_quicksort5971438671
	sim-bpred -bpred 2lev -bpred:2lev 1 512 10 1 base_quicksort5971438671
	sim-bpred -bpred 2lev -bpred:2lev 1 1024 10 1 base_quicksort5971438671
	sim-bpred -bpred 2lev -bpred:2lev 1 2048 10 1 base_quicksort5971438671
	sim-bpred -bpred 2lev -bpred:2lev 1 4096 10 1 base_quicksort5971438671
	sslittle-na-sstrix-gcc -Wall -O3 -funroll-loops -finline-functions  -DRANDOM_SIZE=65536 -DOFFSET=5 -DSORT=base_quicksort5 sorts/base_quicksort5425520422.c simpleMain.c -o base_quicksort5971438671
	sim-cache -cache:dl1 dl1:256:32:1:l -cache:dl2 dl2:131072:32:1:l -cache:il1 il1:256:32:1:l -cache:il2 dl2 base_quicksort5971438671
	sim-cache -cache:dl1 dl1:256:32:1:l -cache:dl2 dl2:65536:32:1:l -cache:il1 il1:256:32:1:l -cache:il2 dl2 base_quicksort5971438671
	sim-cache -cache:dl1 dl1:1:32:256:l -cache:dl2 dl2:1:32:131072:l -cache:il1 il1:1:32:256:l -cache:il2 dl2 base_quicksort5971438671
	sim-cache -cache:dl1 dl1:1:32:256:l -cache:dl2 dl2:1:32:65536:l -cache:il1 il1:1:32:256:l -cache:il2 dl2 base_quicksort5971438671
	sim-bpred -bpred bimod -bpred:bimod 512 base_quicksort5971438671
	sim-bpred -bpred bimod -bpred:bimod 1024 base_quicksort5971438671
	sim-bpred -bpred bimod -bpred:bimod 2048 base_quicksort5971438671
	sim-bpred -bpred 2lev -bpred:2lev 1 512 10 1 base_quicksort5971438671
	sim-bpred -bpred 2lev -bpred:2lev 1 1024 10 1 base_quicksort5971438671
	sim-bpred -bpred 2lev -bpred:2lev 1 2048 10 1 base_quicksort5971438671
	sim-bpred -bpred 2lev -bpred:2lev 1 4096 10 1 base_quicksort5971438671
	sslittle-na-sstrix-gcc -Wall -O3 -funroll-loops -finline-functions  -DRANDOM_SIZE=131072 -DOFFSET=5 -DSORT=base_quicksort5 sorts/base_quicksort5425520422.c simpleMain.c -o base_quicksort5971438671
	sim-cache -cache:dl1 dl1:256:32:1:l -cache:dl2 dl2:131072:32:1:l -cache:il1 il1:256:32:1:l -cache:il2 dl2 base_quicksort5971438671
	sim-cache -cache:dl1 dl1:256:32:1:l -cache:dl2 dl2:65536:32:1:l -cache:il1 il1:256:32:1:l -cache:il2 dl2 base_quicksort5971438671
	sim-cache -cache:dl1 dl1:1:32:256:l -cache:dl2 dl2:1:32:131072:l -cache:il1 il1:1:32:256:l -cache:il2 dl2 base_quicksort5971438671
	sim-cache -cache:dl1 dl1:1:32:256:l -cache:dl2 dl2:1:32:65536:l -cache:il1 il1:1:32:256:l -cache:il2 dl2 base_quicksort5971438671
	sim-bpred -bpred bimod -bpred:bimod 512 base_quicksort5971438671
	sim-bpred -bpred bimod -bpred:bimod 1024 base_quicksort5971438671
	sim-bpred -bpred bimod -bpred:bimod 2048 base_quicksort5971438671
	sim-bpred -bpred 2lev -bpred:2lev 1 512 10 1 base_quicksort5971438671
	sim-bpred -bpred 2lev -bpred:2lev 1 1024 10 1 base_quicksort5971438671
	sim-bpred -bpred 2lev -bpred:2lev 1 2048 10 1 base_quicksort5971438671
	sim-bpred -bpred 2lev -bpred:2lev 1 4096 10 1 base_quicksort5971438671
	sslittle-na-sstrix-gcc -Wall -O3 -funroll-loops -finline-functions  -DRANDOM_SIZE=262144 -DOFFSET=5 -DSORT=base_quicksort5 sorts/base_quicksort5425520422.c simpleMain.c -o base_quicksort5971438671
	sim-cache -cache:dl1 dl1:256:32:1:l -cache:dl2 dl2:131072:32:1:l -cache:il1 il1:256:32:1:l -cache:il2 dl2 base_quicksort5971438671
	sim-cache -cache:dl1 dl1:256:32:1:l -cache:dl2 dl2:65536:32:1:l -cache:il1 il1:256:32:1:l -cache:il2 dl2 base_quicksort5971438671
	sim-cache -cache:dl1 dl1:1:32:256:l -cache:dl2 dl2:1:32:131072:l -cache:il1 il1:1:32:256:l -cache:il2 dl2 base_quicksort5971438671
	sim-cache -cache:dl1 dl1:1:32:256:l -cache:dl2 dl2:1:32:65536:l -cache:il1 il1:1:32:256:l -cache:il2 dl2 base_quicksort5971438671
	sim-bpred -bpred bimod -bpred:bimod 512 base_quicksort5971438671
	sim-bpred -bpred bimod -bpred:bimod 1024 base_quicksort5971438671
	sim-bpred -bpred bimod -bpred:bimod 2048 base_quicksort5971438671
	sim-bpred -bpred 2lev -bpred:2lev 1 512 10 1 base_quicksort5971438671
	sim-bpred -bpred 2lev -bpred:2lev 1 1024 10 1 base_quicksort5971438671
	sim-bpred -bpred 2lev -bpred:2lev 1 2048 10 1 base_quicksort5971438671
	sim-bpred -bpred 2lev -bpred:2lev 1 4096 10 1 base_quicksort5971438671
	sslittle-na-sstrix-gcc -Wall -O3 -funroll-loops -finline-functions  -DRANDOM_SIZE=524288 -DOFFSET=5 -DSORT=base_quicksort5 sorts/base_quicksort5425520422.c simpleMain.c -o base_quicksort5971438671
	sim-cache -cache:dl1 dl1:256:32:1:l -cache:dl2 dl2:131072:32:1:l -cache:il1 il1:256:32:1:l -cache:il2 dl2 base_quicksort5971438671
	sim-cache -cache:dl1 dl1:256:32:1:l -cache:dl2 dl2:65536:32:1:l -cache:il1 il1:256:32:1:l -cache:il2 dl2 base_quicksort5971438671
	sim-cache -cache:dl1 dl1:1:32:256:l -cache:dl2 dl2:1:32:131072:l -cache:il1 il1:1:32:256:l -cache:il2 dl2 base_quicksort5971438671
	sim-cache -cache:dl1 dl1:1:32:256:l -cache:dl2 dl2:1:32:65536:l -cache:il1 il1:1:32:256:l -cache:il2 dl2 base_quicksort5971438671
	sim-bpred -bpred bimod -bpred:bimod 512 base_quicksort5971438671
	sim-bpred -bpred bimod -bpred:bimod 1024 base_quicksort5971438671
	sim-bpred -bpred bimod -bpred:bimod 2048 base_quicksort5971438671
	sim-bpred -bpred 2lev -bpred:2lev 1 512 10 1 base_quicksort5971438671
	sim-bpred -bpred 2lev -bpred:2lev 1 1024 10 1 base_quicksort5971438671
	sim-bpred -bpred 2lev -bpred:2lev 1 2048 10 1 base_quicksort5971438671
	sim-bpred -bpred 2lev -bpred:2lev 1 4096 10 1 base_quicksort5971438671
	sslittle-na-sstrix-gcc -Wall -O3 -funroll-loops -finline-functions  -DRANDOM_SIZE=1048576 -DOFFSET=5 -DSORT=base_quicksort5 sorts/base_quicksort5425520422.c simpleMain.c -o base_quicksort5971438671
	sim-cache -cache:dl1 dl1:256:32:1:l -cache:dl2 dl2:131072:32:1:l -cache:il1 il1:256:32:1:l -cache:il2 dl2 base_quicksort5971438671
	sim-cache -cache:dl1 dl1:256:32:1:l -cache:dl2 dl2:65536:32:1:l -cache:il1 il1:256:32:1:l -cache:il2 dl2 base_quicksort5971438671
	sim-cache -cache:dl1 dl1:1:32:256:l -cache:dl2 dl2:1:32:131072:l -cache:il1 il1:1:32:256:l -cache:il2 dl2 base_quicksort5971438671
	sim-cache -cache:dl1 dl1:1:32:256:l -cache:dl2 dl2:1:32:65536:l -cache:il1 il1:1:32:256:l -cache:il2 dl2 base_quicksort5971438671
	sim-bpred -bpred bimod -bpred:bimod 512 base_quicksort5971438671
	sim-bpred -bpred bimod -bpred:bimod 1024 base_quicksort5971438671
	sim-bpred -bpred bimod -bpred:bimod 2048 base_quicksort5971438671
	sim-bpred -bpred 2lev -bpred:2lev 1 512 10 1 base_quicksort5971438671
	sim-bpred -bpred 2lev -bpred:2lev 1 1024 10 1 base_quicksort5971438671
	sim-bpred -bpred 2lev -bpred:2lev 1 2048 10 1 base_quicksort5971438671
	sim-bpred -bpred 2lev -bpred:2lev 1 4096 10 1 base_quicksort5971438671
	sslittle-na-sstrix-gcc -Wall -O3 -funroll-loops -finline-functions  -DRANDOM_SIZE=2097152 -DOFFSET=5 -DSORT=base_quicksort5 sorts/base_quicksort5425520422.c simpleMain.c -o base_quicksort5971438671
	sim-cache -cache:dl1 dl1:256:32:1:l -cache:dl2 dl2:131072:32:1:l -cache:il1 il1:256:32:1:l -cache:il2 dl2 base_quicksort5971438671
	sim-cache -cache:dl1 dl1:256:32:1:l -cache:dl2 dl2:65536:32:1:l -cache:il1 il1:256:32:1:l -cache:il2 dl2 base_quicksort5971438671
	sim-cache -cache:dl1 dl1:1:32:256:l -cache:dl2 dl2:1:32:131072:l -cache:il1 il1:1:32:256:l -cache:il2 dl2 base_quicksort5971438671
	sim-cache -cache:dl1 dl1:1:32:256:l -cache:dl2 dl2:1:32:65536:l -cache:il1 il1:1:32:256:l -cache:il2 dl2 base_quicksort5971438671
	sim-bpred -bpred bimod -bpred:bimod 512 base_quicksort5971438671
	sim-bpred -bpred bimod -bpred:bimod 1024 base_quicksort5971438671
	sim-bpred -bpred bimod -bpred:bimod 2048 base_quicksort5971438671
	sim-bpred -bpred 2lev -bpred:2lev 1 512 10 1 base_quicksort5971438671
	sim-bpred -bpred 2lev -bpred:2lev 1 1024 10 1 base_quicksort5971438671
	sim-bpred -bpred 2lev -bpred:2lev 1 2048 10 1 base_quicksort5971438671
	sim-bpred -bpred 2lev -bpred:2lev 1 4096 10 1 base_quicksort5971438671
	sslittle-na-sstrix-gcc -Wall -O3 -funroll-loops -finline-functions  -DRANDOM_SIZE=4194304 -DOFFSET=5 -DSORT=base_quicksort5 sorts/base_quicksort5425520422.c simpleMain.c -o base_quicksort5971438671
	sim-cache -cache:dl1 dl1:256:32:1:l -cache:dl2 dl2:131072:32:1:l -cache:il1 il1:256:32:1:l -cache:il2 dl2 base_quicksort5971438671
	sim-cache -cache:dl1 dl1:256:32:1:l -cache:dl2 dl2:65536:32:1:l -cache:il1 il1:256:32:1:l -cache:il2 dl2 base_quicksort5971438671
	sim-cache -cache:dl1 dl1:1:32:256:l -cache:dl2 dl2:1:32:131072:l -cache:il1 il1:1:32:256:l -cache:il2 dl2 base_quicksort5971438671
	sim-cache -cache:dl1 dl1:1:32:256:l -cache:dl2 dl2:1:32:65536:l -cache:il1 il1:1:32:256:l -cache:il2 dl2 base_quicksort5971438671
	sim-bpred -bpred bimod -bpred:bimod 512 base_quicksort5971438671
	sim-bpred -bpred bimod -bpred:bimod 1024 base_quicksort5971438671
	sim-bpred -bpred bimod -bpred:bimod 2048 base_quicksort5971438671
	sim-bpred -bpred 2lev -bpred:2lev 1 512 10 1 base_quicksort5971438671
	sim-bpred -bpred 2lev -bpred:2lev 1 1024 10 1 base_quicksort5971438671
	sim-bpred -bpred 2lev -bpred:2lev 1 2048 10 1 base_quicksort5971438671
	sim-bpred -bpred 2lev -bpred:2lev 1 4096 10 1 base_quicksort5971438671
