Wed Jul  6 21:22:37 2005
Run as: "./do_simple -c random.org4 -o 4 base_heapsort"
-------------------------------------------------------------------------------------------------
sim-cache                                     4096 |         4096 |         4096 |         4096 |         8192 |         8192 |         8192 |         8192 |        16384 |        16384 |        16384 |        16384 |        32768 |        32768 |        32768 |        32768 |        65536 |        65536 |        65536 |        65536 |       131072 |       131072 |       131072 |       131072 |       262144 |       262144 |       262144 |       262144 |       524288 |       524288 |       524288 |       524288 |      1048576 |      1048576 |      1048576 |      1048576 |      2097152 |      2097152 |      2097152 |      2097152 |      4194304 |      4194304 |      4194304 |      4194304 |
-cache:dl1 dl1:256:32:1:l -cache:dl2 dl2:131072:32:1:l -cache:il1 il1:256:32:1:l -cache:il2 dl2
-cache:dl1 dl1:256:32:1:l -cache:dl2 dl2:65536:32:1:l -cache:il1 il1:256:32:1:l -cache:il2 dl2
-cache:dl1 dl1:1:32:256:l -cache:dl2 dl2:1:32:131072:l -cache:il1 il1:1:32:256:l -cache:il2 dl2
-cache:dl1 dl1:1:32:256:l -cache:dl2 dl2:1:32:65536:l -cache:il1 il1:1:32:256:l -cache:il2 dl2
-------------------------------------------------------------------------------------------------
sim_num_insn                                907562 |       907562 |       907562 |       907562 |      1969030 |      1969030 |      1969030 |      1969030 |      4250669 |      4250669 |      4250669 |      4250669 |      9136050 |      9136050 |      9136050 |      9136050 |     19545606 |     19545606 |     19545606 |     19545606 |     41639654 |     41639654 |     41639654 |     41639654 |     88392204 |     88392204 |     88392204 |     88392204 |    186981761 |    186981761 |    186981761 |    186981761 |    394405266 |    394405266 |    394405266 |    394405266 |    829702284 |    829702284 |    829702284 |    829702284 |   1741132464 |   1741132464 |   1741132464 |   1741132464 |
sim_num_refs                                198048 |       198048 |       198048 |       198048 |       425285 |       425285 |       425285 |       425285 |       912391 |       912391 |       912391 |       912391 |      1952540 |      1952540 |      1952540 |      1952540 |      4163867 |      4163867 |      4163867 |      4163867 |      8848191 |      8848191 |      8848191 |      8848191 |     18742858 |     18742858 |     18742858 |     18742858 |     39575403 |     39575403 |     39575403 |     39575403 |     83341430 |     83341430 |     83341430 |     83341430 |    175068560 |    175068560 |    175068560 |    175068560 |    366900567 |    366900567 |    366900567 |    366900567 |
sim_elapsed_time                                 1 |            1 |            8 |            4 |            1 |            1 |           11 |            6 |            1 |            1 |           18 |           10 |            3 |            3 |           30 |           16 |            7 |            5 |           56 |           29 |           12 |           13 |          106 |           50 |           26 |           24 |          188 |          165 |           59 |           60 |          321 |          144 |          113 |          113 |          475 |          225 |          241 |          241 |          649 |          393 |          539 |          532 |         1026 |          768 |
sim_inst_rate                          907562.0000 |  907562.0000 |  113445.2500 |  226890.5000 | 1969030.0000 | 1969030.0000 |  179002.7273 |  328171.6667 | 4250669.0000 | 4250669.0000 |  236148.2778 |  425066.9000 | 3045350.0000 | 3045350.0000 |  304535.0000 |  571003.1250 | 2792229.4286 | 3909121.2000 |  349028.6786 |  673986.4138 | 3469971.1667 | 3203050.3077 |  392826.9245 |  832793.0800 | 3399700.1538 | 3683008.5000 |  470171.2979 |  535710.3273 | 3169182.3898 | 3116362.6833 |  582497.6978 | 1298484.4514 | 3490312.0885 | 3490312.0885 |  830326.8758 | 1752912.2933 | 3442748.0664 | 3442748.0664 | 1278431.8706 | 2111201.7405 | 3230301.4174 | 3272805.3835 | 1697010.1988 | 2267099.5625 |
il1.accesses                                907562 |       907562 |       907562 |       907562 |      1969030 |      1969030 |      1969030 |      1969030 |      4250669 |      4250669 |      4250669 |      4250669 |      9136050 |      9136050 |      9136050 |      9136050 |     19545606 |     19545606 |     19545606 |     19545606 |     41639654 |     41639654 |     41639654 |     41639654 |     88392204 |     88392204 |     88392204 |     88392204 |    186981761 |    186981761 |    186981761 |    186981761 |    394405266 |    394405266 |    394405266 |    394405266 |    829702284 |    829702284 |    829702284 |    829702284 |   1741132464 |   1741132464 |   1741132464 |   1741132464 |
il1.hits                                    907082 |       907082 |       907142 |       907142 |      1968548 |      1968548 |      1968607 |      1968607 |      4250197 |      4250197 |      4250251 |      4250251 |      9135568 |      9135568 |      9135627 |      9135627 |     19545123 |     19545123 |     19545182 |     19545182 |     41639172 |     41639172 |     41639231 |     41639231 |     88391723 |     88391723 |     88391782 |     88391782 |    186981279 |    186981279 |    186981338 |    186981338 |    394404785 |    394404785 |    394404844 |    394404844 |    829701802 |    829701802 |    829701861 |    829701861 |   1741131982 |   1741131982 |   1741132041 |   1741132041 |
il1.misses                                     480 |          480 |          420 |          420 |          482 |          482 |          423 |          423 |          472 |          472 |          418 |          418 |          482 |          482 |          423 |          423 |          483 |          483 |          424 |          424 |          482 |          482 |          423 |          423 |          481 |          481 |          422 |          422 |          482 |          482 |          423 |          423 |          481 |          481 |          422 |          422 |          482 |          482 |          423 |          423 |          482 |          482 |          423 |          423 |
il1.replacements                               244 |          244 |          164 |          164 |          245 |          245 |          167 |          167 |          237 |          237 |          162 |          162 |          245 |          245 |          167 |          167 |          246 |          246 |          168 |          168 |          245 |          245 |          167 |          167 |          244 |          244 |          166 |          166 |          245 |          245 |          167 |          167 |          244 |          244 |          166 |          166 |          245 |          245 |          167 |          167 |          245 |          245 |          167 |          167 |
il1.writebacks                                   0 |            0 |            0 |            0 |            0 |            0 |            0 |            0 |            0 |            0 |            0 |            0 |            0 |            0 |            0 |            0 |            0 |            0 |            0 |            0 |            0 |            0 |            0 |            0 |            0 |            0 |            0 |            0 |            0 |            0 |            0 |            0 |            0 |            0 |            0 |            0 |            0 |            0 |            0 |            0 |            0 |            0 |            0 |            0 |
il1.invalidations                                0 |            0 |            0 |            0 |            0 |            0 |            0 |            0 |            0 |            0 |            0 |            0 |            0 |            0 |            0 |            0 |            0 |            0 |            0 |            0 |            0 |            0 |            0 |            0 |            0 |            0 |            0 |            0 |            0 |            0 |            0 |            0 |            0 |            0 |            0 |            0 |            0 |            0 |            0 |            0 |            0 |            0 |            0 |            0 |
il1.miss_rate                               0.0005 |       0.0005 |       0.0005 |       0.0005 |       0.0002 |       0.0002 |       0.0002 |       0.0002 |       0.0001 |       0.0001 |       0.0001 |       0.0001 |       0.0001 |       0.0001 |       0.0000 |       0.0000 |       0.0000 |       0.0000 |       0.0000 |       0.0000 |       0.0000 |       0.0000 |       0.0000 |       0.0000 |       0.0000 |       0.0000 |       0.0000 |       0.0000 |       0.0000 |       0.0000 |       0.0000 |       0.0000 |       0.0000 |       0.0000 |       0.0000 |       0.0000 |       0.0000 |       0.0000 |       0.0000 |       0.0000 |       0.0000 |       0.0000 |       0.0000 |       0.0000 |
il1.repl_rate                               0.0003 |       0.0003 |       0.0002 |       0.0002 |       0.0001 |       0.0001 |       0.0001 |       0.0001 |       0.0001 |       0.0001 |       0.0000 |       0.0000 |       0.0000 |       0.0000 |       0.0000 |       0.0000 |       0.0000 |       0.0000 |       0.0000 |       0.0000 |       0.0000 |       0.0000 |       0.0000 |       0.0000 |       0.0000 |       0.0000 |       0.0000 |       0.0000 |       0.0000 |       0.0000 |       0.0000 |       0.0000 |       0.0000 |       0.0000 |       0.0000 |       0.0000 |       0.0000 |       0.0000 |       0.0000 |       0.0000 |       0.0000 |       0.0000 |       0.0000 |       0.0000 |
il1.wb_rate                                 0.0000 |       0.0000 |       0.0000 |       0.0000 |       0.0000 |       0.0000 |       0.0000 |       0.0000 |       0.0000 |       0.0000 |       0.0000 |       0.0000 |       0.0000 |       0.0000 |       0.0000 |       0.0000 |       0.0000 |       0.0000 |       0.0000 |       0.0000 |       0.0000 |       0.0000 |       0.0000 |       0.0000 |       0.0000 |       0.0000 |       0.0000 |       0.0000 |       0.0000 |       0.0000 |       0.0000 |       0.0000 |       0.0000 |       0.0000 |       0.0000 |       0.0000 |       0.0000 |       0.0000 |       0.0000 |       0.0000 |       0.0000 |       0.0000 |       0.0000 |       0.0000 |
il1.inv_rate                                0.0000 |       0.0000 |       0.0000 |       0.0000 |       0.0000 |       0.0000 |       0.0000 |       0.0000 |       0.0000 |       0.0000 |       0.0000 |       0.0000 |       0.0000 |       0.0000 |       0.0000 |       0.0000 |       0.0000 |       0.0000 |       0.0000 |       0.0000 |       0.0000 |       0.0000 |       0.0000 |       0.0000 |       0.0000 |       0.0000 |       0.0000 |       0.0000 |       0.0000 |       0.0000 |       0.0000 |       0.0000 |       0.0000 |       0.0000 |       0.0000 |       0.0000 |       0.0000 |       0.0000 |       0.0000 |       0.0000 |       0.0000 |       0.0000 |       0.0000 |       0.0000 |
dl1.accesses                                214514 |       214514 |       214514 |       214514 |       458135 |       458135 |       458135 |       458135 |       978009 |       978009 |       978009 |       978009 |      2083694 |      2083694 |      2083694 |      2083694 |      4426093 |      4426093 |      4426093 |      4426093 |      9372561 |      9372561 |      9372561 |      9372561 |     19791516 |     19791516 |     19791516 |     19791516 |     41672637 |     41672637 |     41672637 |     41672637 |     87535816 |     87535816 |     87535816 |     87535816 |    183457250 |    183457250 |    183457250 |    183457250 |    383677865 |    383677865 |    383677865 |    383677865 |
dl1.hits                                    209462 |       209462 |       209436 |       209436 |       436592 |       436592 |       437969 |       437969 |       909885 |       909885 |       914765 |       914765 |      1894188 |      1894188 |      1907227 |      1907227 |      3941452 |      3941452 |      3972184 |      3972184 |      8195452 |      8195452 |      8266309 |      8266309 |     17028675 |     17028675 |     17187059 |     17187059 |     35350935 |     35350935 |     35695044 |     35695044 |     73319611 |     73319611 |     74061257 |     74061257 |    151937966 |    151937966 |    153517105 |    153517105 |    314552425 |    314552425 |    317882601 |    317882601 |
dl1.misses                                    5052 |         5052 |         5078 |         5078 |        21543 |        21543 |        20166 |        20166 |        68124 |        68124 |        63244 |        63244 |       189506 |       189506 |       176467 |       176467 |       484641 |       484641 |       453909 |       453909 |      1177109 |      1177109 |      1106252 |      1106252 |      2762841 |      2762841 |      2604457 |      2604457 |      6321702 |      6321702 |      5977593 |      5977593 |     14216205 |     14216205 |     13474559 |     13474559 |     31519284 |     31519284 |     29940145 |     29940145 |     69125440 |     69125440 |     65795264 |     65795264 |
dl1.replacements                              4796 |         4796 |         4822 |         4822 |        21287 |        21287 |        19910 |        19910 |        67868 |        67868 |        62988 |        62988 |       189250 |       189250 |       176211 |       176211 |       484385 |       484385 |       453653 |       453653 |      1176853 |      1176853 |      1105996 |      1105996 |      2762585 |      2762585 |      2604201 |      2604201 |      6321446 |      6321446 |      5977337 |      5977337 |     14215949 |     14215949 |     13474303 |     13474303 |     31519028 |     31519028 |     29939889 |     29939889 |     69125184 |     69125184 |     65795008 |     65795008 |
dl1.writebacks                                4120 |         4120 |         4233 |         4233 |        18070 |        18070 |        16904 |        16904 |        56890 |        56890 |        52503 |        52503 |       157110 |       157110 |       145236 |       145236 |       399711 |       399711 |       371789 |       371789 |       965674 |       965674 |       902066 |       902066 |      2258589 |      2258589 |      2117907 |      2117907 |      5153020 |      5153020 |      4850464 |      4850464 |     11560857 |     11560857 |     10916065 |     10916065 |     25584492 |     25584492 |     24225601 |     24225601 |     56018411 |     56018411 |     53177705 |     53177705 |
dl1.invalidations                                0 |            0 |            0 |            0 |            0 |            0 |            0 |            0 |            0 |            0 |            0 |            0 |            0 |            0 |            0 |            0 |            0 |            0 |            0 |            0 |            0 |            0 |            0 |            0 |            0 |            0 |            0 |            0 |            0 |            0 |            0 |            0 |            0 |            0 |            0 |            0 |            0 |            0 |            0 |            0 |            0 |            0 |            0 |            0 |
dl1.miss_rate                               0.0236 |       0.0236 |       0.0237 |       0.0237 |       0.0470 |       0.0470 |       0.0440 |       0.0440 |       0.0697 |       0.0697 |       0.0647 |       0.0647 |       0.0909 |       0.0909 |       0.0847 |       0.0847 |       0.1095 |       0.1095 |       0.1026 |       0.1026 |       0.1256 |       0.1256 |       0.1180 |       0.1180 |       0.1396 |       0.1396 |       0.1316 |       0.1316 |       0.1517 |       0.1517 |       0.1434 |       0.1434 |       0.1624 |       0.1624 |       0.1539 |       0.1539 |       0.1718 |       0.1718 |       0.1632 |       0.1632 |       0.1802 |       0.1802 |       0.1715 |       0.1715 |
dl1.repl_rate                               0.0224 |       0.0224 |       0.0225 |       0.0225 |       0.0465 |       0.0465 |       0.0435 |       0.0435 |       0.0694 |       0.0694 |       0.0644 |       0.0644 |       0.0908 |       0.0908 |       0.0846 |       0.0846 |       0.1094 |       0.1094 |       0.1025 |       0.1025 |       0.1256 |       0.1256 |       0.1180 |       0.1180 |       0.1396 |       0.1396 |       0.1316 |       0.1316 |       0.1517 |       0.1517 |       0.1434 |       0.1434 |       0.1624 |       0.1624 |       0.1539 |       0.1539 |       0.1718 |       0.1718 |       0.1632 |       0.1632 |       0.1802 |       0.1802 |       0.1715 |       0.1715 |
dl1.wb_rate                                 0.0192 |       0.0192 |       0.0197 |       0.0197 |       0.0394 |       0.0394 |       0.0369 |       0.0369 |       0.0582 |       0.0582 |       0.0537 |       0.0537 |       0.0754 |       0.0754 |       0.0697 |       0.0697 |       0.0903 |       0.0903 |       0.0840 |       0.0840 |       0.1030 |       0.1030 |       0.0962 |       0.0962 |       0.1141 |       0.1141 |       0.1070 |       0.1070 |       0.1237 |       0.1237 |       0.1164 |       0.1164 |       0.1321 |       0.1321 |       0.1247 |       0.1247 |       0.1395 |       0.1395 |       0.1321 |       0.1321 |       0.1460 |       0.1460 |       0.1386 |       0.1386 |
dl1.inv_rate                                0.0000 |       0.0000 |       0.0000 |       0.0000 |       0.0000 |       0.0000 |       0.0000 |       0.0000 |       0.0000 |       0.0000 |       0.0000 |       0.0000 |       0.0000 |       0.0000 |       0.0000 |       0.0000 |       0.0000 |       0.0000 |       0.0000 |       0.0000 |       0.0000 |       0.0000 |       0.0000 |       0.0000 |       0.0000 |       0.0000 |       0.0000 |       0.0000 |       0.0000 |       0.0000 |       0.0000 |       0.0000 |       0.0000 |       0.0000 |       0.0000 |       0.0000 |       0.0000 |       0.0000 |       0.0000 |       0.0000 |       0.0000 |       0.0000 |       0.0000 |       0.0000 |
dl2.accesses                                  9652 |         9652 |         9731 |         9731 |        40095 |        40095 |        37493 |        37493 |       125486 |       125486 |       116165 |       116165 |       347098 |       347098 |       322126 |       322126 |       884835 |       884835 |       826122 |       826122 |      2143265 |      2143265 |      2008741 |      2008741 |      5021911 |      5021911 |      4722786 |      4722786 |     11475204 |     11475204 |     10828480 |     10828480 |     25777543 |     25777543 |     24391046 |     24391046 |     57104258 |     57104258 |     54166169 |     54166169 |    125144333 |    125144333 |    118973392 |    118973392 |
dl2.hits                                      8304 |         8304 |         8388 |         8388 |        38233 |        38233 |        35636 |        35636 |       122606 |       122606 |       113291 |       113291 |       342165 |       342165 |       317197 |       317197 |       875805 |       875805 |       817096 |       817096 |      2126044 |      2126044 |      1991524 |      1991524 |      4988307 |      4988307 |      4689186 |      4689186 |     11408831 |     11408688 |     10762111 |     10761301 |     25645493 |     24657024 |     24258003 |     23196046 |     54864683 |     51921894 |     51777844 |     49182437 |    114786492 |    108304224 |    109008889 |    102921316 |
dl2.misses                                    1348 |         1348 |         1343 |         1343 |         1862 |         1862 |         1857 |         1857 |         2880 |         2880 |         2874 |         2874 |         4933 |         4933 |         4929 |         4929 |         9030 |         9030 |         9026 |         9026 |        17221 |        17221 |        17217 |        17217 |        33604 |        33604 |        33600 |        33600 |        66373 |        66516 |        66369 |        67179 |       132050 |      1120519 |       133043 |      1195000 |      2239575 |      5182364 |      2388325 |      4983732 |     10357841 |     16840109 |      9964503 |     16052076 |
dl2.replacements                                44 |           44 |            0 |            0 |           47 |           47 |            0 |            0 |           49 |           49 |            0 |            0 |           46 |           46 |            0 |            0 |           46 |           46 |            0 |            0 |           46 |           46 |            0 |            0 |           46 |           46 |            0 |            0 |           46 |          980 |            0 |         1643 |          978 |      1054983 |         1971 |      1129464 |      2108503 |      5116828 |      2257253 |      4918196 |     10226769 |     16774573 |      9833431 |     15986540 |
dl2.writebacks                                   3 |            3 |            0 |            0 |            1 |            1 |            0 |            0 |            1 |            1 |            0 |            0 |            2 |            2 |            0 |            0 |            2 |            2 |            0 |            0 |            2 |            2 |            0 |            0 |            2 |            2 |            0 |            0 |            2 |          759 |            0 |         1456 |          758 |       906538 |         1786 |       978181 |      1812818 |      4350282 |      1955498 |      4151466 |      8692726 |     14101386 |      8299368 |     13290404 |
dl2.invalidations                                0 |            0 |            0 |            0 |            0 |            0 |            0 |            0 |            0 |            0 |            0 |            0 |            0 |            0 |            0 |            0 |            0 |            0 |            0 |            0 |            0 |            0 |            0 |            0 |            0 |            0 |            0 |            0 |            0 |            0 |            0 |            0 |            0 |            0 |            0 |            0 |            0 |            0 |            0 |            0 |            0 |            0 |            0 |            0 |
dl2.miss_rate                               0.1397 |       0.1397 |       0.1380 |       0.1380 |       0.0464 |       0.0464 |       0.0495 |       0.0495 |       0.0230 |       0.0230 |       0.0247 |       0.0247 |       0.0142 |       0.0142 |       0.0153 |       0.0153 |       0.0102 |       0.0102 |       0.0109 |       0.0109 |       0.0080 |       0.0080 |       0.0086 |       0.0086 |       0.0067 |       0.0067 |       0.0071 |       0.0071 |       0.0058 |       0.0058 |       0.0061 |       0.0062 |       0.0051 |       0.0435 |       0.0055 |       0.0490 |       0.0392 |       0.0908 |       0.0441 |       0.0920 |       0.0828 |       0.1346 |       0.0838 |       0.1349 |
dl2.repl_rate                               0.0046 |       0.0046 |       0.0000 |       0.0000 |       0.0012 |       0.0012 |       0.0000 |       0.0000 |       0.0004 |       0.0004 |       0.0000 |       0.0000 |       0.0001 |       0.0001 |       0.0000 |       0.0000 |       0.0001 |       0.0001 |       0.0000 |       0.0000 |       0.0000 |       0.0000 |       0.0000 |       0.0000 |       0.0000 |       0.0000 |       0.0000 |       0.0000 |       0.0000 |       0.0001 |       0.0000 |       0.0002 |       0.0000 |       0.0409 |       0.0001 |       0.0463 |       0.0369 |       0.0896 |       0.0417 |       0.0908 |       0.0817 |       0.1340 |       0.0827 |       0.1344 |
dl2.wb_rate                                 0.0003 |       0.0003 |       0.0000 |       0.0000 |       0.0000 |       0.0000 |       0.0000 |       0.0000 |       0.0000 |       0.0000 |       0.0000 |       0.0000 |       0.0000 |       0.0000 |       0.0000 |       0.0000 |       0.0000 |       0.0000 |       0.0000 |       0.0000 |       0.0000 |       0.0000 |       0.0000 |       0.0000 |       0.0000 |       0.0000 |       0.0000 |       0.0000 |       0.0000 |       0.0001 |       0.0000 |       0.0001 |       0.0000 |       0.0352 |       0.0001 |       0.0401 |       0.0317 |       0.0762 |       0.0361 |       0.0766 |       0.0695 |       0.1127 |       0.0698 |       0.1117 |
dl2.inv_rate                                0.0000 |       0.0000 |       0.0000 |       0.0000 |       0.0000 |       0.0000 |       0.0000 |       0.0000 |       0.0000 |       0.0000 |       0.0000 |       0.0000 |       0.0000 |       0.0000 |       0.0000 |       0.0000 |       0.0000 |       0.0000 |       0.0000 |       0.0000 |       0.0000 |       0.0000 |       0.0000 |       0.0000 |       0.0000 |       0.0000 |       0.0000 |       0.0000 |       0.0000 |       0.0000 |       0.0000 |       0.0000 |       0.0000 |       0.0000 |       0.0000 |       0.0000 |       0.0000 |       0.0000 |       0.0000 |       0.0000 |       0.0000 |       0.0000 |       0.0000 |       0.0000 |
itlb.accesses                               907562 |       907562 |       907562 |       907562 |      1969030 |      1969030 |      1969030 |      1969030 |      4250669 |      4250669 |      4250669 |      4250669 |      9136050 |      9136050 |      9136050 |      9136050 |     19545606 |     19545606 |     19545606 |     19545606 |     41639654 |     41639654 |     41639654 |     41639654 |     88392204 |     88392204 |     88392204 |     88392204 |    186981761 |    186981761 |    186981761 |    186981761 |    394405266 |    394405266 |    394405266 |    394405266 |    829702284 |    829702284 |    829702284 |    829702284 |   1741132464 |   1741132464 |   1741132464 |   1741132464 |
itlb.hits                                   907552 |       907552 |       907552 |       907552 |      1969020 |      1969020 |      1969020 |      1969020 |      4250659 |      4250659 |      4250659 |      4250659 |      9136040 |      9136040 |      9136040 |      9136040 |     19545596 |     19545596 |     19545596 |     19545596 |     41639644 |     41639644 |     41639644 |     41639644 |     88392194 |     88392194 |     88392194 |     88392194 |    186981751 |    186981751 |    186981751 |    186981751 |    394405256 |    394405256 |    394405256 |    394405256 |    829702274 |    829702274 |    829702274 |    829702274 |   1741132454 |   1741132454 |   1741132454 |   1741132454 |
itlb.misses                                     10 |           10 |           10 |           10 |           10 |           10 |           10 |           10 |           10 |           10 |           10 |           10 |           10 |           10 |           10 |           10 |           10 |           10 |           10 |           10 |           10 |           10 |           10 |           10 |           10 |           10 |           10 |           10 |           10 |           10 |           10 |           10 |           10 |           10 |           10 |           10 |           10 |           10 |           10 |           10 |           10 |           10 |           10 |           10 |
itlb.replacements                                0 |            0 |            0 |            0 |            0 |            0 |            0 |            0 |            0 |            0 |            0 |            0 |            0 |            0 |            0 |            0 |            0 |            0 |            0 |            0 |            0 |            0 |            0 |            0 |            0 |            0 |            0 |            0 |            0 |            0 |            0 |            0 |            0 |            0 |            0 |            0 |            0 |            0 |            0 |            0 |            0 |            0 |            0 |            0 |
itlb.writebacks                                  0 |            0 |            0 |            0 |            0 |            0 |            0 |            0 |            0 |            0 |            0 |            0 |            0 |            0 |            0 |            0 |            0 |            0 |            0 |            0 |            0 |            0 |            0 |            0 |            0 |            0 |            0 |            0 |            0 |            0 |            0 |            0 |            0 |            0 |            0 |            0 |            0 |            0 |            0 |            0 |            0 |            0 |            0 |            0 |
itlb.invalidations                               0 |            0 |            0 |            0 |            0 |            0 |            0 |            0 |            0 |            0 |            0 |            0 |            0 |            0 |            0 |            0 |            0 |            0 |            0 |            0 |            0 |            0 |            0 |            0 |            0 |            0 |            0 |            0 |            0 |            0 |            0 |            0 |            0 |            0 |            0 |            0 |            0 |            0 |            0 |            0 |            0 |            0 |            0 |            0 |
itlb.miss_rate                              0.0000 |       0.0000 |       0.0000 |       0.0000 |       0.0000 |       0.0000 |       0.0000 |       0.0000 |       0.0000 |       0.0000 |       0.0000 |       0.0000 |       0.0000 |       0.0000 |       0.0000 |       0.0000 |       0.0000 |       0.0000 |       0.0000 |       0.0000 |       0.0000 |       0.0000 |       0.0000 |       0.0000 |       0.0000 |       0.0000 |       0.0000 |       0.0000 |       0.0000 |       0.0000 |       0.0000 |       0.0000 |       0.0000 |       0.0000 |       0.0000 |       0.0000 |       0.0000 |       0.0000 |       0.0000 |       0.0000 |       0.0000 |       0.0000 |       0.0000 |       0.0000 |
itlb.repl_rate                              0.0000 |       0.0000 |       0.0000 |       0.0000 |       0.0000 |       0.0000 |       0.0000 |       0.0000 |       0.0000 |       0.0000 |       0.0000 |       0.0000 |       0.0000 |       0.0000 |       0.0000 |       0.0000 |       0.0000 |       0.0000 |       0.0000 |       0.0000 |       0.0000 |       0.0000 |       0.0000 |       0.0000 |       0.0000 |       0.0000 |       0.0000 |       0.0000 |       0.0000 |       0.0000 |       0.0000 |       0.0000 |       0.0000 |       0.0000 |       0.0000 |       0.0000 |       0.0000 |       0.0000 |       0.0000 |       0.0000 |       0.0000 |       0.0000 |       0.0000 |       0.0000 |
itlb.wb_rate                                0.0000 |       0.0000 |       0.0000 |       0.0000 |       0.0000 |       0.0000 |       0.0000 |       0.0000 |       0.0000 |       0.0000 |       0.0000 |       0.0000 |       0.0000 |       0.0000 |       0.0000 |       0.0000 |       0.0000 |       0.0000 |       0.0000 |       0.0000 |       0.0000 |       0.0000 |       0.0000 |       0.0000 |       0.0000 |       0.0000 |       0.0000 |       0.0000 |       0.0000 |       0.0000 |       0.0000 |       0.0000 |       0.0000 |       0.0000 |       0.0000 |       0.0000 |       0.0000 |       0.0000 |       0.0000 |       0.0000 |       0.0000 |       0.0000 |       0.0000 |       0.0000 |
itlb.inv_rate                               0.0000 |       0.0000 |       0.0000 |       0.0000 |       0.0000 |       0.0000 |       0.0000 |       0.0000 |       0.0000 |       0.0000 |       0.0000 |       0.0000 |       0.0000 |       0.0000 |       0.0000 |       0.0000 |       0.0000 |       0.0000 |       0.0000 |       0.0000 |       0.0000 |       0.0000 |       0.0000 |       0.0000 |       0.0000 |       0.0000 |       0.0000 |       0.0000 |       0.0000 |       0.0000 |       0.0000 |       0.0000 |       0.0000 |       0.0000 |       0.0000 |       0.0000 |       0.0000 |       0.0000 |       0.0000 |       0.0000 |       0.0000 |       0.0000 |       0.0000 |       0.0000 |
dtlb.accesses                               214514 |       214514 |       214514 |       214514 |       458135 |       458135 |       458135 |       458135 |       978009 |       978009 |       978009 |       978009 |      2083694 |      2083694 |      2083694 |      2083694 |      4426093 |      4426093 |      4426093 |      4426093 |      9372561 |      9372561 |      9372561 |      9372561 |     19791516 |     19791516 |     19791516 |     19791516 |     41672637 |     41672637 |     41672637 |     41672637 |     87535816 |     87535816 |     87535816 |     87535816 |    183457250 |    183457250 |    183457250 |    183457250 |    383677865 |    383677865 |    383677865 |    383677865 |
dtlb.hits                                   214503 |       214503 |       214503 |       214503 |       458120 |       458120 |       458120 |       458120 |       977986 |       977986 |       977986 |       977986 |      2083655 |      2083655 |      2083655 |      2083655 |      4426022 |      4426022 |      4426022 |      4426022 |      9372395 |      9372395 |      9372395 |      9372395 |     19683983 |     19683983 |     19683983 |     19683983 |     40972066 |     40972066 |     40972066 |     40972066 |     84934625 |     84934625 |     84934625 |     84934625 |    175693257 |    175693257 |    175693257 |    175693257 |    362966896 |    362966896 |    362966896 |    362966896 |
dtlb.misses                                     11 |           11 |           11 |           11 |           15 |           15 |           15 |           15 |           23 |           23 |           23 |           23 |           39 |           39 |           39 |           39 |           71 |           71 |           71 |           71 |          166 |          166 |          166 |          166 |       107533 |       107533 |       107533 |       107533 |       700571 |       700571 |       700571 |       700571 |      2601191 |      2601191 |      2601191 |      2601191 |      7763993 |      7763993 |      7763993 |      7763993 |     20710969 |     20710969 |     20710969 |     20710969 |
dtlb.replacements                                0 |            0 |            0 |            0 |            0 |            0 |            0 |            0 |            0 |            0 |            0 |            0 |            0 |            0 |            0 |            0 |            0 |            0 |            0 |            0 |           38 |           38 |           38 |           38 |       107405 |       107405 |       107405 |       107405 |       700443 |       700443 |       700443 |       700443 |      2601063 |      2601063 |      2601063 |      2601063 |      7763865 |      7763865 |      7763865 |      7763865 |     20710841 |     20710841 |     20710841 |     20710841 |
dtlb.writebacks                                  0 |            0 |            0 |            0 |            0 |            0 |            0 |            0 |            0 |            0 |            0 |            0 |            0 |            0 |            0 |            0 |            0 |            0 |            0 |            0 |           35 |           35 |           35 |           35 |       100603 |       100603 |       100603 |       100603 |       663724 |       663724 |       663724 |       663724 |      2490751 |      2490751 |      2490751 |      2490751 |      7493188 |      7493188 |      7493188 |      7493188 |     20103809 |     20103809 |     20103809 |     20103809 |
dtlb.invalidations                               0 |            0 |            0 |            0 |            0 |            0 |            0 |            0 |            0 |            0 |            0 |            0 |            0 |            0 |            0 |            0 |            0 |            0 |            0 |            0 |            0 |            0 |            0 |            0 |            0 |            0 |            0 |            0 |            0 |            0 |            0 |            0 |            0 |            0 |            0 |            0 |            0 |            0 |            0 |            0 |            0 |            0 |            0 |            0 |
dtlb.miss_rate                              0.0001 |       0.0001 |       0.0001 |       0.0001 |       0.0000 |       0.0000 |       0.0000 |       0.0000 |       0.0000 |       0.0000 |       0.0000 |       0.0000 |       0.0000 |       0.0000 |       0.0000 |       0.0000 |       0.0000 |       0.0000 |       0.0000 |       0.0000 |       0.0000 |       0.0000 |       0.0000 |       0.0000 |       0.0054 |       0.0054 |       0.0054 |       0.0054 |       0.0168 |       0.0168 |       0.0168 |       0.0168 |       0.0297 |       0.0297 |       0.0297 |       0.0297 |       0.0423 |       0.0423 |       0.0423 |       0.0423 |       0.0540 |       0.0540 |       0.0540 |       0.0540 |
dtlb.repl_rate                              0.0000 |       0.0000 |       0.0000 |       0.0000 |       0.0000 |       0.0000 |       0.0000 |       0.0000 |       0.0000 |       0.0000 |       0.0000 |       0.0000 |       0.0000 |       0.0000 |       0.0000 |       0.0000 |       0.0000 |       0.0000 |       0.0000 |       0.0000 |       0.0000 |       0.0000 |       0.0000 |       0.0000 |       0.0054 |       0.0054 |       0.0054 |       0.0054 |       0.0168 |       0.0168 |       0.0168 |       0.0168 |       0.0297 |       0.0297 |       0.0297 |       0.0297 |       0.0423 |       0.0423 |       0.0423 |       0.0423 |       0.0540 |       0.0540 |       0.0540 |       0.0540 |
dtlb.wb_rate                                0.0000 |       0.0000 |       0.0000 |       0.0000 |       0.0000 |       0.0000 |       0.0000 |       0.0000 |       0.0000 |       0.0000 |       0.0000 |       0.0000 |       0.0000 |       0.0000 |       0.0000 |       0.0000 |       0.0000 |       0.0000 |       0.0000 |       0.0000 |       0.0000 |       0.0000 |       0.0000 |       0.0000 |       0.0051 |       0.0051 |       0.0051 |       0.0051 |       0.0159 |       0.0159 |       0.0159 |       0.0159 |       0.0285 |       0.0285 |       0.0285 |       0.0285 |       0.0408 |       0.0408 |       0.0408 |       0.0408 |       0.0524 |       0.0524 |       0.0524 |       0.0524 |
dtlb.inv_rate                               0.0000 |       0.0000 |       0.0000 |       0.0000 |       0.0000 |       0.0000 |       0.0000 |       0.0000 |       0.0000 |       0.0000 |       0.0000 |       0.0000 |       0.0000 |       0.0000 |       0.0000 |       0.0000 |       0.0000 |       0.0000 |       0.0000 |       0.0000 |       0.0000 |       0.0000 |       0.0000 |       0.0000 |       0.0000 |       0.0000 |       0.0000 |       0.0000 |       0.0000 |       0.0000 |       0.0000 |       0.0000 |       0.0000 |       0.0000 |       0.0000 |       0.0000 |       0.0000 |       0.0000 |       0.0000 |       0.0000 |       0.0000 |       0.0000 |       0.0000 |       0.0000 |
ld_text_base                            0x00400000 |   0x00400000 |   0x00400000 |   0x00400000 |   0x00400000 |   0x00400000 |   0x00400000 |   0x00400000 |   0x00400000 |   0x00400000 |   0x00400000 |   0x00400000 |   0x00400000 |   0x00400000 |   0x00400000 |   0x00400000 |   0x00400000 |   0x00400000 |   0x00400000 |   0x00400000 |   0x00400000 |   0x00400000 |   0x00400000 |   0x00400000 |   0x00400000 |   0x00400000 |   0x00400000 |   0x00400000 |   0x00400000 |   0x00400000 |   0x00400000 |   0x00400000 |   0x00400000 |   0x00400000 |   0x00400000 |   0x00400000 |   0x00400000 |   0x00400000 |   0x00400000 |   0x00400000 |   0x00400000 |   0x00400000 |   0x00400000 |   0x00400000 |
ld_text_size                                 74736 |        74736 |        74736 |        74736 |        74768 |        74768 |        74768 |        74768 |        74784 |        74784 |        74784 |        74784 |        74800 |        74800 |        74800 |        74800 |        74800 |        74800 |        74800 |        74800 |        74800 |        74800 |        74800 |        74800 |        74800 |        74800 |        74800 |        74800 |        74800 |        74800 |        74800 |        74800 |        74800 |        74800 |        74800 |        74800 |        74800 |        74800 |        74800 |        74800 |        74800 |        74800 |        74800 |        74800 |
ld_data_base                            0x10000000 |   0x10000000 |   0x10000000 |   0x10000000 |   0x10000000 |   0x10000000 |   0x10000000 |   0x10000000 |   0x10000000 |   0x10000000 |   0x10000000 |   0x10000000 |   0x10000000 |   0x10000000 |   0x10000000 |   0x10000000 |   0x10000000 |   0x10000000 |   0x10000000 |   0x10000000 |   0x10000000 |   0x10000000 |   0x10000000 |   0x10000000 |   0x10000000 |   0x10000000 |   0x10000000 |   0x10000000 |   0x10000000 |   0x10000000 |   0x10000000 |   0x10000000 |   0x10000000 |   0x10000000 |   0x10000000 |   0x10000000 |   0x10000000 |   0x10000000 |   0x10000000 |   0x10000000 |   0x10000000 |   0x10000000 |   0x10000000 |   0x10000000 |
ld_data_size                                  8192 |         8192 |         8192 |         8192 |         8192 |         8192 |         8192 |         8192 |         8192 |         8192 |         8192 |         8192 |         8192 |         8192 |         8192 |         8192 |         8192 |         8192 |         8192 |         8192 |         8192 |         8192 |         8192 |         8192 |         8192 |         8192 |         8192 |         8192 |         8192 |         8192 |         8192 |         8192 |         8192 |         8192 |         8192 |         8192 |         8192 |         8192 |         8192 |         8192 |         8192 |         8192 |         8192 |         8192 |
ld_stack_base                           0x7fffc000 |   0x7fffc000 |   0x7fffc000 |   0x7fffc000 |   0x7fffc000 |   0x7fffc000 |   0x7fffc000 |   0x7fffc000 |   0x7fffc000 |   0x7fffc000 |   0x7fffc000 |   0x7fffc000 |   0x7fffc000 |   0x7fffc000 |   0x7fffc000 |   0x7fffc000 |   0x7fffc000 |   0x7fffc000 |   0x7fffc000 |   0x7fffc000 |   0x7fffc000 |   0x7fffc000 |   0x7fffc000 |   0x7fffc000 |   0x7fffc000 |   0x7fffc000 |   0x7fffc000 |   0x7fffc000 |   0x7fffc000 |   0x7fffc000 |   0x7fffc000 |   0x7fffc000 |   0x7fffc000 |   0x7fffc000 |   0x7fffc000 |   0x7fffc000 |   0x7fffc000 |   0x7fffc000 |   0x7fffc000 |   0x7fffc000 |   0x7fffc000 |   0x7fffc000 |   0x7fffc000 |   0x7fffc000 |
ld_stack_size                                16384 |        16384 |        16384 |        16384 |        16384 |        16384 |        16384 |        16384 |        16384 |        16384 |        16384 |        16384 |        16384 |        16384 |        16384 |        16384 |        16384 |        16384 |        16384 |        16384 |        16384 |        16384 |        16384 |        16384 |        16384 |        16384 |        16384 |        16384 |        16384 |        16384 |        16384 |        16384 |        16384 |        16384 |        16384 |        16384 |        16384 |        16384 |        16384 |        16384 |        16384 |        16384 |        16384 |        16384 |
ld_prog_entry                           0x00400140 |   0x00400140 |   0x00400140 |   0x00400140 |   0x00400140 |   0x00400140 |   0x00400140 |   0x00400140 |   0x00400140 |   0x00400140 |   0x00400140 |   0x00400140 |   0x00400140 |   0x00400140 |   0x00400140 |   0x00400140 |   0x00400140 |   0x00400140 |   0x00400140 |   0x00400140 |   0x00400140 |   0x00400140 |   0x00400140 |   0x00400140 |   0x00400140 |   0x00400140 |   0x00400140 |   0x00400140 |   0x00400140 |   0x00400140 |   0x00400140 |   0x00400140 |   0x00400140 |   0x00400140 |   0x00400140 |   0x00400140 |   0x00400140 |   0x00400140 |   0x00400140 |   0x00400140 |   0x00400140 |   0x00400140 |   0x00400140 |   0x00400140 |
ld_environ_base                         0x7fff8000 |   0x7fff8000 |   0x7fff8000 |   0x7fff8000 |   0x7fff8000 |   0x7fff8000 |   0x7fff8000 |   0x7fff8000 |   0x7fff8000 |   0x7fff8000 |   0x7fff8000 |   0x7fff8000 |   0x7fff8000 |   0x7fff8000 |   0x7fff8000 |   0x7fff8000 |   0x7fff8000 |   0x7fff8000 |   0x7fff8000 |   0x7fff8000 |   0x7fff8000 |   0x7fff8000 |   0x7fff8000 |   0x7fff8000 |   0x7fff8000 |   0x7fff8000 |   0x7fff8000 |   0x7fff8000 |   0x7fff8000 |   0x7fff8000 |   0x7fff8000 |   0x7fff8000 |   0x7fff8000 |   0x7fff8000 |   0x7fff8000 |   0x7fff8000 |   0x7fff8000 |   0x7fff8000 |   0x7fff8000 |   0x7fff8000 |   0x7fff8000 |   0x7fff8000 |   0x7fff8000 |   0x7fff8000 |
ld_target_big_endian                             0 |            0 |            0 |            0 |            0 |            0 |            0 |            0 |            0 |            0 |            0 |            0 |            0 |            0 |            0 |            0 |            0 |            0 |            0 |            0 |            0 |            0 |            0 |            0 |            0 |            0 |            0 |            0 |            0 |            0 |            0 |            0 |            0 |            0 |            0 |            0 |            0 |            0 |            0 |            0 |            0 |            0 |            0 |            0 |
mem.page_count                                  30 |           30 |           30 |           30 |           34 |           34 |           34 |           34 |           42 |           42 |           42 |           42 |           58 |           58 |           58 |           58 |           90 |           90 |           90 |           90 |          154 |          154 |          154 |          154 |          282 |          282 |          282 |          282 |          538 |          538 |          538 |          538 |         1050 |         1050 |         1050 |         1050 |         2074 |         2074 |         2074 |         2074 |         4122 |         4122 |         4122 |         4122 |
mem.page_mem                                  120k |         120k |         120k |         120k |         136k |         136k |         136k |         136k |         168k |         168k |         168k |         168k |         232k |         232k |         232k |         232k |         360k |         360k |         360k |         360k |         616k |         616k |         616k |         616k |        1128k |        1128k |        1128k |        1128k |        2152k |        2152k |        2152k |        2152k |        4200k |        4200k |        4200k |        4200k |        8296k |        8296k |        8296k |        8296k |       16488k |       16488k |       16488k |       16488k |
mem.ptab_misses                                 30 |           30 |           30 |           30 |           34 |           34 |           34 |           34 |           42 |           42 |           42 |           42 |           58 |           58 |           58 |           58 |           90 |           90 |           90 |           90 |          154 |          154 |          154 |          154 |          282 |          282 |          282 |          282 |          538 |          538 |          538 |          538 |         1050 |         1050 |         1050 |         1050 |         2074 |         2074 |         2074 |         2074 |         4122 |         4122 |         4122 |         4122 |
mem.ptab_accesses                          4522276 |      4522276 |      4522276 |      4522276 |      9255582 |      9255582 |      9255582 |      9255582 |     19421982 |     19421982 |     19421982 |     19421982 |     41174972 |     41174972 |     41174972 |     41174972 |     87497994 |     87497994 |     87497994 |     87497994 |    185767122 |    185767122 |    185767122 |    185767122 |    393615232 |    393615232 |    393615232 |    393615232 |    831735702 |    831735702 |    831735702 |    831735702 |   1753156080 |   1753156080 |   1753156080 |   1753156080 |   3686187020 |   3686187020 |   3686187020 |   3686187020 |   7732348970 |   7732348970 |   7732348970 |   7732348970 |
mem.ptab_miss_rate                          0.0000 |       0.0000 |       0.0000 |       0.0000 |       0.0000 |       0.0000 |       0.0000 |       0.0000 |       0.0000 |       0.0000 |       0.0000 |       0.0000 |       0.0000 |       0.0000 |       0.0000 |       0.0000 |       0.0000 |       0.0000 |       0.0000 |       0.0000 |       0.0000 |       0.0000 |       0.0000 |       0.0000 |       0.0000 |       0.0000 |       0.0000 |       0.0000 |       0.0000 |       0.0000 |       0.0000 |       0.0000 |       0.0000 |       0.0000 |       0.0000 |       0.0000 |       0.0000 |       0.0000 |       0.0000 |       0.0000 |       0.0000 |       0.0000 |       0.0000 |       0.0000 |
-------------------------------------------------------------------------------------------------
sim-bpred                                     4096 |         4096 |         4096 |         4096 |         4096 |         4096 |         4096 |         8192 |         8192 |         8192 |         8192 |         8192 |         8192 |         8192 |        16384 |        16384 |        16384 |        16384 |        16384 |        16384 |        16384 |        32768 |        32768 |        32768 |        32768 |        32768 |        32768 |        32768 |        65536 |        65536 |        65536 |        65536 |        65536 |        65536 |        65536 |       131072 |       131072 |       131072 |       131072 |       131072 |       131072 |       131072 |       262144 |       262144 |       262144 |       262144 |       262144 |       262144 |       262144 |       524288 |       524288 |       524288 |       524288 |       524288 |       524288 |       524288 |      1048576 |      1048576 |      1048576 |      1048576 |      1048576 |      1048576 |      1048576 |      2097152 |      2097152 |      2097152 |      2097152 |      2097152 |      2097152 |      2097152 |      4194304 |      4194304 |      4194304 |      4194304 |      4194304 |      4194304 |      4194304 |
-bpred bimod -bpred:bimod 512
-bpred bimod -bpred:bimod 1024
-bpred bimod -bpred:bimod 2048
-bpred 2lev -bpred:2lev 1 512 10 1
-bpred 2lev -bpred:2lev 1 1024 10 1
-bpred 2lev -bpred:2lev 1 2048 10 1
-bpred 2lev -bpred:2lev 1 4096 10 1
-------------------------------------------------------------------------------------------------
sim_num_insn                                907562 |       907562 |       907562 |       907562 |       907562 |       907562 |       907562 |      1969030 |      1969030 |      1969030 |      1969030 |      1969030 |      1969030 |      1969030 |      4250669 |      4250669 |      4250669 |      4250669 |      4250669 |      4250669 |      4250669 |      9136050 |      9136050 |      9136050 |      9136050 |      9136050 |      9136050 |      9136050 |     19545606 |     19545606 |     19545606 |     19545606 |     19545606 |     19545606 |     19545606 |     41639654 |     41639654 |     41639654 |     41639654 |     41639654 |     41639654 |     41639654 |     88392204 |     88392204 |     88392204 |     88392204 |     88392204 |     88392204 |     88392204 |    186981761 |    186981761 |    186981761 |    186981761 |    186981761 |    186981761 |    186981761 |    394405266 |    394405266 |    394405266 |    394405266 |    394405266 |    394405266 |    394405266 |    829702284 |    829702284 |    829702284 |    829702284 |    829702284 |    829702284 |    829702284 |   1741132464 |   1741132464 |   1741132464 |   1741132464 |   1741132464 |   1741132464 |   1741132464 |
sim_num_refs                                198048 |       198048 |       198048 |       198048 |       198048 |       198048 |       198048 |       425285 |       425285 |       425285 |       425285 |       425285 |       425285 |       425285 |       912391 |       912391 |       912391 |       912391 |       912391 |       912391 |       912391 |      1952540 |      1952540 |      1952540 |      1952540 |      1952540 |      1952540 |      1952540 |      4163867 |      4163867 |      4163867 |      4163867 |      4163867 |      4163867 |      4163867 |      8848191 |      8848191 |      8848191 |      8848191 |      8848191 |      8848191 |      8848191 |     18742858 |     18742858 |     18742858 |     18742858 |     18742858 |     18742858 |     18742858 |     39575403 |     39575403 |     39575403 |     39575403 |     39575403 |     39575403 |     39575403 |     83341430 |     83341430 |     83341430 |     83341430 |     83341430 |     83341430 |     83341430 |    175068560 |    175068560 |    175068560 |    175068560 |    175068560 |    175068560 |    175068560 |    366900567 |    366900567 |    366900567 |    366900567 |    366900567 |    366900567 |    366900567 |
sim_elapsed_time                                 1 |            1 |            1 |            1 |            1 |            1 |            1 |            1 |            1 |            1 |            1 |            1 |            1 |            1 |            1 |            1 |            1 |            1 |            1 |            1 |            1 |            1 |            1 |            2 |            1 |            2 |            1 |            1 |            2 |            3 |            2 |            3 |            2 |            3 |            3 |            6 |            5 |            6 |            6 |            5 |            6 |            6 |           12 |           13 |           12 |           13 |           12 |           13 |           13 |           23 |           22 |           23 |           23 |           23 |           24 |           23 |           49 |           50 |           49 |           50 |           49 |           50 |           50 |          103 |          103 |          103 |          104 |          103 |          104 |          104 |          226 |          226 |          228 |          229 |          228 |          231 |          229 |
sim_inst_rate                          907562.0000 |  907562.0000 |  907562.0000 |  907562.0000 |  907562.0000 |  907562.0000 |  907562.0000 | 1969030.0000 | 1969030.0000 | 1969030.0000 | 1969030.0000 | 1969030.0000 | 1969030.0000 | 1969030.0000 | 4250669.0000 | 4250669.0000 | 4250669.0000 | 4250669.0000 | 4250669.0000 | 4250669.0000 | 4250669.0000 | 9136050.0000 | 9136050.0000 | 4568025.0000 | 9136050.0000 | 4568025.0000 | 9136050.0000 | 9136050.0000 | 9772803.0000 | 6515202.0000 | 9772803.0000 | 6515202.0000 | 9772803.0000 | 6515202.0000 | 6515202.0000 | 6939942.3333 | 8327930.8000 | 6939942.3333 | 6939942.3333 | 8327930.8000 | 6939942.3333 | 6939942.3333 | 7366017.0000 | 6799400.3077 | 7366017.0000 | 6799400.3077 | 7366017.0000 | 6799400.3077 | 6799400.3077 | 8129641.7826 | 8499170.9545 | 8129641.7826 | 8129641.7826 | 8129641.7826 | 7790906.7083 | 8129641.7826 | 8049087.0612 | 7888105.3200 | 8049087.0612 | 7888105.3200 | 8049087.0612 | 7888105.3200 | 7888105.3200 | 8055361.9806 | 8055361.9806 | 8055361.9806 | 7977906.5769 | 8055361.9806 | 7977906.5769 | 7977906.5769 | 7704125.9469 | 7704125.9469 | 7636545.8947 | 7603198.5328 | 7636545.8947 | 7537369.9740 | 7603198.5328 |
sim_num_branches                            176815 |       176815 |       176815 |       176815 |       176815 |       176815 |       176815 |       385753 |       385753 |       385753 |       385753 |       385753 |       385753 |       385753 |       836169 |       836169 |       836169 |       836169 |       836169 |       836169 |       836169 |      1803063 |      1803063 |      1803063 |      1803063 |      1803063 |      1803063 |      1803063 |      3867833 |      3867833 |      3867833 |      3867833 |      3867833 |      3867833 |      3867833 |      8259145 |      8259145 |      8259145 |      8259145 |      8259145 |      8259145 |      8259145 |     17567511 |     17567511 |     17567511 |     17567511 |     17567511 |     17567511 |     17567511 |     37227165 |     37227165 |     37227165 |     37227165 |     37227165 |     37227165 |     37227165 |     78647767 |     78647767 |     78647767 |     78647767 |     78647767 |     78647767 |     78647767 |    165684103 |    165684103 |    165684103 |    165684103 |    165684103 |    165684103 |    165684103 |    348132349 |    348132349 |    348132349 |    348132349 |    348132349 |    348132349 |    348132349 |
sim_IPB                                     5.1328 |       5.1328 |       5.1328 |       5.1328 |       5.1328 |       5.1328 |       5.1328 |       5.1044 |       5.1044 |       5.1044 |       5.1044 |       5.1044 |       5.1044 |       5.1044 |       5.0835 |       5.0835 |       5.0835 |       5.0835 |       5.0835 |       5.0835 |       5.0835 |       5.0670 |       5.0670 |       5.0670 |       5.0670 |       5.0670 |       5.0670 |       5.0670 |       5.0534 |       5.0534 |       5.0534 |       5.0534 |       5.0534 |       5.0534 |       5.0534 |       5.0416 |       5.0416 |       5.0416 |       5.0416 |       5.0416 |       5.0416 |       5.0416 |       5.0316 |       5.0316 |       5.0316 |       5.0316 |       5.0316 |       5.0316 |       5.0316 |       5.0227 |       5.0227 |       5.0227 |       5.0227 |       5.0227 |       5.0227 |       5.0227 |       5.0148 |       5.0148 |       5.0148 |       5.0148 |       5.0148 |       5.0148 |       5.0148 |       5.0077 |       5.0077 |       5.0077 |       5.0077 |       5.0077 |       5.0077 |       5.0077 |       5.0014 |       5.0014 |       5.0014 |       5.0014 |       5.0014 |       5.0014 |       5.0014 |
bpred_bimod.lookups                         176815 |       176815 |       176815 |xxxxxxxxxxxxx |xxxxxxxxxxxxx |xxxxxxxxxxxxx |xxxxxxxxxxxxx |       385753 |       385753 |       385753 |xxxxxxxxxxxxx |xxxxxxxxxxxxx |xxxxxxxxxxxxx |xxxxxxxxxxxxx |       836169 |       836169 |       836169 |xxxxxxxxxxxxx |xxxxxxxxxxxxx |xxxxxxxxxxxxx |xxxxxxxxxxxxx |      1803063 |      1803063 |      1803063 |xxxxxxxxxxxxx |xxxxxxxxxxxxx |xxxxxxxxxxxxx |xxxxxxxxxxxxx |      3867833 |      3867833 |      3867833 |xxxxxxxxxxxxx |xxxxxxxxxxxxx |xxxxxxxxxxxxx |xxxxxxxxxxxxx |      8259145 |      8259145 |      8259145 |xxxxxxxxxxxxx |xxxxxxxxxxxxx |xxxxxxxxxxxxx |xxxxxxxxxxxxx |     17567511 |     17567511 |     17567511 |xxxxxxxxxxxxx |xxxxxxxxxxxxx |xxxxxxxxxxxxx |xxxxxxxxxxxxx |     37227165 |     37227165 |     37227165 |xxxxxxxxxxxxx |xxxxxxxxxxxxx |xxxxxxxxxxxxx |xxxxxxxxxxxxx |     78647767 |     78647767 |     78647767 |xxxxxxxxxxxxx |xxxxxxxxxxxxx |xxxxxxxxxxxxx |xxxxxxxxxxxxx |    165684103 |    165684103 |    165684103 |xxxxxxxxxxxxx |xxxxxxxxxxxxx |xxxxxxxxxxxxx |xxxxxxxxxxxxx |    348132349 |    348132349 |    348132349 |
bpred_bimod.updates                         176815 |       176815 |       176815 |xxxxxxxxxxxxx |xxxxxxxxxxxxx |xxxxxxxxxxxxx |xxxxxxxxxxxxx |       385753 |       385753 |       385753 |xxxxxxxxxxxxx |xxxxxxxxxxxxx |xxxxxxxxxxxxx |xxxxxxxxxxxxx |       836169 |       836169 |       836169 |xxxxxxxxxxxxx |xxxxxxxxxxxxx |xxxxxxxxxxxxx |xxxxxxxxxxxxx |      1803063 |      1803063 |      1803063 |xxxxxxxxxxxxx |xxxxxxxxxxxxx |xxxxxxxxxxxxx |xxxxxxxxxxxxx |      3867833 |      3867833 |      3867833 |xxxxxxxxxxxxx |xxxxxxxxxxxxx |xxxxxxxxxxxxx |xxxxxxxxxxxxx |      8259145 |      8259145 |      8259145 |xxxxxxxxxxxxx |xxxxxxxxxxxxx |xxxxxxxxxxxxx |xxxxxxxxxxxxx |     17567511 |     17567511 |     17567511 |xxxxxxxxxxxxx |xxxxxxxxxxxxx |xxxxxxxxxxxxx |xxxxxxxxxxxxx |     37227165 |     37227165 |     37227165 |xxxxxxxxxxxxx |xxxxxxxxxxxxx |xxxxxxxxxxxxx |xxxxxxxxxxxxx |     78647767 |     78647767 |     78647767 |xxxxxxxxxxxxx |xxxxxxxxxxxxx |xxxxxxxxxxxxx |xxxxxxxxxxxxx |    165684103 |    165684103 |    165684103 |xxxxxxxxxxxxx |xxxxxxxxxxxxx |xxxxxxxxxxxxx |xxxxxxxxxxxxx |    348132349 |    348132349 |    348132349 |
bpred_bimod.addr_hits                       148957 |       148963 |       148963 |xxxxxxxxxxxxx |xxxxxxxxxxxxx |xxxxxxxxxxxxx |xxxxxxxxxxxxx |       326145 |       326148 |       326149 |xxxxxxxxxxxxx |xxxxxxxxxxxxx |xxxxxxxxxxxxx |xxxxxxxxxxxxx |       708701 |       708702 |       708702 |xxxxxxxxxxxxx |xxxxxxxxxxxxx |xxxxxxxxxxxxx |xxxxxxxxxxxxx |      1532723 |      1532726 |      1532728 |xxxxxxxxxxxxx |xxxxxxxxxxxxx |xxxxxxxxxxxxx |xxxxxxxxxxxxx |      3293692 |      3293692 |      3293693 |xxxxxxxxxxxxx |xxxxxxxxxxxxx |xxxxxxxxxxxxx |xxxxxxxxxxxxx |      7046052 |      7046054 |      7046055 |xxxxxxxxxxxxx |xxxxxxxxxxxxx |xxxxxxxxxxxxx |xxxxxxxxxxxxx |     15010462 |     15010463 |     15010465 |xxxxxxxxxxxxx |xxxxxxxxxxxxx |xxxxxxxxxxxxx |xxxxxxxxxxxxx |     31850916 |     31850918 |     31850919 |xxxxxxxxxxxxx |xxxxxxxxxxxxx |xxxxxxxxxxxxx |xxxxxxxxxxxxx |     67374018 |     67374020 |     67374022 |xxxxxxxxxxxxx |xxxxxxxxxxxxx |xxxxxxxxxxxxx |xxxxxxxxxxxxx |    142083666 |    142083666 |    142083667 |xxxxxxxxxxxxx |xxxxxxxxxxxxx |xxxxxxxxxxxxx |xxxxxxxxxxxxx |    298838292 |    298838293 |    298838294 |
bpred_bimod.dir_hits                        149070 |       149074 |       149074 |xxxxxxxxxxxxx |xxxxxxxxxxxxx |xxxxxxxxxxxxx |xxxxxxxxxxxxx |       326255 |       326259 |       326260 |xxxxxxxxxxxxx |xxxxxxxxxxxxx |xxxxxxxxxxxxx |xxxxxxxxxxxxx |       708813 |       708813 |       708813 |xxxxxxxxxxxxx |xxxxxxxxxxxxx |xxxxxxxxxxxxx |xxxxxxxxxxxxx |      1532837 |      1532838 |      1532838 |xxxxxxxxxxxxx |xxxxxxxxxxxxx |xxxxxxxxxxxxx |xxxxxxxxxxxxx |      3293804 |      3293803 |      3293802 |xxxxxxxxxxxxx |xxxxxxxxxxxxx |xxxxxxxxxxxxx |xxxxxxxxxxxxx |      7046165 |      7046166 |      7046165 |xxxxxxxxxxxxx |xxxxxxxxxxxxx |xxxxxxxxxxxxx |xxxxxxxxxxxxx |     15010575 |     15010575 |     15010576 |xxxxxxxxxxxxx |xxxxxxxxxxxxx |xxxxxxxxxxxxx |xxxxxxxxxxxxx |     31851028 |     31851030 |     31851030 |xxxxxxxxxxxxx |xxxxxxxxxxxxx |xxxxxxxxxxxxx |xxxxxxxxxxxxx |     67374128 |     67374130 |     67374131 |xxxxxxxxxxxxx |xxxxxxxxxxxxx |xxxxxxxxxxxxx |xxxxxxxxxxxxx |    142083781 |    142083780 |    142083780 |xxxxxxxxxxxxx |xxxxxxxxxxxxx |xxxxxxxxxxxxx |xxxxxxxxxxxxx |    298838406 |    298838407 |    298838406 |
bpred_bimod.misses                           27745 |        27741 |        27741 |xxxxxxxxxxxxx |xxxxxxxxxxxxx |xxxxxxxxxxxxx |xxxxxxxxxxxxx |        59498 |        59494 |        59493 |xxxxxxxxxxxxx |xxxxxxxxxxxxx |xxxxxxxxxxxxx |xxxxxxxxxxxxx |       127356 |       127356 |       127356 |xxxxxxxxxxxxx |xxxxxxxxxxxxx |xxxxxxxxxxxxx |xxxxxxxxxxxxx |       270226 |       270225 |       270225 |xxxxxxxxxxxxx |xxxxxxxxxxxxx |xxxxxxxxxxxxx |xxxxxxxxxxxxx |       574029 |       574030 |       574031 |xxxxxxxxxxxxx |xxxxxxxxxxxxx |xxxxxxxxxxxxx |xxxxxxxxxxxxx |      1212980 |      1212979 |      1212980 |xxxxxxxxxxxxx |xxxxxxxxxxxxx |xxxxxxxxxxxxx |xxxxxxxxxxxxx |      2556936 |      2556936 |      2556935 |xxxxxxxxxxxxx |xxxxxxxxxxxxx |xxxxxxxxxxxxx |xxxxxxxxxxxxx |      5376137 |      5376135 |      5376135 |xxxxxxxxxxxxx |xxxxxxxxxxxxx |xxxxxxxxxxxxx |xxxxxxxxxxxxx |     11273639 |     11273637 |     11273636 |xxxxxxxxxxxxx |xxxxxxxxxxxxx |xxxxxxxxxxxxx |xxxxxxxxxxxxx |     23600322 |     23600323 |     23600323 |xxxxxxxxxxxxx |xxxxxxxxxxxxx |xxxxxxxxxxxxx |xxxxxxxxxxxxx |     49293943 |     49293942 |     49293943 |
bpred_bimod.jr_hits                             57 |           57 |           57 |xxxxxxxxxxxxx |xxxxxxxxxxxxx |xxxxxxxxxxxxx |xxxxxxxxxxxxx |           57 |           57 |           57 |xxxxxxxxxxxxx |xxxxxxxxxxxxx |xxxxxxxxxxxxx |xxxxxxxxxxxxx |           57 |           57 |           57 |xxxxxxxxxxxxx |xxxxxxxxxxxxx |xxxxxxxxxxxxx |xxxxxxxxxxxxx |           57 |           57 |           57 |xxxxxxxxxxxxx |xxxxxxxxxxxxx |xxxxxxxxxxxxx |xxxxxxxxxxxxx |           57 |           57 |           57 |xxxxxxxxxxxxx |xxxxxxxxxxxxx |xxxxxxxxxxxxx |xxxxxxxxxxxxx |           57 |           57 |           57 |xxxxxxxxxxxxx |xxxxxxxxxxxxx |xxxxxxxxxxxxx |xxxxxxxxxxxxx |           57 |           57 |           57 |xxxxxxxxxxxxx |xxxxxxxxxxxxx |xxxxxxxxxxxxx |xxxxxxxxxxxxx |           57 |           57 |           57 |xxxxxxxxxxxxx |xxxxxxxxxxxxx |xxxxxxxxxxxxx |xxxxxxxxxxxxx |           57 |           57 |           57 |xxxxxxxxxxxxx |xxxxxxxxxxxxx |xxxxxxxxxxxxx |xxxxxxxxxxxxx |           57 |           57 |           57 |xxxxxxxxxxxxx |xxxxxxxxxxxxx |xxxxxxxxxxxxx |xxxxxxxxxxxxx |           57 |           57 |           57 |
bpred_bimod.jr_seen                             58 |           58 |           58 |xxxxxxxxxxxxx |xxxxxxxxxxxxx |xxxxxxxxxxxxx |xxxxxxxxxxxxx |           58 |           58 |           58 |xxxxxxxxxxxxx |xxxxxxxxxxxxx |xxxxxxxxxxxxx |xxxxxxxxxxxxx |           58 |           58 |           58 |xxxxxxxxxxxxx |xxxxxxxxxxxxx |xxxxxxxxxxxxx |xxxxxxxxxxxxx |           58 |           58 |           58 |xxxxxxxxxxxxx |xxxxxxxxxxxxx |xxxxxxxxxxxxx |xxxxxxxxxxxxx |           58 |           58 |           58 |xxxxxxxxxxxxx |xxxxxxxxxxxxx |xxxxxxxxxxxxx |xxxxxxxxxxxxx |           58 |           58 |           58 |xxxxxxxxxxxxx |xxxxxxxxxxxxx |xxxxxxxxxxxxx |xxxxxxxxxxxxx |           58 |           58 |           58 |xxxxxxxxxxxxx |xxxxxxxxxxxxx |xxxxxxxxxxxxx |xxxxxxxxxxxxx |           58 |           58 |           58 |xxxxxxxxxxxxx |xxxxxxxxxxxxx |xxxxxxxxxxxxx |xxxxxxxxxxxxx |           58 |           58 |           58 |xxxxxxxxxxxxx |xxxxxxxxxxxxx |xxxxxxxxxxxxx |xxxxxxxxxxxxx |           58 |           58 |           58 |xxxxxxxxxxxxx |xxxxxxxxxxxxx |xxxxxxxxxxxxx |xxxxxxxxxxxxx |           58 |           58 |           58 |
bpred_bimod.jr_non_ras_hits.PP                   0 |            0 |            0 |xxxxxxxxxxxxx |xxxxxxxxxxxxx |xxxxxxxxxxxxx |xxxxxxxxxxxxx |            0 |            0 |            0 |xxxxxxxxxxxxx |xxxxxxxxxxxxx |xxxxxxxxxxxxx |xxxxxxxxxxxxx |            0 |            0 |            0 |xxxxxxxxxxxxx |xxxxxxxxxxxxx |xxxxxxxxxxxxx |xxxxxxxxxxxxx |            0 |            0 |            0 |xxxxxxxxxxxxx |xxxxxxxxxxxxx |xxxxxxxxxxxxx |xxxxxxxxxxxxx |            0 |            0 |            0 |xxxxxxxxxxxxx |xxxxxxxxxxxxx |xxxxxxxxxxxxx |xxxxxxxxxxxxx |            0 |            0 |            0 |xxxxxxxxxxxxx |xxxxxxxxxxxxx |xxxxxxxxxxxxx |xxxxxxxxxxxxx |            0 |            0 |            0 |xxxxxxxxxxxxx |xxxxxxxxxxxxx |xxxxxxxxxxxxx |xxxxxxxxxxxxx |            0 |            0 |            0 |xxxxxxxxxxxxx |xxxxxxxxxxxxx |xxxxxxxxxxxxx |xxxxxxxxxxxxx |            0 |            0 |            0 |xxxxxxxxxxxxx |xxxxxxxxxxxxx |xxxxxxxxxxxxx |xxxxxxxxxxxxx |            0 |            0 |            0 |xxxxxxxxxxxxx |xxxxxxxxxxxxx |xxxxxxxxxxxxx |xxxxxxxxxxxxx |            0 |            0 |            0 |
bpred_bimod.jr_non_ras_seen.PP                   0 |            0 |            0 |xxxxxxxxxxxxx |xxxxxxxxxxxxx |xxxxxxxxxxxxx |xxxxxxxxxxxxx |            0 |            0 |            0 |xxxxxxxxxxxxx |xxxxxxxxxxxxx |xxxxxxxxxxxxx |xxxxxxxxxxxxx |            0 |            0 |            0 |xxxxxxxxxxxxx |xxxxxxxxxxxxx |xxxxxxxxxxxxx |xxxxxxxxxxxxx |            0 |            0 |            0 |xxxxxxxxxxxxx |xxxxxxxxxxxxx |xxxxxxxxxxxxx |xxxxxxxxxxxxx |            0 |            0 |            0 |xxxxxxxxxxxxx |xxxxxxxxxxxxx |xxxxxxxxxxxxx |xxxxxxxxxxxxx |            0 |            0 |            0 |xxxxxxxxxxxxx |xxxxxxxxxxxxx |xxxxxxxxxxxxx |xxxxxxxxxxxxx |            0 |            0 |            0 |xxxxxxxxxxxxx |xxxxxxxxxxxxx |xxxxxxxxxxxxx |xxxxxxxxxxxxx |            0 |            0 |            0 |xxxxxxxxxxxxx |xxxxxxxxxxxxx |xxxxxxxxxxxxx |xxxxxxxxxxxxx |            0 |            0 |            0 |xxxxxxxxxxxxx |xxxxxxxxxxxxx |xxxxxxxxxxxxx |xxxxxxxxxxxxx |            0 |            0 |            0 |xxxxxxxxxxxxx |xxxxxxxxxxxxx |xxxxxxxxxxxxx |xxxxxxxxxxxxx |            0 |            0 |            0 |
bpred_bimod.bpred_addr_rate                 0.8424 |       0.8425 |       0.8425 |xxxxxxxxxxxxx |xxxxxxxxxxxxx |xxxxxxxxxxxxx |xxxxxxxxxxxxx |       0.8455 |       0.8455 |       0.8455 |xxxxxxxxxxxxx |xxxxxxxxxxxxx |xxxxxxxxxxxxx |xxxxxxxxxxxxx |       0.8476 |       0.8476 |       0.8476 |xxxxxxxxxxxxx |xxxxxxxxxxxxx |xxxxxxxxxxxxx |xxxxxxxxxxxxx |       0.8501 |       0.8501 |       0.8501 |xxxxxxxxxxxxx |xxxxxxxxxxxxx |xxxxxxxxxxxxx |xxxxxxxxxxxxx |       0.8516 |       0.8516 |       0.8516 |xxxxxxxxxxxxx |xxxxxxxxxxxxx |xxxxxxxxxxxxx |xxxxxxxxxxxxx |       0.8531 |       0.8531 |       0.8531 |xxxxxxxxxxxxx |xxxxxxxxxxxxx |xxxxxxxxxxxxx |xxxxxxxxxxxxx |       0.8544 |       0.8544 |       0.8544 |xxxxxxxxxxxxx |xxxxxxxxxxxxx |xxxxxxxxxxxxx |xxxxxxxxxxxxx |       0.8556 |       0.8556 |       0.8556 |xxxxxxxxxxxxx |xxxxxxxxxxxxx |xxxxxxxxxxxxx |xxxxxxxxxxxxx |       0.8567 |       0.8567 |       0.8567 |xxxxxxxxxxxxx |xxxxxxxxxxxxx |xxxxxxxxxxxxx |xxxxxxxxxxxxx |       0.8576 |       0.8576 |       0.8576 |xxxxxxxxxxxxx |xxxxxxxxxxxxx |xxxxxxxxxxxxx |xxxxxxxxxxxxx |       0.8584 |       0.8584 |       0.8584 |
bpred_bimod.bpred_dir_rate                  0.8431 |       0.8431 |       0.8431 |xxxxxxxxxxxxx |xxxxxxxxxxxxx |xxxxxxxxxxxxx |xxxxxxxxxxxxx |       0.8458 |       0.8458 |       0.8458 |xxxxxxxxxxxxx |xxxxxxxxxxxxx |xxxxxxxxxxxxx |xxxxxxxxxxxxx |       0.8477 |       0.8477 |       0.8477 |xxxxxxxxxxxxx |xxxxxxxxxxxxx |xxxxxxxxxxxxx |xxxxxxxxxxxxx |       0.8501 |       0.8501 |       0.8501 |xxxxxxxxxxxxx |xxxxxxxxxxxxx |xxxxxxxxxxxxx |xxxxxxxxxxxxx |       0.8516 |       0.8516 |       0.8516 |xxxxxxxxxxxxx |xxxxxxxxxxxxx |xxxxxxxxxxxxx |xxxxxxxxxxxxx |       0.8531 |       0.8531 |       0.8531 |xxxxxxxxxxxxx |xxxxxxxxxxxxx |xxxxxxxxxxxxx |xxxxxxxxxxxxx |       0.8545 |       0.8545 |       0.8545 |xxxxxxxxxxxxx |xxxxxxxxxxxxx |xxxxxxxxxxxxx |xxxxxxxxxxxxx |       0.8556 |       0.8556 |       0.8556 |xxxxxxxxxxxxx |xxxxxxxxxxxxx |xxxxxxxxxxxxx |xxxxxxxxxxxxx |       0.8567 |       0.8567 |       0.8567 |xxxxxxxxxxxxx |xxxxxxxxxxxxx |xxxxxxxxxxxxx |xxxxxxxxxxxxx |       0.8576 |       0.8576 |       0.8576 |xxxxxxxxxxxxx |xxxxxxxxxxxxx |xxxxxxxxxxxxx |xxxxxxxxxxxxx |       0.8584 |       0.8584 |       0.8584 |
bpred_bimod.bpred_jr_rate                   0.9828 |       0.9828 |       0.9828 |xxxxxxxxxxxxx |xxxxxxxxxxxxx |xxxxxxxxxxxxx |xxxxxxxxxxxxx |       0.9828 |       0.9828 |       0.9828 |xxxxxxxxxxxxx |xxxxxxxxxxxxx |xxxxxxxxxxxxx |xxxxxxxxxxxxx |       0.9828 |       0.9828 |       0.9828 |xxxxxxxxxxxxx |xxxxxxxxxxxxx |xxxxxxxxxxxxx |xxxxxxxxxxxxx |       0.9828 |       0.9828 |       0.9828 |xxxxxxxxxxxxx |xxxxxxxxxxxxx |xxxxxxxxxxxxx |xxxxxxxxxxxxx |       0.9828 |       0.9828 |       0.9828 |xxxxxxxxxxxxx |xxxxxxxxxxxxx |xxxxxxxxxxxxx |xxxxxxxxxxxxx |       0.9828 |       0.9828 |       0.9828 |xxxxxxxxxxxxx |xxxxxxxxxxxxx |xxxxxxxxxxxxx |xxxxxxxxxxxxx |       0.9828 |       0.9828 |       0.9828 |xxxxxxxxxxxxx |xxxxxxxxxxxxx |xxxxxxxxxxxxx |xxxxxxxxxxxxx |       0.9828 |       0.9828 |       0.9828 |xxxxxxxxxxxxx |xxxxxxxxxxxxx |xxxxxxxxxxxxx |xxxxxxxxxxxxx |       0.9828 |       0.9828 |       0.9828 |xxxxxxxxxxxxx |xxxxxxxxxxxxx |xxxxxxxxxxxxx |xxxxxxxxxxxxx |       0.9828 |       0.9828 |       0.9828 |xxxxxxxxxxxxx |xxxxxxxxxxxxx |xxxxxxxxxxxxx |xxxxxxxxxxxxx |       0.9828 |       0.9828 |       0.9828 |
bpred_bimod.bpred_jr_non_ras_rate.PP       <error: |      <error: |      <error: |xxxxxxxxxxxxx |xxxxxxxxxxxxx |xxxxxxxxxxxxx |xxxxxxxxxxxxx |      <error: |      <error: |      <error: |xxxxxxxxxxxxx |xxxxxxxxxxxxx |xxxxxxxxxxxxx |xxxxxxxxxxxxx |      <error: |      <error: |      <error: |xxxxxxxxxxxxx |xxxxxxxxxxxxx |xxxxxxxxxxxxx |xxxxxxxxxxxxx |      <error: |      <error: |      <error: |xxxxxxxxxxxxx |xxxxxxxxxxxxx |xxxxxxxxxxxxx |xxxxxxxxxxxxx |      <error: |      <error: |      <error: |xxxxxxxxxxxxx |xxxxxxxxxxxxx |xxxxxxxxxxxxx |xxxxxxxxxxxxx |      <error: |      <error: |      <error: |xxxxxxxxxxxxx |xxxxxxxxxxxxx |xxxxxxxxxxxxx |xxxxxxxxxxxxx |      <error: |      <error: |      <error: |xxxxxxxxxxxxx |xxxxxxxxxxxxx |xxxxxxxxxxxxx |xxxxxxxxxxxxx |      <error: |      <error: |      <error: |xxxxxxxxxxxxx |xxxxxxxxxxxxx |xxxxxxxxxxxxx |xxxxxxxxxxxxx |      <error: |      <error: |      <error: |xxxxxxxxxxxxx |xxxxxxxxxxxxx |xxxxxxxxxxxxx |xxxxxxxxxxxxx |      <error: |      <error: |      <error: |xxxxxxxxxxxxx |xxxxxxxxxxxxx |xxxxxxxxxxxxx |xxxxxxxxxxxxx |      <error: |      <error: |      <error: |
bpred_bimod.retstack_pushes                     60 |           60 |           60 |xxxxxxxxxxxxx |xxxxxxxxxxxxx |xxxxxxxxxxxxx |xxxxxxxxxxxxx |           60 |           60 |           60 |xxxxxxxxxxxxx |xxxxxxxxxxxxx |xxxxxxxxxxxxx |xxxxxxxxxxxxx |           60 |           60 |           60 |xxxxxxxxxxxxx |xxxxxxxxxxxxx |xxxxxxxxxxxxx |xxxxxxxxxxxxx |           60 |           60 |           60 |xxxxxxxxxxxxx |xxxxxxxxxxxxx |xxxxxxxxxxxxx |xxxxxxxxxxxxx |           60 |           60 |           60 |xxxxxxxxxxxxx |xxxxxxxxxxxxx |xxxxxxxxxxxxx |xxxxxxxxxxxxx |           60 |           60 |           60 |xxxxxxxxxxxxx |xxxxxxxxxxxxx |xxxxxxxxxxxxx |xxxxxxxxxxxxx |           60 |           60 |           60 |xxxxxxxxxxxxx |xxxxxxxxxxxxx |xxxxxxxxxxxxx |xxxxxxxxxxxxx |           60 |           60 |           60 |xxxxxxxxxxxxx |xxxxxxxxxxxxx |xxxxxxxxxxxxx |xxxxxxxxxxxxx |           60 |           60 |           60 |xxxxxxxxxxxxx |xxxxxxxxxxxxx |xxxxxxxxxxxxx |xxxxxxxxxxxxx |           60 |           60 |           60 |xxxxxxxxxxxxx |xxxxxxxxxxxxx |xxxxxxxxxxxxx |xxxxxxxxxxxxx |           60 |           60 |           60 |
bpred_bimod.retstack_pops                       58 |           58 |           58 |xxxxxxxxxxxxx |xxxxxxxxxxxxx |xxxxxxxxxxxxx |xxxxxxxxxxxxx |           58 |           58 |           58 |xxxxxxxxxxxxx |xxxxxxxxxxxxx |xxxxxxxxxxxxx |xxxxxxxxxxxxx |           58 |           58 |           58 |xxxxxxxxxxxxx |xxxxxxxxxxxxx |xxxxxxxxxxxxx |xxxxxxxxxxxxx |           58 |           58 |           58 |xxxxxxxxxxxxx |xxxxxxxxxxxxx |xxxxxxxxxxxxx |xxxxxxxxxxxxx |           58 |           58 |           58 |xxxxxxxxxxxxx |xxxxxxxxxxxxx |xxxxxxxxxxxxx |xxxxxxxxxxxxx |           58 |           58 |           58 |xxxxxxxxxxxxx |xxxxxxxxxxxxx |xxxxxxxxxxxxx |xxxxxxxxxxxxx |           58 |           58 |           58 |xxxxxxxxxxxxx |xxxxxxxxxxxxx |xxxxxxxxxxxxx |xxxxxxxxxxxxx |           58 |           58 |           58 |xxxxxxxxxxxxx |xxxxxxxxxxxxx |xxxxxxxxxxxxx |xxxxxxxxxxxxx |           58 |           58 |           58 |xxxxxxxxxxxxx |xxxxxxxxxxxxx |xxxxxxxxxxxxx |xxxxxxxxxxxxx |           58 |           58 |           58 |xxxxxxxxxxxxx |xxxxxxxxxxxxx |xxxxxxxxxxxxx |xxxxxxxxxxxxx |           58 |           58 |           58 |
bpred_bimod.used_ras.PP                         58 |           58 |           58 |xxxxxxxxxxxxx |xxxxxxxxxxxxx |xxxxxxxxxxxxx |xxxxxxxxxxxxx |           58 |           58 |           58 |xxxxxxxxxxxxx |xxxxxxxxxxxxx |xxxxxxxxxxxxx |xxxxxxxxxxxxx |           58 |           58 |           58 |xxxxxxxxxxxxx |xxxxxxxxxxxxx |xxxxxxxxxxxxx |xxxxxxxxxxxxx |           58 |           58 |           58 |xxxxxxxxxxxxx |xxxxxxxxxxxxx |xxxxxxxxxxxxx |xxxxxxxxxxxxx |           58 |           58 |           58 |xxxxxxxxxxxxx |xxxxxxxxxxxxx |xxxxxxxxxxxxx |xxxxxxxxxxxxx |           58 |           58 |           58 |xxxxxxxxxxxxx |xxxxxxxxxxxxx |xxxxxxxxxxxxx |xxxxxxxxxxxxx |           58 |           58 |           58 |xxxxxxxxxxxxx |xxxxxxxxxxxxx |xxxxxxxxxxxxx |xxxxxxxxxxxxx |           58 |           58 |           58 |xxxxxxxxxxxxx |xxxxxxxxxxxxx |xxxxxxxxxxxxx |xxxxxxxxxxxxx |           58 |           58 |           58 |xxxxxxxxxxxxx |xxxxxxxxxxxxx |xxxxxxxxxxxxx |xxxxxxxxxxxxx |           58 |           58 |           58 |xxxxxxxxxxxxx |xxxxxxxxxxxxx |xxxxxxxxxxxxx |xxxxxxxxxxxxx |           58 |           58 |           58 |
bpred_bimod.ras_hits.PP                         57 |           57 |           57 |xxxxxxxxxxxxx |xxxxxxxxxxxxx |xxxxxxxxxxxxx |xxxxxxxxxxxxx |           57 |           57 |           57 |xxxxxxxxxxxxx |xxxxxxxxxxxxx |xxxxxxxxxxxxx |xxxxxxxxxxxxx |           57 |           57 |           57 |xxxxxxxxxxxxx |xxxxxxxxxxxxx |xxxxxxxxxxxxx |xxxxxxxxxxxxx |           57 |           57 |           57 |xxxxxxxxxxxxx |xxxxxxxxxxxxx |xxxxxxxxxxxxx |xxxxxxxxxxxxx |           57 |           57 |           57 |xxxxxxxxxxxxx |xxxxxxxxxxxxx |xxxxxxxxxxxxx |xxxxxxxxxxxxx |           57 |           57 |           57 |xxxxxxxxxxxxx |xxxxxxxxxxxxx |xxxxxxxxxxxxx |xxxxxxxxxxxxx |           57 |           57 |           57 |xxxxxxxxxxxxx |xxxxxxxxxxxxx |xxxxxxxxxxxxx |xxxxxxxxxxxxx |           57 |           57 |           57 |xxxxxxxxxxxxx |xxxxxxxxxxxxx |xxxxxxxxxxxxx |xxxxxxxxxxxxx |           57 |           57 |           57 |xxxxxxxxxxxxx |xxxxxxxxxxxxx |xxxxxxxxxxxxx |xxxxxxxxxxxxx |           57 |           57 |           57 |xxxxxxxxxxxxx |xxxxxxxxxxxxx |xxxxxxxxxxxxx |xxxxxxxxxxxxx |           57 |           57 |           57 |
bpred_bimod.ras_rate.PP                     0.9828 |       0.9828 |       0.9828 |xxxxxxxxxxxxx |xxxxxxxxxxxxx |xxxxxxxxxxxxx |xxxxxxxxxxxxx |       0.9828 |       0.9828 |       0.9828 |xxxxxxxxxxxxx |xxxxxxxxxxxxx |xxxxxxxxxxxxx |xxxxxxxxxxxxx |       0.9828 |       0.9828 |       0.9828 |xxxxxxxxxxxxx |xxxxxxxxxxxxx |xxxxxxxxxxxxx |xxxxxxxxxxxxx |       0.9828 |       0.9828 |       0.9828 |xxxxxxxxxxxxx |xxxxxxxxxxxxx |xxxxxxxxxxxxx |xxxxxxxxxxxxx |       0.9828 |       0.9828 |       0.9828 |xxxxxxxxxxxxx |xxxxxxxxxxxxx |xxxxxxxxxxxxx |xxxxxxxxxxxxx |       0.9828 |       0.9828 |       0.9828 |xxxxxxxxxxxxx |xxxxxxxxxxxxx |xxxxxxxxxxxxx |xxxxxxxxxxxxx |       0.9828 |       0.9828 |       0.9828 |xxxxxxxxxxxxx |xxxxxxxxxxxxx |xxxxxxxxxxxxx |xxxxxxxxxxxxx |       0.9828 |       0.9828 |       0.9828 |xxxxxxxxxxxxx |xxxxxxxxxxxxx |xxxxxxxxxxxxx |xxxxxxxxxxxxx |       0.9828 |       0.9828 |       0.9828 |xxxxxxxxxxxxx |xxxxxxxxxxxxx |xxxxxxxxxxxxx |xxxxxxxxxxxxx |       0.9828 |       0.9828 |       0.9828 |xxxxxxxxxxxxx |xxxxxxxxxxxxx |xxxxxxxxxxxxx |xxxxxxxxxxxxx |       0.9828 |       0.9828 |       0.9828 |
bpred_2lev.lookups                   xxxxxxxxxxxxx |xxxxxxxxxxxxx |xxxxxxxxxxxxx |       176815 |       176815 |       176815 |       176815 |xxxxxxxxxxxxx |xxxxxxxxxxxxx |xxxxxxxxxxxxx |       385753 |       385753 |       385753 |       385753 |xxxxxxxxxxxxx |xxxxxxxxxxxxx |xxxxxxxxxxxxx |       836169 |       836169 |       836169 |       836169 |xxxxxxxxxxxxx |xxxxxxxxxxxxx |xxxxxxxxxxxxx |      1803063 |      1803063 |      1803063 |      1803063 |xxxxxxxxxxxxx |xxxxxxxxxxxxx |xxxxxxxxxxxxx |      3867833 |      3867833 |      3867833 |      3867833 |xxxxxxxxxxxxx |xxxxxxxxxxxxx |xxxxxxxxxxxxx |      8259145 |      8259145 |      8259145 |      8259145 |xxxxxxxxxxxxx |xxxxxxxxxxxxx |xxxxxxxxxxxxx |     17567511 |     17567511 |     17567511 |     17567511 |xxxxxxxxxxxxx |xxxxxxxxxxxxx |xxxxxxxxxxxxx |     37227165 |     37227165 |     37227165 |     37227165 |xxxxxxxxxxxxx |xxxxxxxxxxxxx |xxxxxxxxxxxxx |     78647767 |     78647767 |     78647767 |     78647767 |xxxxxxxxxxxxx |xxxxxxxxxxxxx |xxxxxxxxxxxxx |    165684103 |    165684103 |    165684103 |    165684103 |xxxxxxxxxxxxx |xxxxxxxxxxxxx |xxxxxxxxxxxxx |    348132349 |    348132349 |    348132349 |    348132349 |
[...]
bpred_2lev.retstack_pushes           xxxxxxxxxxxxx |xxxxxxxxxxxxx |xxxxxxxxxxxxx |           60 |           60 |           60 |           60 |xxxxxxxxxxxxx |xxxxxxxxxxxxx |xxxxxxxxxxxxx |           60 |           60 |           60 |           60 |xxxxxxxxxxxxx |xxxxxxxxxxxxx |xxxxxxxxxxxxx |           60 |           60 |           60 |           60 |xxxxxxxxxxxxx |xxxxxxxxxxxxx |xxxxxxxxxxxxx |           60 |           60 |           60 |           60 |xxxxxxxxxxxxx |xxxxxxxxxxxxx |xxxxxxxxxxxxx |           60 |           60 |           60 |           60 |xxxxxxxxxxxxx |xxxxxxxxxxxxx |xxxxxxxxxxxxx |           60 |           60 |           60 |           60 |xxxxxxxxxxxxx |xxxxxxxxxxxxx |xxxxxxxxxxxxx |           60 |           60 |           60 |           60 |xxxxxxxxxxxxx |xxxxxxxxxxxxx |xxxxxxxxxxxxx |           60 |           60 |           60 |           60 |xxxxxxxxxxxxx |xxxxxxxxxxxxx |xxxxxxxxxxxxx |           60 |           60 |           60 |           60 |xxxxxxxxxxxxx |xxxxxxxxxxxxx |xxxxxxxxxxxxx |           60 |           60 |           60 |           60 |xxxxxxxxxxxxx |xxxxxxxxxxxxx |xxxxxxxxxxxxx |           60 |           60 |           60 |           60 |
bpred_2lev.retstack_pops             xxxxxxxxxxxxx |xxxxxxxxxxxxx |xxxxxxxxxxxxx |           58 |           58 |           58 |           58 |xxxxxxxxxxxxx |xxxxxxxxxxxxx |xxxxxxxxxxxxx |           58 |           58 |           58 |           58 |xxxxxxxxxxxxx |xxxxxxxxxxxxx |xxxxxxxxxxxxx |           58 |           58 |           58 |           58 |xxxxxxxxxxxxx |xxxxxxxxxxxxx |xxxxxxxxxxxxx |           58 |           58 |           58 |           58 |xxxxxxxxxxxxx |xxxxxxxxxxxxx |xxxxxxxxxxxxx |           58 |           58 |           58 |           58 |xxxxxxxxxxxxx |xxxxxxxxxxxxx |xxxxxxxxxxxxx |           58 |           58 |           58 |           58 |xxxxxxxxxxxxx |xxxxxxxxxxxxx |xxxxxxxxxxxxx |           58 |           58 |           58 |           58 |xxxxxxxxxxxxx |xxxxxxxxxxxxx |xxxxxxxxxxxxx |           58 |           58 |           58 |           58 |xxxxxxxxxxxxx |xxxxxxxxxxxxx |xxxxxxxxxxxxx |           58 |           58 |           58 |           58 |xxxxxxxxxxxxx |xxxxxxxxxxxxx |xxxxxxxxxxxxx |           58 |           58 |           58 |           58 |xxxxxxxxxxxxx |xxxxxxxxxxxxx |xxxxxxxxxxxxx |           58 |           58 |           58 |           58 |
bpred_2lev.used_ras.PP               xxxxxxxxxxxxx |xxxxxxxxxxxxx |xxxxxxxxxxxxx |           58 |           58 |           58 |           58 |xxxxxxxxxxxxx |xxxxxxxxxxxxx |xxxxxxxxxxxxx |           58 |           58 |           58 |           58 |xxxxxxxxxxxxx |xxxxxxxxxxxxx |xxxxxxxxxxxxx |           58 |           58 |           58 |           58 |xxxxxxxxxxxxx |xxxxxxxxxxxxx |xxxxxxxxxxxxx |           58 |           58 |           58 |           58 |xxxxxxxxxxxxx |xxxxxxxxxxxxx |xxxxxxxxxxxxx |           58 |           58 |           58 |           58 |xxxxxxxxxxxxx |xxxxxxxxxxxxx |xxxxxxxxxxxxx |           58 |           58 |           58 |           58 |xxxxxxxxxxxxx |xxxxxxxxxxxxx |xxxxxxxxxxxxx |           58 |           58 |           58 |           58 |xxxxxxxxxxxxx |xxxxxxxxxxxxx |xxxxxxxxxxxxx |           58 |           58 |           58 |           58 |xxxxxxxxxxxxx |xxxxxxxxxxxxx |xxxxxxxxxxxxx |           58 |           58 |           58 |           58 |xxxxxxxxxxxxx |xxxxxxxxxxxxx |xxxxxxxxxxxxx |           58 |           58 |           58 |           58 |xxxxxxxxxxxxx |xxxxxxxxxxxxx |xxxxxxxxxxxxx |           58 |           58 |           58 |           58 |
bpred_2lev.ras_hits.PP               xxxxxxxxxxxxx |xxxxxxxxxxxxx |xxxxxxxxxxxxx |           57 |           57 |           57 |           57 |xxxxxxxxxxxxx |xxxxxxxxxxxxx |xxxxxxxxxxxxx |           57 |           57 |           57 |           57 |xxxxxxxxxxxxx |xxxxxxxxxxxxx |xxxxxxxxxxxxx |           57 |           57 |           57 |           57 |xxxxxxxxxxxxx |xxxxxxxxxxxxx |xxxxxxxxxxxxx |           57 |           57 |           57 |           57 |xxxxxxxxxxxxx |xxxxxxxxxxxxx |xxxxxxxxxxxxx |           57 |           57 |           57 |           57 |xxxxxxxxxxxxx |xxxxxxxxxxxxx |xxxxxxxxxxxxx |           57 |           57 |           57 |           57 |xxxxxxxxxxxxx |xxxxxxxxxxxxx |xxxxxxxxxxxxx |           57 |           57 |           57 |           57 |xxxxxxxxxxxxx |xxxxxxxxxxxxx |xxxxxxxxxxxxx |           57 |           57 |           57 |           57 |xxxxxxxxxxxxx |xxxxxxxxxxxxx |xxxxxxxxxxxxx |           57 |           57 |           57 |           57 |xxxxxxxxxxxxx |xxxxxxxxxxxxx |xxxxxxxxxxxxx |           57 |           57 |           57 |           57 |xxxxxxxxxxxxx |xxxxxxxxxxxxx |xxxxxxxxxxxxx |           57 |           57 |           57 |           57 |
bpred_2lev.ras_rate.PP               xxxxxxxxxxxxx |xxxxxxxxxxxxx |xxxxxxxxxxxxx |       0.9828 |       0.9828 |       0.9828 |       0.9828 |xxxxxxxxxxxxx |xxxxxxxxxxxxx |xxxxxxxxxxxxx |       0.9828 |       0.9828 |       0.9828 |       0.9828 |xxxxxxxxxxxxx |xxxxxxxxxxxxx |xxxxxxxxxxxxx |       0.9828 |       0.9828 |       0.9828 |       0.9828 |xxxxxxxxxxxxx |xxxxxxxxxxxxx |xxxxxxxxxxxxx |       0.9828 |       0.9828 |       0.9828 |       0.9828 |xxxxxxxxxxxxx |xxxxxxxxxxxxx |xxxxxxxxxxxxx |       0.9828 |       0.9828 |       0.9828 |       0.9828 |xxxxxxxxxxxxx |xxxxxxxxxxxxx |xxxxxxxxxxxxx |       0.9828 |       0.9828 |       0.9828 |       0.9828 |xxxxxxxxxxxxx |xxxxxxxxxxxxx |xxxxxxxxxxxxx |       0.9828 |       0.9828 |       0.9828 |       0.9828 |xxxxxxxxxxxxx |xxxxxxxxxxxxx |xxxxxxxxxxxxx |       0.9828 |       0.9828 |       0.9828 |       0.9828 |xxxxxxxxxxxxx |xxxxxxxxxxxxx |xxxxxxxxxxxxx |       0.9828 |       0.9828 |       0.9828 |       0.9828 |xxxxxxxxxxxxx |xxxxxxxxxxxxx |xxxxxxxxxxxxx |       0.9828 |       0.9828 |       0.9828 |       0.9828 |xxxxxxxxxxxxx |xxxxxxxxxxxxx |xxxxxxxxxxxxx |       0.9828 |       0.9828 |       0.9828 |       0.9828 |

Command list: 
	sslittle-na-sstrix-gcc -Wall -O3 -funroll-loops -finline-functions  -DRANDOM_SIZE=4096 -DOFFSET=4 -DSORT=base_heapsort sorts/base_heapsort882889692.c simpleMain.c -o base_heapsort83642006
	sim-cache -cache:dl1 dl1:256:32:1:l -cache:dl2 dl2:131072:32:1:l -cache:il1 il1:256:32:1:l -cache:il2 dl2 base_heapsort83642006
	sim-cache -cache:dl1 dl1:256:32:1:l -cache:dl2 dl2:65536:32:1:l -cache:il1 il1:256:32:1:l -cache:il2 dl2 base_heapsort83642006
	sim-cache -cache:dl1 dl1:1:32:256:l -cache:dl2 dl2:1:32:131072:l -cache:il1 il1:1:32:256:l -cache:il2 dl2 base_heapsort83642006
	sim-cache -cache:dl1 dl1:1:32:256:l -cache:dl2 dl2:1:32:65536:l -cache:il1 il1:1:32:256:l -cache:il2 dl2 base_heapsort83642006
	sim-bpred -bpred bimod -bpred:bimod 512 base_heapsort83642006
	sim-bpred -bpred bimod -bpred:bimod 1024 base_heapsort83642006
	sim-bpred -bpred bimod -bpred:bimod 2048 base_heapsort83642006
	sim-bpred -bpred 2lev -bpred:2lev 1 512 10 1 base_heapsort83642006
	sim-bpred -bpred 2lev -bpred:2lev 1 1024 10 1 base_heapsort83642006
	sim-bpred -bpred 2lev -bpred:2lev 1 2048 10 1 base_heapsort83642006
	sim-bpred -bpred 2lev -bpred:2lev 1 4096 10 1 base_heapsort83642006
	sslittle-na-sstrix-gcc -Wall -O3 -funroll-loops -finline-functions  -DRANDOM_SIZE=8192 -DOFFSET=4 -DSORT=base_heapsort sorts/base_heapsort882889692.c simpleMain.c -o base_heapsort83642006
	sim-cache -cache:dl1 dl1:256:32:1:l -cache:dl2 dl2:131072:32:1:l -cache:il1 il1:256:32:1:l -cache:il2 dl2 base_heapsort83642006
	sim-cache -cache:dl1 dl1:256:32:1:l -cache:dl2 dl2:65536:32:1:l -cache:il1 il1:256:32:1:l -cache:il2 dl2 base_heapsort83642006
	sim-cache -cache:dl1 dl1:1:32:256:l -cache:dl2 dl2:1:32:131072:l -cache:il1 il1:1:32:256:l -cache:il2 dl2 base_heapsort83642006
	sim-cache -cache:dl1 dl1:1:32:256:l -cache:dl2 dl2:1:32:65536:l -cache:il1 il1:1:32:256:l -cache:il2 dl2 base_heapsort83642006
	sim-bpred -bpred bimod -bpred:bimod 512 base_heapsort83642006
	sim-bpred -bpred bimod -bpred:bimod 1024 base_heapsort83642006
	sim-bpred -bpred bimod -bpred:bimod 2048 base_heapsort83642006
	sim-bpred -bpred 2lev -bpred:2lev 1 512 10 1 base_heapsort83642006
	sim-bpred -bpred 2lev -bpred:2lev 1 1024 10 1 base_heapsort83642006
	sim-bpred -bpred 2lev -bpred:2lev 1 2048 10 1 base_heapsort83642006
	sim-bpred -bpred 2lev -bpred:2lev 1 4096 10 1 base_heapsort83642006
	sslittle-na-sstrix-gcc -Wall -O3 -funroll-loops -finline-functions  -DRANDOM_SIZE=16384 -DOFFSET=4 -DSORT=base_heapsort sorts/base_heapsort882889692.c simpleMain.c -o base_heapsort83642006
	sim-cache -cache:dl1 dl1:256:32:1:l -cache:dl2 dl2:131072:32:1:l -cache:il1 il1:256:32:1:l -cache:il2 dl2 base_heapsort83642006
	sim-cache -cache:dl1 dl1:256:32:1:l -cache:dl2 dl2:65536:32:1:l -cache:il1 il1:256:32:1:l -cache:il2 dl2 base_heapsort83642006
	sim-cache -cache:dl1 dl1:1:32:256:l -cache:dl2 dl2:1:32:131072:l -cache:il1 il1:1:32:256:l -cache:il2 dl2 base_heapsort83642006
	sim-cache -cache:dl1 dl1:1:32:256:l -cache:dl2 dl2:1:32:65536:l -cache:il1 il1:1:32:256:l -cache:il2 dl2 base_heapsort83642006
	sim-bpred -bpred bimod -bpred:bimod 512 base_heapsort83642006
	sim-bpred -bpred bimod -bpred:bimod 1024 base_heapsort83642006
	sim-bpred -bpred bimod -bpred:bimod 2048 base_heapsort83642006
	sim-bpred -bpred 2lev -bpred:2lev 1 512 10 1 base_heapsort83642006
	sim-bpred -bpred 2lev -bpred:2lev 1 1024 10 1 base_heapsort83642006
	sim-bpred -bpred 2lev -bpred:2lev 1 2048 10 1 base_heapsort83642006
	sim-bpred -bpred 2lev -bpred:2lev 1 4096 10 1 base_heapsort83642006
	sslittle-na-sstrix-gcc -Wall -O3 -funroll-loops -finline-functions  -DRANDOM_SIZE=32768 -DOFFSET=4 -DSORT=base_heapsort sorts/base_heapsort882889692.c simpleMain.c -o base_heapsort83642006
	sim-cache -cache:dl1 dl1:256:32:1:l -cache:dl2 dl2:131072:32:1:l -cache:il1 il1:256:32:1:l -cache:il2 dl2 base_heapsort83642006
	sim-cache -cache:dl1 dl1:256:32:1:l -cache:dl2 dl2:65536:32:1:l -cache:il1 il1:256:32:1:l -cache:il2 dl2 base_heapsort83642006
	sim-cache -cache:dl1 dl1:1:32:256:l -cache:dl2 dl2:1:32:131072:l -cache:il1 il1:1:32:256:l -cache:il2 dl2 base_heapsort83642006
	sim-cache -cache:dl1 dl1:1:32:256:l -cache:dl2 dl2:1:32:65536:l -cache:il1 il1:1:32:256:l -cache:il2 dl2 base_heapsort83642006
	sim-bpred -bpred bimod -bpred:bimod 512 base_heapsort83642006
	sim-bpred -bpred bimod -bpred:bimod 1024 base_heapsort83642006
	sim-bpred -bpred bimod -bpred:bimod 2048 base_heapsort83642006
	sim-bpred -bpred 2lev -bpred:2lev 1 512 10 1 base_heapsort83642006
	sim-bpred -bpred 2lev -bpred:2lev 1 1024 10 1 base_heapsort83642006
	sim-bpred -bpred 2lev -bpred:2lev 1 2048 10 1 base_heapsort83642006
	sim-bpred -bpred 2lev -bpred:2lev 1 4096 10 1 base_heapsort83642006
	sslittle-na-sstrix-gcc -Wall -O3 -funroll-loops -finline-functions  -DRANDOM_SIZE=65536 -DOFFSET=4 -DSORT=base_heapsort sorts/base_heapsort882889692.c simpleMain.c -o base_heapsort83642006
	sim-cache -cache:dl1 dl1:256:32:1:l -cache:dl2 dl2:131072:32:1:l -cache:il1 il1:256:32:1:l -cache:il2 dl2 base_heapsort83642006
	sim-cache -cache:dl1 dl1:256:32:1:l -cache:dl2 dl2:65536:32:1:l -cache:il1 il1:256:32:1:l -cache:il2 dl2 base_heapsort83642006
	sim-cache -cache:dl1 dl1:1:32:256:l -cache:dl2 dl2:1:32:131072:l -cache:il1 il1:1:32:256:l -cache:il2 dl2 base_heapsort83642006
	sim-cache -cache:dl1 dl1:1:32:256:l -cache:dl2 dl2:1:32:65536:l -cache:il1 il1:1:32:256:l -cache:il2 dl2 base_heapsort83642006
	sim-bpred -bpred bimod -bpred:bimod 512 base_heapsort83642006
	sim-bpred -bpred bimod -bpred:bimod 1024 base_heapsort83642006
	sim-bpred -bpred bimod -bpred:bimod 2048 base_heapsort83642006
	sim-bpred -bpred 2lev -bpred:2lev 1 512 10 1 base_heapsort83642006
	sim-bpred -bpred 2lev -bpred:2lev 1 1024 10 1 base_heapsort83642006
	sim-bpred -bpred 2lev -bpred:2lev 1 2048 10 1 base_heapsort83642006
	sim-bpred -bpred 2lev -bpred:2lev 1 4096 10 1 base_heapsort83642006
	sslittle-na-sstrix-gcc -Wall -O3 -funroll-loops -finline-functions  -DRANDOM_SIZE=131072 -DOFFSET=4 -DSORT=base_heapsort sorts/base_heapsort882889692.c simpleMain.c -o base_heapsort83642006
	sim-cache -cache:dl1 dl1:256:32:1:l -cache:dl2 dl2:131072:32:1:l -cache:il1 il1:256:32:1:l -cache:il2 dl2 base_heapsort83642006
	sim-cache -cache:dl1 dl1:256:32:1:l -cache:dl2 dl2:65536:32:1:l -cache:il1 il1:256:32:1:l -cache:il2 dl2 base_heapsort83642006
	sim-cache -cache:dl1 dl1:1:32:256:l -cache:dl2 dl2:1:32:131072:l -cache:il1 il1:1:32:256:l -cache:il2 dl2 base_heapsort83642006
	sim-cache -cache:dl1 dl1:1:32:256:l -cache:dl2 dl2:1:32:65536:l -cache:il1 il1:1:32:256:l -cache:il2 dl2 base_heapsort83642006
	sim-bpred -bpred bimod -bpred:bimod 512 base_heapsort83642006
	sim-bpred -bpred bimod -bpred:bimod 1024 base_heapsort83642006
	sim-bpred -bpred bimod -bpred:bimod 2048 base_heapsort83642006
	sim-bpred -bpred 2lev -bpred:2lev 1 512 10 1 base_heapsort83642006
	sim-bpred -bpred 2lev -bpred:2lev 1 1024 10 1 base_heapsort83642006
	sim-bpred -bpred 2lev -bpred:2lev 1 2048 10 1 base_heapsort83642006
	sim-bpred -bpred 2lev -bpred:2lev 1 4096 10 1 base_heapsort83642006
	sslittle-na-sstrix-gcc -Wall -O3 -funroll-loops -finline-functions  -DRANDOM_SIZE=262144 -DOFFSET=4 -DSORT=base_heapsort sorts/base_heapsort882889692.c simpleMain.c -o base_heapsort83642006
	sim-cache -cache:dl1 dl1:256:32:1:l -cache:dl2 dl2:131072:32:1:l -cache:il1 il1:256:32:1:l -cache:il2 dl2 base_heapsort83642006
	sim-cache -cache:dl1 dl1:256:32:1:l -cache:dl2 dl2:65536:32:1:l -cache:il1 il1:256:32:1:l -cache:il2 dl2 base_heapsort83642006
	sim-cache -cache:dl1 dl1:1:32:256:l -cache:dl2 dl2:1:32:131072:l -cache:il1 il1:1:32:256:l -cache:il2 dl2 base_heapsort83642006
	sim-cache -cache:dl1 dl1:1:32:256:l -cache:dl2 dl2:1:32:65536:l -cache:il1 il1:1:32:256:l -cache:il2 dl2 base_heapsort83642006
	sim-bpred -bpred bimod -bpred:bimod 512 base_heapsort83642006
	sim-bpred -bpred bimod -bpred:bimod 1024 base_heapsort83642006
	sim-bpred -bpred bimod -bpred:bimod 2048 base_heapsort83642006
	sim-bpred -bpred 2lev -bpred:2lev 1 512 10 1 base_heapsort83642006
	sim-bpred -bpred 2lev -bpred:2lev 1 1024 10 1 base_heapsort83642006
	sim-bpred -bpred 2lev -bpred:2lev 1 2048 10 1 base_heapsort83642006
	sim-bpred -bpred 2lev -bpred:2lev 1 4096 10 1 base_heapsort83642006
	sslittle-na-sstrix-gcc -Wall -O3 -funroll-loops -finline-functions  -DRANDOM_SIZE=524288 -DOFFSET=4 -DSORT=base_heapsort sorts/base_heapsort882889692.c simpleMain.c -o base_heapsort83642006
	sim-cache -cache:dl1 dl1:256:32:1:l -cache:dl2 dl2:131072:32:1:l -cache:il1 il1:256:32:1:l -cache:il2 dl2 base_heapsort83642006
	sim-cache -cache:dl1 dl1:256:32:1:l -cache:dl2 dl2:65536:32:1:l -cache:il1 il1:256:32:1:l -cache:il2 dl2 base_heapsort83642006
	sim-cache -cache:dl1 dl1:1:32:256:l -cache:dl2 dl2:1:32:131072:l -cache:il1 il1:1:32:256:l -cache:il2 dl2 base_heapsort83642006
	sim-cache -cache:dl1 dl1:1:32:256:l -cache:dl2 dl2:1:32:65536:l -cache:il1 il1:1:32:256:l -cache:il2 dl2 base_heapsort83642006
	sim-bpred -bpred bimod -bpred:bimod 512 base_heapsort83642006
	sim-bpred -bpred bimod -bpred:bimod 1024 base_heapsort83642006
	sim-bpred -bpred bimod -bpred:bimod 2048 base_heapsort83642006
	sim-bpred -bpred 2lev -bpred:2lev 1 512 10 1 base_heapsort83642006
	sim-bpred -bpred 2lev -bpred:2lev 1 1024 10 1 base_heapsort83642006
	sim-bpred -bpred 2lev -bpred:2lev 1 2048 10 1 base_heapsort83642006
	sim-bpred -bpred 2lev -bpred:2lev 1 4096 10 1 base_heapsort83642006
	sslittle-na-sstrix-gcc -Wall -O3 -funroll-loops -finline-functions  -DRANDOM_SIZE=1048576 -DOFFSET=4 -DSORT=base_heapsort sorts/base_heapsort882889692.c simpleMain.c -o base_heapsort83642006
	sim-cache -cache:dl1 dl1:256:32:1:l -cache:dl2 dl2:131072:32:1:l -cache:il1 il1:256:32:1:l -cache:il2 dl2 base_heapsort83642006
	sim-cache -cache:dl1 dl1:256:32:1:l -cache:dl2 dl2:65536:32:1:l -cache:il1 il1:256:32:1:l -cache:il2 dl2 base_heapsort83642006
	sim-cache -cache:dl1 dl1:1:32:256:l -cache:dl2 dl2:1:32:131072:l -cache:il1 il1:1:32:256:l -cache:il2 dl2 base_heapsort83642006
	sim-cache -cache:dl1 dl1:1:32:256:l -cache:dl2 dl2:1:32:65536:l -cache:il1 il1:1:32:256:l -cache:il2 dl2 base_heapsort83642006
	sim-bpred -bpred bimod -bpred:bimod 512 base_heapsort83642006
	sim-bpred -bpred bimod -bpred:bimod 1024 base_heapsort83642006
	sim-bpred -bpred bimod -bpred:bimod 2048 base_heapsort83642006
	sim-bpred -bpred 2lev -bpred:2lev 1 512 10 1 base_heapsort83642006
	sim-bpred -bpred 2lev -bpred:2lev 1 1024 10 1 base_heapsort83642006
	sim-bpred -bpred 2lev -bpred:2lev 1 2048 10 1 base_heapsort83642006
	sim-bpred -bpred 2lev -bpred:2lev 1 4096 10 1 base_heapsort83642006
	sslittle-na-sstrix-gcc -Wall -O3 -funroll-loops -finline-functions  -DRANDOM_SIZE=2097152 -DOFFSET=4 -DSORT=base_heapsort sorts/base_heapsort882889692.c simpleMain.c -o base_heapsort83642006
	sim-cache -cache:dl1 dl1:256:32:1:l -cache:dl2 dl2:131072:32:1:l -cache:il1 il1:256:32:1:l -cache:il2 dl2 base_heapsort83642006
	sim-cache -cache:dl1 dl1:256:32:1:l -cache:dl2 dl2:65536:32:1:l -cache:il1 il1:256:32:1:l -cache:il2 dl2 base_heapsort83642006
	sim-cache -cache:dl1 dl1:1:32:256:l -cache:dl2 dl2:1:32:131072:l -cache:il1 il1:1:32:256:l -cache:il2 dl2 base_heapsort83642006
	sim-cache -cache:dl1 dl1:1:32:256:l -cache:dl2 dl2:1:32:65536:l -cache:il1 il1:1:32:256:l -cache:il2 dl2 base_heapsort83642006
	sim-bpred -bpred bimod -bpred:bimod 512 base_heapsort83642006
	sim-bpred -bpred bimod -bpred:bimod 1024 base_heapsort83642006
	sim-bpred -bpred bimod -bpred:bimod 2048 base_heapsort83642006
	sim-bpred -bpred 2lev -bpred:2lev 1 512 10 1 base_heapsort83642006
	sim-bpred -bpred 2lev -bpred:2lev 1 1024 10 1 base_heapsort83642006
	sim-bpred -bpred 2lev -bpred:2lev 1 2048 10 1 base_heapsort83642006
	sim-bpred -bpred 2lev -bpred:2lev 1 4096 10 1 base_heapsort83642006
	sslittle-na-sstrix-gcc -Wall -O3 -funroll-loops -finline-functions  -DRANDOM_SIZE=4194304 -DOFFSET=4 -DSORT=base_heapsort sorts/base_heapsort882889692.c simpleMain.c -o base_heapsort83642006
	sim-cache -cache:dl1 dl1:256:32:1:l -cache:dl2 dl2:131072:32:1:l -cache:il1 il1:256:32:1:l -cache:il2 dl2 base_heapsort83642006
	sim-cache -cache:dl1 dl1:256:32:1:l -cache:dl2 dl2:65536:32:1:l -cache:il1 il1:256:32:1:l -cache:il2 dl2 base_heapsort83642006
	sim-cache -cache:dl1 dl1:1:32:256:l -cache:dl2 dl2:1:32:131072:l -cache:il1 il1:1:32:256:l -cache:il2 dl2 base_heapsort83642006
	sim-cache -cache:dl1 dl1:1:32:256:l -cache:dl2 dl2:1:32:65536:l -cache:il1 il1:1:32:256:l -cache:il2 dl2 base_heapsort83642006
	sim-bpred -bpred bimod -bpred:bimod 512 base_heapsort83642006
	sim-bpred -bpred bimod -bpred:bimod 1024 base_heapsort83642006
	sim-bpred -bpred bimod -bpred:bimod 2048 base_heapsort83642006
	sim-bpred -bpred 2lev -bpred:2lev 1 512 10 1 base_heapsort83642006
	sim-bpred -bpred 2lev -bpred:2lev 1 1024 10 1 base_heapsort83642006
	sim-bpred -bpred 2lev -bpred:2lev 1 2048 10 1 base_heapsort83642006
	sim-bpred -bpred 2lev -bpred:2lev 1 4096 10 1 base_heapsort83642006
