Sat Jul  2 13:57:46 2005
Run as: "./do_simple -c random.org3 -o 3 base_radixsort"
-------------------------------------------------------------------------------------------------
sim-cache                                     4096 |         4096 |         4096 |         4096 |         8192 |         8192 |         8192 |         8192 |        16384 |        16384 |        16384 |        16384 |        32768 |        32768 |        32768 |        32768 |        65536 |        65536 |        65536 |        65536 |       131072 |       131072 |       131072 |       131072 |       262144 |       262144 |       262144 |       262144 |       524288 |       524288 |       524288 |       524288 |      1048576 |      1048576 |      1048576 |      1048576 |      2097152 |      2097152 |      2097152 |      2097152 |      4194304 |      4194304 |      4194304 |      4194304 |
-cache:dl1 dl1:256:32:1:l -cache:dl2 dl2:131072:32:1:l -cache:il1 il1:256:32:1:l -cache:il2 dl2
-cache:dl1 dl1:256:32:1:l -cache:dl2 dl2:65536:32:1:l -cache:il1 il1:256:32:1:l -cache:il2 dl2
-cache:dl1 dl1:1:32:256:l -cache:dl2 dl2:1:32:131072:l -cache:il1 il1:1:32:256:l -cache:il2 dl2
-cache:dl1 dl1:1:32:256:l -cache:dl2 dl2:1:32:65536:l -cache:il1 il1:1:32:256:l -cache:il2 dl2
-------------------------------------------------------------------------------------------------
sim_num_insn                                431108 |       431108 |       431108 |       431108 |       849042 |       849042 |       849042 |       849042 |      1684628 |      1684628 |      1684628 |      1684628 |      3355797 |      3355797 |      3355797 |      3355797 |      6698133 |      6698133 |      6698133 |      6698133 |     13382806 |     13382806 |     13382806 |     13382806 |     26752150 |     26752150 |     26752150 |     26752150 |     53490838 |     53490838 |     53490838 |     53490838 |    106980690 |    106980690 |    106980690 |    106980690 |    213944666 |    213944666 |    213944666 |    213944666 |    427872610 |    427872610 |    427872610 |    427872610 |
sim_num_refs                                171669 |       171669 |       171669 |       171669 |       335553 |       335553 |       335553 |       335553 |       663233 |       663233 |       663233 |       663233 |      1318593 |      1318593 |      1318593 |      1318593 |      2629313 |      2629313 |      2629313 |      2629313 |      5250753 |      5250753 |      5250753 |      5250753 |     10493633 |     10493633 |     10493633 |     10493633 |     20979393 |     20979393 |     20979393 |     20979393 |     41960175 |     41960175 |     41960175 |     41960175 |     83909359 |     83909359 |     83909359 |     83909359 |    167807727 |    167807727 |    167807727 |    167807727 |
sim_elapsed_time                                 1 |            1 |           10 |            5 |            1 |            1 |           15 |            7 |            1 |            1 |           25 |           13 |            1 |            1 |           46 |           23 |            2 |            2 |           85 |           41 |            5 |            4 |          155 |           70 |            9 |            9 |          265 |           94 |           17 |           18 |          356 |          104 |           35 |           35 |          377 |          124 |           70 |           69 |          419 |          166 |          139 |          139 |          506 |          250 |
sim_inst_rate                          431108.0000 |  431108.0000 |   43110.8000 |   86221.6000 |  849042.0000 |  849042.0000 |   56602.8000 |  121291.7143 | 1684628.0000 | 1684628.0000 |   67385.1200 |  129586.7692 | 3355797.0000 | 3355797.0000 |   72952.1087 |  145904.2174 | 3349066.5000 | 3349066.5000 |   78801.5647 |  163369.0976 | 2676561.2000 | 3345701.5000 |   86340.6839 |  191182.9429 | 2972461.1111 | 2972461.1111 |  100951.5094 |  284597.3404 | 3146519.8824 | 2971713.2222 |  150255.1629 |  514334.9808 | 3056591.1429 | 3056591.1429 |  283768.4085 |  862747.5000 | 3056352.3714 | 3100647.3333 |  510607.7947 | 1288823.2892 | 3078220.2158 | 3078220.2158 |  845598.0435 | 1711490.4400 |
il1.accesses                                431108 |       431108 |       431108 |       431108 |       849042 |       849042 |       849042 |       849042 |      1684628 |      1684628 |      1684628 |      1684628 |      3355797 |      3355797 |      3355797 |      3355797 |      6698133 |      6698133 |      6698133 |      6698133 |     13382806 |     13382806 |     13382806 |     13382806 |     26752150 |     26752150 |     26752150 |     26752150 |     53490838 |     53490838 |     53490838 |     53490838 |    106980690 |    106980690 |    106980690 |    106980690 |    213944666 |    213944666 |    213944666 |    213944666 |    427872610 |    427872610 |    427872610 |    427872610 |
il1.hits                                    430687 |       430687 |       430739 |       430739 |       848602 |       848602 |       848683 |       848683 |      1684174 |      1684174 |      1684263 |      1684263 |      3355357 |      3355357 |      3355437 |      3355437 |      6697693 |      6697693 |      6697773 |      6697773 |     13382367 |     13382367 |     13382447 |     13382447 |     26751711 |     26751711 |     26751791 |     26751791 |     53490399 |     53490399 |     53490479 |     53490479 |    106980201 |    106980201 |    106980261 |    106980261 |    213944177 |    213944177 |    213944237 |    213944237 |    427872121 |    427872121 |    427872181 |    427872181 |
il1.misses                                     421 |          421 |          369 |          369 |          440 |          440 |          359 |          359 |          454 |          454 |          365 |          365 |          440 |          440 |          360 |          360 |          440 |          440 |          360 |          360 |          439 |          439 |          359 |          359 |          439 |          439 |          359 |          359 |          439 |          439 |          359 |          359 |          489 |          489 |          429 |          429 |          489 |          489 |          429 |          429 |          489 |          489 |          429 |          429 |
il1.replacements                               219 |          219 |          113 |          113 |          240 |          240 |          103 |          103 |          252 |          252 |          109 |          109 |          238 |          238 |          104 |          104 |          238 |          238 |          104 |          104 |          238 |          238 |          103 |          103 |          238 |          238 |          103 |          103 |          238 |          238 |          103 |          103 |          273 |          273 |          173 |          173 |          273 |          273 |          173 |          173 |          273 |          273 |          173 |          173 |
il1.writebacks                                   0 |            0 |            0 |            0 |            0 |            0 |            0 |            0 |            0 |            0 |            0 |            0 |            0 |            0 |            0 |            0 |            0 |            0 |            0 |            0 |            0 |            0 |            0 |            0 |            0 |            0 |            0 |            0 |            0 |            0 |            0 |            0 |            0 |            0 |            0 |            0 |            0 |            0 |            0 |            0 |            0 |            0 |            0 |            0 |
il1.invalidations                                0 |            0 |            0 |            0 |            0 |            0 |            0 |            0 |            0 |            0 |            0 |            0 |            0 |            0 |            0 |            0 |            0 |            0 |            0 |            0 |            0 |            0 |            0 |            0 |            0 |            0 |            0 |            0 |            0 |            0 |            0 |            0 |            0 |            0 |            0 |            0 |            0 |            0 |            0 |            0 |            0 |            0 |            0 |            0 |
il1.miss_rate                               0.0010 |       0.0010 |       0.0009 |       0.0009 |       0.0005 |       0.0005 |       0.0004 |       0.0004 |       0.0003 |       0.0003 |       0.0002 |       0.0002 |       0.0001 |       0.0001 |       0.0001 |       0.0001 |       0.0001 |       0.0001 |       0.0001 |       0.0001 |       0.0000 |       0.0000 |       0.0000 |       0.0000 |       0.0000 |       0.0000 |       0.0000 |       0.0000 |       0.0000 |       0.0000 |       0.0000 |       0.0000 |       0.0000 |       0.0000 |       0.0000 |       0.0000 |       0.0000 |       0.0000 |       0.0000 |       0.0000 |       0.0000 |       0.0000 |       0.0000 |       0.0000 |
il1.repl_rate                               0.0005 |       0.0005 |       0.0003 |       0.0003 |       0.0003 |       0.0003 |       0.0001 |       0.0001 |       0.0001 |       0.0001 |       0.0001 |       0.0001 |       0.0001 |       0.0001 |       0.0000 |       0.0000 |       0.0000 |       0.0000 |       0.0000 |       0.0000 |       0.0000 |       0.0000 |       0.0000 |       0.0000 |       0.0000 |       0.0000 |       0.0000 |       0.0000 |       0.0000 |       0.0000 |       0.0000 |       0.0000 |       0.0000 |       0.0000 |       0.0000 |       0.0000 |       0.0000 |       0.0000 |       0.0000 |       0.0000 |       0.0000 |       0.0000 |       0.0000 |       0.0000 |
il1.wb_rate                                 0.0000 |       0.0000 |       0.0000 |       0.0000 |       0.0000 |       0.0000 |       0.0000 |       0.0000 |       0.0000 |       0.0000 |       0.0000 |       0.0000 |       0.0000 |       0.0000 |       0.0000 |       0.0000 |       0.0000 |       0.0000 |       0.0000 |       0.0000 |       0.0000 |       0.0000 |       0.0000 |       0.0000 |       0.0000 |       0.0000 |       0.0000 |       0.0000 |       0.0000 |       0.0000 |       0.0000 |       0.0000 |       0.0000 |       0.0000 |       0.0000 |       0.0000 |       0.0000 |       0.0000 |       0.0000 |       0.0000 |       0.0000 |       0.0000 |       0.0000 |       0.0000 |
il1.inv_rate                                0.0000 |       0.0000 |       0.0000 |       0.0000 |       0.0000 |       0.0000 |       0.0000 |       0.0000 |       0.0000 |       0.0000 |       0.0000 |       0.0000 |       0.0000 |       0.0000 |       0.0000 |       0.0000 |       0.0000 |       0.0000 |       0.0000 |       0.0000 |       0.0000 |       0.0000 |       0.0000 |       0.0000 |       0.0000 |       0.0000 |       0.0000 |       0.0000 |       0.0000 |       0.0000 |       0.0000 |       0.0000 |       0.0000 |       0.0000 |       0.0000 |       0.0000 |       0.0000 |       0.0000 |       0.0000 |       0.0000 |       0.0000 |       0.0000 |       0.0000 |       0.0000 |
dl1.accesses                                188135 |       188135 |       188135 |       188135 |       368403 |       368403 |       368403 |       368403 |       728851 |       728851 |       728851 |       728851 |      1449747 |      1449747 |      1449747 |      1449747 |      2891539 |      2891539 |      2891539 |      2891539 |      5775123 |      5775123 |      5775123 |      5775123 |     11542291 |     11542291 |     11542291 |     11542291 |     23076627 |     23076627 |     23076627 |     23076627 |     46154561 |     46154561 |     46154561 |     46154561 |     92298049 |     92298049 |     92298049 |     92298049 |    184585025 |    184585025 |    184585025 |    184585025 |
dl1.hits                                    168073 |       168073 |       171861 |       171861 |       327576 |       327576 |       336583 |       336583 |       646383 |       646383 |       666188 |       666188 |      1285125 |      1285125 |      1325367 |      1325367 |      2557056 |      2557056 |      2643672 |      2643672 |      5079749 |      5079749 |      5279746 |      5279746 |     10091793 |     10091793 |     10552403 |     10552403 |     20062942 |     20062942 |     21098390 |     21098390 |     40317512 |     40317512 |     42197419 |     42197419 |     81059543 |     81059543 |     84385865 |     84385865 |    162874040 |    162874040 |    168759852 |    168759852 |
dl1.misses                                   20062 |        20062 |        16274 |        16274 |        40827 |        40827 |        31820 |        31820 |        82468 |        82468 |        62663 |        62663 |       164622 |       164622 |       124380 |       124380 |       334483 |       334483 |       247867 |       247867 |       695374 |       695374 |       495377 |       495377 |      1450498 |      1450498 |       989888 |       989888 |      3013685 |      3013685 |      1978237 |      1978237 |      5837049 |      5837049 |      3957142 |      3957142 |     11238506 |     11238506 |      7912184 |      7912184 |     21710985 |     21710985 |     15825173 |     15825173 |
dl1.replacements                             19806 |        19806 |        16018 |        16018 |        40571 |        40571 |        31564 |        31564 |        82212 |        82212 |        62407 |        62407 |       164366 |       164366 |       124124 |       124124 |       334227 |       334227 |       247611 |       247611 |       695118 |       695118 |       495121 |       495121 |      1450242 |      1450242 |       989632 |       989632 |      3013429 |      3013429 |      1977981 |      1977981 |      5836793 |      5836793 |      3956886 |      3956886 |     11238250 |     11238250 |      7911928 |      7911928 |     21710729 |     21710729 |     15824917 |     15824917 |
dl1.writebacks                               13749 |        13749 |        10058 |        10058 |        28126 |        28126 |        19413 |        19413 |        57112 |        57112 |        37943 |        37943 |       113845 |       113845 |        75078 |        75078 |       233292 |       233292 |       149408 |       149408 |       492952 |       492952 |       298611 |       298611 |      1045802 |      1045802 |       596513 |       596513 |      2204265 |      2204265 |      1191646 |      1191646 |      4219296 |      4219296 |      2383731 |      2383731 |      8002044 |      8002044 |      4765909 |      4765909 |     15239487 |     15239487 |      9533170 |      9533170 |
dl1.invalidations                                0 |            0 |            0 |            0 |            0 |            0 |            0 |            0 |            0 |            0 |            0 |            0 |            0 |            0 |            0 |            0 |            0 |            0 |            0 |            0 |            0 |            0 |            0 |            0 |            0 |            0 |            0 |            0 |            0 |            0 |            0 |            0 |            0 |            0 |            0 |            0 |            0 |            0 |            0 |            0 |            0 |            0 |            0 |            0 |
dl1.miss_rate                               0.1066 |       0.1066 |       0.0865 |       0.0865 |       0.1108 |       0.1108 |       0.0864 |       0.0864 |       0.1131 |       0.1131 |       0.0860 |       0.0860 |       0.1136 |       0.1136 |       0.0858 |       0.0858 |       0.1157 |       0.1157 |       0.0857 |       0.0857 |       0.1204 |       0.1204 |       0.0858 |       0.0858 |       0.1257 |       0.1257 |       0.0858 |       0.0858 |       0.1306 |       0.1306 |       0.0857 |       0.0857 |       0.1265 |       0.1265 |       0.0857 |       0.0857 |       0.1218 |       0.1218 |       0.0857 |       0.0857 |       0.1176 |       0.1176 |       0.0857 |       0.0857 |
dl1.repl_rate                               0.1053 |       0.1053 |       0.0851 |       0.0851 |       0.1101 |       0.1101 |       0.0857 |       0.0857 |       0.1128 |       0.1128 |       0.0856 |       0.0856 |       0.1134 |       0.1134 |       0.0856 |       0.0856 |       0.1156 |       0.1156 |       0.0856 |       0.0856 |       0.1204 |       0.1204 |       0.0857 |       0.0857 |       0.1256 |       0.1256 |       0.0857 |       0.0857 |       0.1306 |       0.1306 |       0.0857 |       0.0857 |       0.1265 |       0.1265 |       0.0857 |       0.0857 |       0.1218 |       0.1218 |       0.0857 |       0.0857 |       0.1176 |       0.1176 |       0.0857 |       0.0857 |
dl1.wb_rate                                 0.0731 |       0.0731 |       0.0535 |       0.0535 |       0.0763 |       0.0763 |       0.0527 |       0.0527 |       0.0784 |       0.0784 |       0.0521 |       0.0521 |       0.0785 |       0.0785 |       0.0518 |       0.0518 |       0.0807 |       0.0807 |       0.0517 |       0.0517 |       0.0854 |       0.0854 |       0.0517 |       0.0517 |       0.0906 |       0.0906 |       0.0517 |       0.0517 |       0.0955 |       0.0955 |       0.0516 |       0.0516 |       0.0914 |       0.0914 |       0.0516 |       0.0516 |       0.0867 |       0.0867 |       0.0516 |       0.0516 |       0.0826 |       0.0826 |       0.0516 |       0.0516 |
dl1.inv_rate                                0.0000 |       0.0000 |       0.0000 |       0.0000 |       0.0000 |       0.0000 |       0.0000 |       0.0000 |       0.0000 |       0.0000 |       0.0000 |       0.0000 |       0.0000 |       0.0000 |       0.0000 |       0.0000 |       0.0000 |       0.0000 |       0.0000 |       0.0000 |       0.0000 |       0.0000 |       0.0000 |       0.0000 |       0.0000 |       0.0000 |       0.0000 |       0.0000 |       0.0000 |       0.0000 |       0.0000 |       0.0000 |       0.0000 |       0.0000 |       0.0000 |       0.0000 |       0.0000 |       0.0000 |       0.0000 |       0.0000 |       0.0000 |       0.0000 |       0.0000 |       0.0000 |
dl2.accesses                                 34232 |        34232 |        26701 |        26701 |        69393 |        69393 |        51592 |        51592 |       140034 |       140034 |       100971 |       100971 |       278907 |       278907 |       199818 |       199818 |       568215 |       568215 |       397635 |       397635 |      1188765 |      1188765 |       794347 |       794347 |      2496739 |      2496739 |      1586760 |      1586760 |      5218389 |      5218389 |      3170242 |      3170242 |     10056834 |     10056834 |      6341302 |      6341302 |     19241039 |     19241039 |     12678522 |     12678522 |     36950961 |     36950961 |     25358772 |     25358772 |
dl2.hits                                     32386 |        32386 |        24864 |        24864 |        66530 |        66530 |        48741 |        48741 |       135112 |       135112 |        96067 |        96067 |       269898 |       269898 |       190822 |       190822 |       551013 |       551013 |       380447 |       380447 |      1155181 |      1155181 |       760776 |       760776 |      2430387 |      2404776 |      1520421 |      1515931 |      5060952 |      4349249 |      3032916 |      1828354 |      8334039 |      7317262 |      3657996 |      3602875 |     13808681 |     13668525 |      7203698 |      7177770 |     25849952 |     25679579 |     14359596 |     14346843 |
dl2.misses                                    1846 |         1846 |         1837 |         1837 |         2863 |         2863 |         2851 |         2851 |         4922 |         4922 |         4904 |         4904 |         9009 |         9009 |         8996 |         8996 |        17202 |        17202 |        17188 |        17188 |        33584 |        33584 |        33571 |        33571 |        66352 |        91963 |        66339 |        70829 |       157437 |       869140 |       137326 |      1341888 |      1722795 |      2739572 |      2683306 |      2738427 |      5432358 |      5572514 |      5474824 |      5500752 |     11101009 |     11271382 |     10999176 |     11011929 |
dl2.replacements                               206 |          206 |            0 |            0 |          223 |          223 |            0 |            0 |          254 |          254 |            0 |            0 |          245 |          245 |            0 |            0 |          246 |          246 |            0 |            0 |          245 |          245 |            0 |            0 |          245 |        27559 |            0 |         5293 |        27497 |       803604 |         6254 |      1276352 |      1591723 |      2674036 |      2552234 |      2672891 |      5301286 |      5506978 |      5343752 |      5435216 |     10969937 |     11205846 |     10868104 |     10946393 |
dl2.writebacks                                 135 |          135 |            0 |            0 |          141 |          141 |            0 |            0 |          166 |          166 |            0 |            0 |          162 |          162 |            0 |            0 |          162 |          162 |            0 |            0 |          162 |          162 |            0 |            0 |          162 |        17297 |            0 |         4929 |        17273 |       530506 |         5901 |       558569 |      1055542 |      1141350 |      1116376 |      1149248 |      2254209 |      2376275 |      2296881 |      2329853 |      4700948 |      4918268 |      4657865 |      4691021 |
dl2.invalidations                                0 |            0 |            0 |            0 |            0 |            0 |            0 |            0 |            0 |            0 |            0 |            0 |            0 |            0 |            0 |            0 |            0 |            0 |            0 |            0 |            0 |            0 |            0 |            0 |            0 |            0 |            0 |            0 |            0 |            0 |            0 |            0 |            0 |            0 |            0 |            0 |            0 |            0 |            0 |            0 |            0 |            0 |            0 |            0 |
dl2.miss_rate                               0.0539 |       0.0539 |       0.0688 |       0.0688 |       0.0413 |       0.0413 |       0.0553 |       0.0553 |       0.0351 |       0.0351 |       0.0486 |       0.0486 |       0.0323 |       0.0323 |       0.0450 |       0.0450 |       0.0303 |       0.0303 |       0.0432 |       0.0432 |       0.0283 |       0.0283 |       0.0423 |       0.0423 |       0.0266 |       0.0368 |       0.0418 |       0.0446 |       0.0302 |       0.1666 |       0.0433 |       0.4233 |       0.1713 |       0.2724 |       0.4231 |       0.4318 |       0.2823 |       0.2896 |       0.4318 |       0.4339 |       0.3004 |       0.3050 |       0.4337 |       0.4342 |
dl2.repl_rate                               0.0060 |       0.0060 |       0.0000 |       0.0000 |       0.0032 |       0.0032 |       0.0000 |       0.0000 |       0.0018 |       0.0018 |       0.0000 |       0.0000 |       0.0009 |       0.0009 |       0.0000 |       0.0000 |       0.0004 |       0.0004 |       0.0000 |       0.0000 |       0.0002 |       0.0002 |       0.0000 |       0.0000 |       0.0001 |       0.0110 |       0.0000 |       0.0033 |       0.0053 |       0.1540 |       0.0020 |       0.4026 |       0.1583 |       0.2659 |       0.4025 |       0.4215 |       0.2755 |       0.2862 |       0.4215 |       0.4287 |       0.2969 |       0.3033 |       0.4286 |       0.4317 |
dl2.wb_rate                                 0.0039 |       0.0039 |       0.0000 |       0.0000 |       0.0020 |       0.0020 |       0.0000 |       0.0000 |       0.0012 |       0.0012 |       0.0000 |       0.0000 |       0.0006 |       0.0006 |       0.0000 |       0.0000 |       0.0003 |       0.0003 |       0.0000 |       0.0000 |       0.0001 |       0.0001 |       0.0000 |       0.0000 |       0.0001 |       0.0069 |       0.0000 |       0.0031 |       0.0033 |       0.1017 |       0.0019 |       0.1762 |       0.1050 |       0.1135 |       0.1760 |       0.1812 |       0.1172 |       0.1235 |       0.1812 |       0.1838 |       0.1272 |       0.1331 |       0.1837 |       0.1850 |
dl2.inv_rate                                0.0000 |       0.0000 |       0.0000 |       0.0000 |       0.0000 |       0.0000 |       0.0000 |       0.0000 |       0.0000 |       0.0000 |       0.0000 |       0.0000 |       0.0000 |       0.0000 |       0.0000 |       0.0000 |       0.0000 |       0.0000 |       0.0000 |       0.0000 |       0.0000 |       0.0000 |       0.0000 |       0.0000 |       0.0000 |       0.0000 |       0.0000 |       0.0000 |       0.0000 |       0.0000 |       0.0000 |       0.0000 |       0.0000 |       0.0000 |       0.0000 |       0.0000 |       0.0000 |       0.0000 |       0.0000 |       0.0000 |       0.0000 |       0.0000 |       0.0000 |       0.0000 |
itlb.accesses                               431108 |       431108 |       431108 |       431108 |       849042 |       849042 |       849042 |       849042 |      1684628 |      1684628 |      1684628 |      1684628 |      3355797 |      3355797 |      3355797 |      3355797 |      6698133 |      6698133 |      6698133 |      6698133 |     13382806 |     13382806 |     13382806 |     13382806 |     26752150 |     26752150 |     26752150 |     26752150 |     53490838 |     53490838 |     53490838 |     53490838 |    106980690 |    106980690 |    106980690 |    106980690 |    213944666 |    213944666 |    213944666 |    213944666 |    427872610 |    427872610 |    427872610 |    427872610 |
itlb.hits                                   431097 |       431097 |       431097 |       431097 |       849032 |       849032 |       849032 |       849032 |      1684618 |      1684618 |      1684618 |      1684618 |      3355787 |      3355787 |      3355787 |      3355787 |      6698123 |      6698123 |      6698123 |      6698123 |     13382796 |     13382796 |     13382796 |     13382796 |     26752140 |     26752140 |     26752140 |     26752140 |     53490828 |     53490828 |     53490828 |     53490828 |    106980680 |    106980680 |    106980680 |    106980680 |    213944656 |    213944656 |    213944656 |    213944656 |    427872600 |    427872600 |    427872600 |    427872600 |
itlb.misses                                     11 |           11 |           11 |           11 |           10 |           10 |           10 |           10 |           10 |           10 |           10 |           10 |           10 |           10 |           10 |           10 |           10 |           10 |           10 |           10 |           10 |           10 |           10 |           10 |           10 |           10 |           10 |           10 |           10 |           10 |           10 |           10 |           10 |           10 |           10 |           10 |           10 |           10 |           10 |           10 |           10 |           10 |           10 |           10 |
itlb.replacements                                0 |            0 |            0 |            0 |            0 |            0 |            0 |            0 |            0 |            0 |            0 |            0 |            0 |            0 |            0 |            0 |            0 |            0 |            0 |            0 |            0 |            0 |            0 |            0 |            0 |            0 |            0 |            0 |            0 |            0 |            0 |            0 |            0 |            0 |            0 |            0 |            0 |            0 |            0 |            0 |            0 |            0 |            0 |            0 |
itlb.writebacks                                  0 |            0 |            0 |            0 |            0 |            0 |            0 |            0 |            0 |            0 |            0 |            0 |            0 |            0 |            0 |            0 |            0 |            0 |            0 |            0 |            0 |            0 |            0 |            0 |            0 |            0 |            0 |            0 |            0 |            0 |            0 |            0 |            0 |            0 |            0 |            0 |            0 |            0 |            0 |            0 |            0 |            0 |            0 |            0 |
itlb.invalidations                               0 |            0 |            0 |            0 |            0 |            0 |            0 |            0 |            0 |            0 |            0 |            0 |            0 |            0 |            0 |            0 |            0 |            0 |            0 |            0 |            0 |            0 |            0 |            0 |            0 |            0 |            0 |            0 |            0 |            0 |            0 |            0 |            0 |            0 |            0 |            0 |            0 |            0 |            0 |            0 |            0 |            0 |            0 |            0 |
itlb.miss_rate                              0.0000 |       0.0000 |       0.0000 |       0.0000 |       0.0000 |       0.0000 |       0.0000 |       0.0000 |       0.0000 |       0.0000 |       0.0000 |       0.0000 |       0.0000 |       0.0000 |       0.0000 |       0.0000 |       0.0000 |       0.0000 |       0.0000 |       0.0000 |       0.0000 |       0.0000 |       0.0000 |       0.0000 |       0.0000 |       0.0000 |       0.0000 |       0.0000 |       0.0000 |       0.0000 |       0.0000 |       0.0000 |       0.0000 |       0.0000 |       0.0000 |       0.0000 |       0.0000 |       0.0000 |       0.0000 |       0.0000 |       0.0000 |       0.0000 |       0.0000 |       0.0000 |
itlb.repl_rate                              0.0000 |       0.0000 |       0.0000 |       0.0000 |       0.0000 |       0.0000 |       0.0000 |       0.0000 |       0.0000 |       0.0000 |       0.0000 |       0.0000 |       0.0000 |       0.0000 |       0.0000 |       0.0000 |       0.0000 |       0.0000 |       0.0000 |       0.0000 |       0.0000 |       0.0000 |       0.0000 |       0.0000 |       0.0000 |       0.0000 |       0.0000 |       0.0000 |       0.0000 |       0.0000 |       0.0000 |       0.0000 |       0.0000 |       0.0000 |       0.0000 |       0.0000 |       0.0000 |       0.0000 |       0.0000 |       0.0000 |       0.0000 |       0.0000 |       0.0000 |       0.0000 |
itlb.wb_rate                                0.0000 |       0.0000 |       0.0000 |       0.0000 |       0.0000 |       0.0000 |       0.0000 |       0.0000 |       0.0000 |       0.0000 |       0.0000 |       0.0000 |       0.0000 |       0.0000 |       0.0000 |       0.0000 |       0.0000 |       0.0000 |       0.0000 |       0.0000 |       0.0000 |       0.0000 |       0.0000 |       0.0000 |       0.0000 |       0.0000 |       0.0000 |       0.0000 |       0.0000 |       0.0000 |       0.0000 |       0.0000 |       0.0000 |       0.0000 |       0.0000 |       0.0000 |       0.0000 |       0.0000 |       0.0000 |       0.0000 |       0.0000 |       0.0000 |       0.0000 |       0.0000 |
itlb.inv_rate                               0.0000 |       0.0000 |       0.0000 |       0.0000 |       0.0000 |       0.0000 |       0.0000 |       0.0000 |       0.0000 |       0.0000 |       0.0000 |       0.0000 |       0.0000 |       0.0000 |       0.0000 |       0.0000 |       0.0000 |       0.0000 |       0.0000 |       0.0000 |       0.0000 |       0.0000 |       0.0000 |       0.0000 |       0.0000 |       0.0000 |       0.0000 |       0.0000 |       0.0000 |       0.0000 |       0.0000 |       0.0000 |       0.0000 |       0.0000 |       0.0000 |       0.0000 |       0.0000 |       0.0000 |       0.0000 |       0.0000 |       0.0000 |       0.0000 |       0.0000 |       0.0000 |
dtlb.accesses                               188135 |       188135 |       188135 |       188135 |       368403 |       368403 |       368403 |       368403 |       728851 |       728851 |       728851 |       728851 |      1449747 |      1449747 |      1449747 |      1449747 |      2891539 |      2891539 |      2891539 |      2891539 |      5775123 |      5775123 |      5775123 |      5775123 |     11542291 |     11542291 |     11542291 |     11542291 |     23076627 |     23076627 |     23076627 |     23076627 |     46154561 |     46154561 |     46154561 |     46154561 |     92298049 |     92298049 |     92298049 |     92298049 |    184585025 |    184585025 |    184585025 |    184585025 |
dtlb.hits                                   188120 |       188120 |       188120 |       188120 |       368380 |       368380 |       368380 |       368380 |       728812 |       728812 |       728812 |       728812 |      1449676 |      1449676 |      1449676 |      1449676 |      2891374 |      2891374 |      2891374 |      2891374 |      5763662 |      5763662 |      5763662 |      5763662 |     11012927 |     11012927 |     11012927 |     11012927 |     21712851 |     21712851 |     21712851 |     21712851 |     42840693 |     42840693 |     42840693 |     42840693 |     85053585 |     85053585 |     85053585 |     85053585 |    169298399 |    169298399 |    169298399 |    169298399 |
dtlb.misses                                     15 |           15 |           15 |           15 |           23 |           23 |           23 |           23 |           39 |           39 |           39 |           39 |           71 |           71 |           71 |           71 |          165 |          165 |          165 |          165 |        11461 |        11461 |        11461 |        11461 |       529364 |       529364 |       529364 |       529364 |      1363776 |      1363776 |      1363776 |      1363776 |      3313868 |      3313868 |      3313868 |      3313868 |      7244464 |      7244464 |      7244464 |      7244464 |     15286626 |     15286626 |     15286626 |     15286626 |
dtlb.replacements                                0 |            0 |            0 |            0 |            0 |            0 |            0 |            0 |            0 |            0 |            0 |            0 |            0 |            0 |            0 |            0 |           37 |           37 |           37 |           37 |        11333 |        11333 |        11333 |        11333 |       529236 |       529236 |       529236 |       529236 |      1363648 |      1363648 |      1363648 |      1363648 |      3313740 |      3313740 |      3313740 |      3313740 |      7244336 |      7244336 |      7244336 |      7244336 |     15286498 |     15286498 |     15286498 |     15286498 |
dtlb.writebacks                                  0 |            0 |            0 |            0 |            0 |            0 |            0 |            0 |            0 |            0 |            0 |            0 |            0 |            0 |            0 |            0 |           27 |           27 |           27 |           27 |        10198 |        10198 |        10198 |        10198 |       526302 |       526302 |       526302 |       526302 |      1357630 |      1357630 |      1357630 |      1357630 |      3301523 |      3301523 |      3301523 |      3301523 |      7219823 |      7219823 |      7219823 |      7219823 |     15237407 |     15237407 |     15237407 |     15237407 |
dtlb.invalidations                               0 |            0 |            0 |            0 |            0 |            0 |            0 |            0 |            0 |            0 |            0 |            0 |            0 |            0 |            0 |            0 |            0 |            0 |            0 |            0 |            0 |            0 |            0 |            0 |            0 |            0 |            0 |            0 |            0 |            0 |            0 |            0 |            0 |            0 |            0 |            0 |            0 |            0 |            0 |            0 |            0 |            0 |            0 |            0 |
dtlb.miss_rate                              0.0001 |       0.0001 |       0.0001 |       0.0001 |       0.0001 |       0.0001 |       0.0001 |       0.0001 |       0.0001 |       0.0001 |       0.0001 |       0.0001 |       0.0000 |       0.0000 |       0.0000 |       0.0000 |       0.0001 |       0.0001 |       0.0001 |       0.0001 |       0.0020 |       0.0020 |       0.0020 |       0.0020 |       0.0459 |       0.0459 |       0.0459 |       0.0459 |       0.0591 |       0.0591 |       0.0591 |       0.0591 |       0.0718 |       0.0718 |       0.0718 |       0.0718 |       0.0785 |       0.0785 |       0.0785 |       0.0785 |       0.0828 |       0.0828 |       0.0828 |       0.0828 |
dtlb.repl_rate                              0.0000 |       0.0000 |       0.0000 |       0.0000 |       0.0000 |       0.0000 |       0.0000 |       0.0000 |       0.0000 |       0.0000 |       0.0000 |       0.0000 |       0.0000 |       0.0000 |       0.0000 |       0.0000 |       0.0000 |       0.0000 |       0.0000 |       0.0000 |       0.0020 |       0.0020 |       0.0020 |       0.0020 |       0.0459 |       0.0459 |       0.0459 |       0.0459 |       0.0591 |       0.0591 |       0.0591 |       0.0591 |       0.0718 |       0.0718 |       0.0718 |       0.0718 |       0.0785 |       0.0785 |       0.0785 |       0.0785 |       0.0828 |       0.0828 |       0.0828 |       0.0828 |
dtlb.wb_rate                                0.0000 |       0.0000 |       0.0000 |       0.0000 |       0.0000 |       0.0000 |       0.0000 |       0.0000 |       0.0000 |       0.0000 |       0.0000 |       0.0000 |       0.0000 |       0.0000 |       0.0000 |       0.0000 |       0.0000 |       0.0000 |       0.0000 |       0.0000 |       0.0018 |       0.0018 |       0.0018 |       0.0018 |       0.0456 |       0.0456 |       0.0456 |       0.0456 |       0.0588 |       0.0588 |       0.0588 |       0.0588 |       0.0715 |       0.0715 |       0.0715 |       0.0715 |       0.0782 |       0.0782 |       0.0782 |       0.0782 |       0.0825 |       0.0825 |       0.0825 |       0.0825 |
dtlb.inv_rate                               0.0000 |       0.0000 |       0.0000 |       0.0000 |       0.0000 |       0.0000 |       0.0000 |       0.0000 |       0.0000 |       0.0000 |       0.0000 |       0.0000 |       0.0000 |       0.0000 |       0.0000 |       0.0000 |       0.0000 |       0.0000 |       0.0000 |       0.0000 |       0.0000 |       0.0000 |       0.0000 |       0.0000 |       0.0000 |       0.0000 |       0.0000 |       0.0000 |       0.0000 |       0.0000 |       0.0000 |       0.0000 |       0.0000 |       0.0000 |       0.0000 |       0.0000 |       0.0000 |       0.0000 |       0.0000 |       0.0000 |       0.0000 |       0.0000 |       0.0000 |       0.0000 |
ld_text_base                            0x00400000 |   0x00400000 |   0x00400000 |   0x00400000 |   0x00400000 |   0x00400000 |   0x00400000 |   0x00400000 |   0x00400000 |   0x00400000 |   0x00400000 |   0x00400000 |   0x00400000 |   0x00400000 |   0x00400000 |   0x00400000 |   0x00400000 |   0x00400000 |   0x00400000 |   0x00400000 |   0x00400000 |   0x00400000 |   0x00400000 |   0x00400000 |   0x00400000 |   0x00400000 |   0x00400000 |   0x00400000 |   0x00400000 |   0x00400000 |   0x00400000 |   0x00400000 |   0x00400000 |   0x00400000 |   0x00400000 |   0x00400000 |   0x00400000 |   0x00400000 |   0x00400000 |   0x00400000 |   0x00400000 |   0x00400000 |   0x00400000 |   0x00400000 |
ld_text_size                                 73136 |        73136 |        73136 |        73136 |        73168 |        73168 |        73168 |        73168 |        73184 |        73184 |        73184 |        73184 |        73200 |        73200 |        73200 |        73200 |        73200 |        73200 |        73200 |        73200 |        73200 |        73200 |        73200 |        73200 |        73200 |        73200 |        73200 |        73200 |        73200 |        73200 |        73200 |        73200 |        73200 |        73200 |        73200 |        73200 |        73200 |        73200 |        73200 |        73200 |        73200 |        73200 |        73200 |        73200 |
ld_data_base                            0x10000000 |   0x10000000 |   0x10000000 |   0x10000000 |   0x10000000 |   0x10000000 |   0x10000000 |   0x10000000 |   0x10000000 |   0x10000000 |   0x10000000 |   0x10000000 |   0x10000000 |   0x10000000 |   0x10000000 |   0x10000000 |   0x10000000 |   0x10000000 |   0x10000000 |   0x10000000 |   0x10000000 |   0x10000000 |   0x10000000 |   0x10000000 |   0x10000000 |   0x10000000 |   0x10000000 |   0x10000000 |   0x10000000 |   0x10000000 |   0x10000000 |   0x10000000 |   0x10000000 |   0x10000000 |   0x10000000 |   0x10000000 |   0x10000000 |   0x10000000 |   0x10000000 |   0x10000000 |   0x10000000 |   0x10000000 |   0x10000000 |   0x10000000 |
ld_data_size                                  8192 |         8192 |         8192 |         8192 |         8192 |         8192 |         8192 |         8192 |         8192 |         8192 |         8192 |         8192 |         8192 |         8192 |         8192 |         8192 |         8192 |         8192 |         8192 |         8192 |         8192 |         8192 |         8192 |         8192 |         8192 |         8192 |         8192 |         8192 |         8192 |         8192 |         8192 |         8192 |         8192 |         8192 |         8192 |         8192 |         8192 |         8192 |         8192 |         8192 |         8192 |         8192 |         8192 |         8192 |
ld_stack_base                           0x7fffc000 |   0x7fffc000 |   0x7fffc000 |   0x7fffc000 |   0x7fffc000 |   0x7fffc000 |   0x7fffc000 |   0x7fffc000 |   0x7fffc000 |   0x7fffc000 |   0x7fffc000 |   0x7fffc000 |   0x7fffc000 |   0x7fffc000 |   0x7fffc000 |   0x7fffc000 |   0x7fffc000 |   0x7fffc000 |   0x7fffc000 |   0x7fffc000 |   0x7fffc000 |   0x7fffc000 |   0x7fffc000 |   0x7fffc000 |   0x7fffc000 |   0x7fffc000 |   0x7fffc000 |   0x7fffc000 |   0x7fffc000 |   0x7fffc000 |   0x7fffc000 |   0x7fffc000 |   0x7fffc000 |   0x7fffc000 |   0x7fffc000 |   0x7fffc000 |   0x7fffc000 |   0x7fffc000 |   0x7fffc000 |   0x7fffc000 |   0x7fffc000 |   0x7fffc000 |   0x7fffc000 |   0x7fffc000 |
ld_stack_size                                16384 |        16384 |        16384 |        16384 |        16384 |        16384 |        16384 |        16384 |        16384 |        16384 |        16384 |        16384 |        16384 |        16384 |        16384 |        16384 |        16384 |        16384 |        16384 |        16384 |        16384 |        16384 |        16384 |        16384 |        16384 |        16384 |        16384 |        16384 |        16384 |        16384 |        16384 |        16384 |        16384 |        16384 |        16384 |        16384 |        16384 |        16384 |        16384 |        16384 |        16384 |        16384 |        16384 |        16384 |
ld_prog_entry                           0x00400140 |   0x00400140 |   0x00400140 |   0x00400140 |   0x00400140 |   0x00400140 |   0x00400140 |   0x00400140 |   0x00400140 |   0x00400140 |   0x00400140 |   0x00400140 |   0x00400140 |   0x00400140 |   0x00400140 |   0x00400140 |   0x00400140 |   0x00400140 |   0x00400140 |   0x00400140 |   0x00400140 |   0x00400140 |   0x00400140 |   0x00400140 |   0x00400140 |   0x00400140 |   0x00400140 |   0x00400140 |   0x00400140 |   0x00400140 |   0x00400140 |   0x00400140 |   0x00400140 |   0x00400140 |   0x00400140 |   0x00400140 |   0x00400140 |   0x00400140 |   0x00400140 |   0x00400140 |   0x00400140 |   0x00400140 |   0x00400140 |   0x00400140 |
ld_environ_base                         0x7fff8000 |   0x7fff8000 |   0x7fff8000 |   0x7fff8000 |   0x7fff8000 |   0x7fff8000 |   0x7fff8000 |   0x7fff8000 |   0x7fff8000 |   0x7fff8000 |   0x7fff8000 |   0x7fff8000 |   0x7fff8000 |   0x7fff8000 |   0x7fff8000 |   0x7fff8000 |   0x7fff8000 |   0x7fff8000 |   0x7fff8000 |   0x7fff8000 |   0x7fff8000 |   0x7fff8000 |   0x7fff8000 |   0x7fff8000 |   0x7fff8000 |   0x7fff8000 |   0x7fff8000 |   0x7fff8000 |   0x7fff8000 |   0x7fff8000 |   0x7fff8000 |   0x7fff8000 |   0x7fff8000 |   0x7fff8000 |   0x7fff8000 |   0x7fff8000 |   0x7fff8000 |   0x7fff8000 |   0x7fff8000 |   0x7fff8000 |   0x7fff8000 |   0x7fff8000 |   0x7fff8000 |   0x7fff8000 |
ld_target_big_endian                             0 |            0 |            0 |            0 |            0 |            0 |            0 |            0 |            0 |            0 |            0 |            0 |            0 |            0 |            0 |            0 |            0 |            0 |            0 |            0 |            0 |            0 |            0 |            0 |            0 |            0 |            0 |            0 |            0 |            0 |            0 |            0 |            0 |            0 |            0 |            0 |            0 |            0 |            0 |            0 |            0 |            0 |            0 |            0 |
mem.page_count                                  33 |           33 |           33 |           33 |           41 |           41 |           41 |           41 |           57 |           57 |           57 |           57 |           89 |           89 |           89 |           89 |          153 |          153 |          153 |          153 |          281 |          281 |          281 |          281 |          537 |          537 |          537 |          537 |         1049 |         1049 |         1049 |         1049 |         2079 |         2079 |         2079 |         2079 |         4133 |         4133 |         4133 |         4133 |         8241 |         8241 |         8241 |         8241 |
mem.page_mem                                  132k |         132k |         132k |         132k |         164k |         164k |         164k |         164k |         228k |         228k |         228k |         228k |         356k |         356k |         356k |         356k |         612k |         612k |         612k |         612k |        1124k |        1124k |        1124k |        1124k |        2148k |        2148k |        2148k |        2148k |        4196k |        4196k |        4196k |        4196k |        8316k |        8316k |        8316k |        8316k |       16532k |       16532k |       16532k |       16532k |       32964k |       32964k |       32964k |       32964k |
mem.ptab_misses                                 33 |           33 |           33 |           33 |           41 |           41 |           41 |           41 |           57 |           57 |           57 |           57 |           89 |           89 |           89 |           89 |          153 |          153 |          153 |          153 |          281 |          281 |          281 |          281 |          537 |          537 |          537 |          537 |         1049 |         1049 |         1049 |         1049 |        20514 |        20514 |        20514 |        20514 |        20524 |        20524 |        20524 |        20524 |        24632 |        24632 |        24632 |        24632 |
mem.ptab_accesses                          2554108 |      2554108 |      2554108 |      2554108 |      4586572 |      4586572 |      4586572 |      4586572 |      8649908 |      8649908 |      8649908 |      8649908 |     16776472 |     16776472 |     16776472 |     16776472 |     33029400 |     33029400 |     33029400 |     33029400 |     65535260 |     65535260 |     65535260 |     65535260 |    130546972 |    130546972 |    130546972 |    130546972 |    260570396 |    260570396 |    260570396 |    260570396 |    520685672 |    520685672 |    520685672 |    520685672 |   1040828552 |   1040828552 |   1040828552 |   1040828552 |   2081114280 |   2081114280 |   2081114280 |   2081114280 |
mem.ptab_miss_rate                          0.0000 |       0.0000 |       0.0000 |       0.0000 |       0.0000 |       0.0000 |       0.0000 |       0.0000 |       0.0000 |       0.0000 |       0.0000 |       0.0000 |       0.0000 |       0.0000 |       0.0000 |       0.0000 |       0.0000 |       0.0000 |       0.0000 |       0.0000 |       0.0000 |       0.0000 |       0.0000 |       0.0000 |       0.0000 |       0.0000 |       0.0000 |       0.0000 |       0.0000 |       0.0000 |       0.0000 |       0.0000 |       0.0000 |       0.0000 |       0.0000 |       0.0000 |       0.0000 |       0.0000 |       0.0000 |       0.0000 |       0.0000 |       0.0000 |       0.0000 |       0.0000 |
-------------------------------------------------------------------------------------------------
sim-bpred                                     4096 |         4096 |         4096 |         4096 |         4096 |         4096 |         4096 |         8192 |         8192 |         8192 |         8192 |         8192 |         8192 |         8192 |        16384 |        16384 |        16384 |        16384 |        16384 |        16384 |        16384 |        32768 |        32768 |        32768 |        32768 |        32768 |        32768 |        32768 |        65536 |        65536 |        65536 |        65536 |        65536 |        65536 |        65536 |       131072 |       131072 |       131072 |       131072 |       131072 |       131072 |       131072 |       262144 |       262144 |       262144 |       262144 |       262144 |       262144 |       262144 |       524288 |       524288 |       524288 |       524288 |       524288 |       524288 |       524288 |      1048576 |      1048576 |      1048576 |      1048576 |      1048576 |      1048576 |      1048576 |      2097152 |      2097152 |      2097152 |      2097152 |      2097152 |      2097152 |      2097152 |      4194304 |      4194304 |      4194304 |      4194304 |      4194304 |      4194304 |      4194304 |
-bpred bimod -bpred:bimod 512
-bpred bimod -bpred:bimod 1024
-bpred bimod -bpred:bimod 2048
-bpred 2lev -bpred:2lev 1 512 10 1
-bpred 2lev -bpred:2lev 1 1024 10 1
-bpred 2lev -bpred:2lev 1 2048 10 1
-bpred 2lev -bpred:2lev 1 4096 10 1
-------------------------------------------------------------------------------------------------
sim_num_insn                                431108 |       431108 |       431108 |       431108 |       431108 |       431108 |       431108 |       849042 |       849042 |       849042 |       849042 |       849042 |       849042 |       849042 |      1684628 |      1684628 |      1684628 |      1684628 |      1684628 |      1684628 |      1684628 |      3355797 |      3355797 |      3355797 |      3355797 |      3355797 |      3355797 |      3355797 |      6698133 |      6698133 |      6698133 |      6698133 |      6698133 |      6698133 |      6698133 |     13382806 |     13382806 |     13382806 |     13382806 |     13382806 |     13382806 |     13382806 |     26752150 |     26752150 |     26752150 |     26752150 |     26752150 |     26752150 |     26752150 |     53490838 |     53490838 |     53490838 |     53490838 |     53490838 |     53490838 |     53490838 |    106980690 |    106980690 |    106980690 |    106980690 |    106980690 |    106980690 |    106980690 |    213944666 |    213944666 |    213944666 |    213944666 |    213944666 |    213944666 |    213944666 |    427872610 |    427872610 |    427872610 |    427872610 |    427872610 |    427872610 |    427872610 |
sim_num_refs                                171669 |       171669 |       171669 |       171669 |       171669 |       171669 |       171669 |       335553 |       335553 |       335553 |       335553 |       335553 |       335553 |       335553 |       663233 |       663233 |       663233 |       663233 |       663233 |       663233 |       663233 |      1318593 |      1318593 |      1318593 |      1318593 |      1318593 |      1318593 |      1318593 |      2629313 |      2629313 |      2629313 |      2629313 |      2629313 |      2629313 |      2629313 |      5250753 |      5250753 |      5250753 |      5250753 |      5250753 |      5250753 |      5250753 |     10493633 |     10493633 |     10493633 |     10493633 |     10493633 |     10493633 |     10493633 |     20979393 |     20979393 |     20979393 |     20979393 |     20979393 |     20979393 |     20979393 |     41960175 |     41960175 |     41960175 |     41960175 |     41960175 |     41960175 |     41960175 |     83909359 |     83909359 |     83909359 |     83909359 |     83909359 |     83909359 |     83909359 |    167807727 |    167807727 |    167807727 |    167807727 |    167807727 |    167807727 |    167807727 |
sim_elapsed_time                                 1 |            1 |            1 |            1 |            1 |            1 |            1 |            1 |            1 |            1 |            1 |            1 |            1 |            1 |            1 |            1 |            1 |            1 |            1 |            1 |            1 |            1 |            1 |            1 |            1 |            1 |            1 |            1 |            1 |            1 |            1 |            1 |            1 |            1 |            1 |            1 |            2 |            1 |            1 |            2 |            1 |            1 |            3 |            2 |            3 |            3 |            2 |            3 |            3 |            6 |            5 |            5 |            6 |            5 |            6 |            5 |           11 |           11 |           10 |           11 |           10 |           11 |           11 |           21 |           21 |           21 |           21 |           22 |           21 |           22 |           43 |           42 |           42 |           43 |           43 |           43 |           43 |
sim_inst_rate                          431108.0000 |  431108.0000 |  431108.0000 |  431108.0000 |  431108.0000 |  431108.0000 |  431108.0000 |  849042.0000 |  849042.0000 |  849042.0000 |  849042.0000 |  849042.0000 |  849042.0000 |  849042.0000 | 1684628.0000 | 1684628.0000 | 1684628.0000 | 1684628.0000 | 1684628.0000 | 1684628.0000 | 1684628.0000 | 3355797.0000 | 3355797.0000 | 3355797.0000 | 3355797.0000 | 3355797.0000 | 3355797.0000 | 3355797.0000 | 6698133.0000 | 6698133.0000 | 6698133.0000 | 6698133.0000 | 6698133.0000 | 6698133.0000 | 6698133.0000 |13382806.0000 | 6691403.0000 |13382806.0000 |13382806.0000 | 6691403.0000 |13382806.0000 |13382806.0000 | 8917383.3333 |13376075.0000 | 8917383.3333 | 8917383.3333 |13376075.0000 | 8917383.3333 | 8917383.3333 | 8915139.6667 |10698167.6000 |10698167.6000 | 8915139.6667 |10698167.6000 | 8915139.6667 |10698167.6000 | 9725517.2727 | 9725517.2727 |10698069.0000 | 9725517.2727 |10698069.0000 | 9725517.2727 | 9725517.2727 |10187841.2381 |10187841.2381 |10187841.2381 |10187841.2381 | 9724757.5455 |10187841.2381 | 9724757.5455 | 9950525.8140 |10187443.0952 |10187443.0952 | 9950525.8140 | 9950525.8140 | 9950525.8140 | 9950525.8140 |
sim_num_branches                             13414 |        13414 |        13414 |        13414 |        13414 |        13414 |        13414 |        25742 |        25742 |        25742 |        25742 |        25742 |        25742 |        25742 |        50318 |        50318 |        50318 |        50318 |        50318 |        50318 |        50318 |        99470 |        99470 |        99470 |        99470 |        99470 |        99470 |        99470 |       197774 |       197774 |       197774 |       197774 |       197774 |       197774 |       197774 |       394382 |       394382 |       394382 |       394382 |       394382 |       394382 |       394382 |       787598 |       787598 |       787598 |       787598 |       787598 |       787598 |       787598 |      1574030 |      1574030 |      1574030 |      1574030 |      1574030 |      1574030 |      1574030 |      3147687 |      3147687 |      3147687 |      3147687 |      3147687 |      3147687 |      3147687 |      6294186 |      6294186 |      6294186 |      6294186 |      6294186 |      6294186 |      6294186 |     12587181 |     12587181 |     12587181 |     12587181 |     12587181 |     12587181 |     12587181 |
sim_IPB                                    32.1387 |      32.1387 |      32.1387 |      32.1387 |      32.1387 |      32.1387 |      32.1387 |      32.9828 |      32.9828 |      32.9828 |      32.9828 |      32.9828 |      32.9828 |      32.9828 |      33.4796 |      33.4796 |      33.4796 |      33.4796 |      33.4796 |      33.4796 |      33.4796 |      33.7368 |      33.7368 |      33.7368 |      33.7368 |      33.7368 |      33.7368 |      33.7368 |      33.8676 |      33.8676 |      33.8676 |      33.8676 |      33.8676 |      33.8676 |      33.8676 |      33.9336 |      33.9336 |      33.9336 |      33.9336 |      33.9336 |      33.9336 |      33.9336 |      33.9668 |      33.9668 |      33.9668 |      33.9668 |      33.9668 |      33.9668 |      33.9668 |      33.9834 |      33.9834 |      33.9834 |      33.9834 |      33.9834 |      33.9834 |      33.9834 |      33.9871 |      33.9871 |      33.9871 |      33.9871 |      33.9871 |      33.9871 |      33.9871 |      33.9908 |      33.9908 |      33.9908 |      33.9908 |      33.9908 |      33.9908 |      33.9908 |      33.9927 |      33.9927 |      33.9927 |      33.9927 |      33.9927 |      33.9927 |      33.9927 |
bpred_bimod.lookups                          13414 |        13414 |        13414 |xxxxxxxxxxxxx |xxxxxxxxxxxxx |xxxxxxxxxxxxx |xxxxxxxxxxxxx |        25742 |        25742 |        25742 |xxxxxxxxxxxxx |xxxxxxxxxxxxx |xxxxxxxxxxxxx |xxxxxxxxxxxxx |        50318 |        50318 |        50318 |xxxxxxxxxxxxx |xxxxxxxxxxxxx |xxxxxxxxxxxxx |xxxxxxxxxxxxx |        99470 |        99470 |        99470 |xxxxxxxxxxxxx |xxxxxxxxxxxxx |xxxxxxxxxxxxx |xxxxxxxxxxxxx |       197774 |       197774 |       197774 |xxxxxxxxxxxxx |xxxxxxxxxxxxx |xxxxxxxxxxxxx |xxxxxxxxxxxxx |       394382 |       394382 |       394382 |xxxxxxxxxxxxx |xxxxxxxxxxxxx |xxxxxxxxxxxxx |xxxxxxxxxxxxx |       787598 |       787598 |       787598 |xxxxxxxxxxxxx |xxxxxxxxxxxxx |xxxxxxxxxxxxx |xxxxxxxxxxxxx |      1574030 |      1574030 |      1574030 |xxxxxxxxxxxxx |xxxxxxxxxxxxx |xxxxxxxxxxxxx |xxxxxxxxxxxxx |      3147687 |      3147687 |      3147687 |xxxxxxxxxxxxx |xxxxxxxxxxxxx |xxxxxxxxxxxxx |xxxxxxxxxxxxx |      6294186 |      6294186 |      6294186 |xxxxxxxxxxxxx |xxxxxxxxxxxxx |xxxxxxxxxxxxx |xxxxxxxxxxxxx |     12587181 |     12587181 |     12587181 |
bpred_bimod.updates                          13414 |        13414 |        13414 |xxxxxxxxxxxxx |xxxxxxxxxxxxx |xxxxxxxxxxxxx |xxxxxxxxxxxxx |        25742 |        25742 |        25742 |xxxxxxxxxxxxx |xxxxxxxxxxxxx |xxxxxxxxxxxxx |xxxxxxxxxxxxx |        50318 |        50318 |        50318 |xxxxxxxxxxxxx |xxxxxxxxxxxxx |xxxxxxxxxxxxx |xxxxxxxxxxxxx |        99470 |        99470 |        99470 |xxxxxxxxxxxxx |xxxxxxxxxxxxx |xxxxxxxxxxxxx |xxxxxxxxxxxxx |       197774 |       197774 |       197774 |xxxxxxxxxxxxx |xxxxxxxxxxxxx |xxxxxxxxxxxxx |xxxxxxxxxxxxx |       394382 |       394382 |       394382 |xxxxxxxxxxxxx |xxxxxxxxxxxxx |xxxxxxxxxxxxx |xxxxxxxxxxxxx |       787598 |       787598 |       787598 |xxxxxxxxxxxxx |xxxxxxxxxxxxx |xxxxxxxxxxxxx |xxxxxxxxxxxxx |      1574030 |      1574030 |      1574030 |xxxxxxxxxxxxx |xxxxxxxxxxxxx |xxxxxxxxxxxxx |xxxxxxxxxxxxx |      3147687 |      3147687 |      3147687 |xxxxxxxxxxxxx |xxxxxxxxxxxxx |xxxxxxxxxxxxx |xxxxxxxxxxxxx |      6294186 |      6294186 |      6294186 |xxxxxxxxxxxxx |xxxxxxxxxxxxx |xxxxxxxxxxxxx |xxxxxxxxxxxxx |     12587181 |     12587181 |     12587181 |
bpred_bimod.addr_hits                        13207 |        13208 |        13209 |xxxxxxxxxxxxx |xxxxxxxxxxxxx |xxxxxxxxxxxxx |xxxxxxxxxxxxx |        25527 |        25529 |        25530 |xxxxxxxxxxxxx |xxxxxxxxxxxxx |xxxxxxxxxxxxx |xxxxxxxxxxxxx |        50099 |        50103 |        50107 |xxxxxxxxxxxxx |xxxxxxxxxxxxx |xxxxxxxxxxxxx |xxxxxxxxxxxxx |        99256 |        99258 |        99259 |xxxxxxxxxxxxx |xxxxxxxxxxxxx |xxxxxxxxxxxxx |xxxxxxxxxxxxx |       197560 |       197562 |       197563 |xxxxxxxxxxxxx |xxxxxxxxxxxxx |xxxxxxxxxxxxx |xxxxxxxxxxxxx |       394168 |       394170 |       394171 |xxxxxxxxxxxxx |xxxxxxxxxxxxx |xxxxxxxxxxxxx |xxxxxxxxxxxxx |       787384 |       787386 |       787387 |xxxxxxxxxxxxx |xxxxxxxxxxxxx |xxxxxxxxxxxxx |xxxxxxxxxxxxx |      1573816 |      1573818 |      1573819 |xxxxxxxxxxxxx |xxxxxxxxxxxxx |xxxxxxxxxxxxx |xxxxxxxxxxxxx |      3147450 |      3147451 |      3147451 |xxxxxxxxxxxxx |xxxxxxxxxxxxx |xxxxxxxxxxxxx |xxxxxxxxxxxxx |      6293949 |      6293950 |      6293950 |xxxxxxxxxxxxx |xxxxxxxxxxxxx |xxxxxxxxxxxxx |xxxxxxxxxxxxx |     12586944 |     12586945 |     12586945 |
bpred_bimod.dir_hits                         13302 |        13305 |        13306 |xxxxxxxxxxxxx |xxxxxxxxxxxxx |xxxxxxxxxxxxx |xxxxxxxxxxxxx |        25626 |        25630 |        25631 |xxxxxxxxxxxxx |xxxxxxxxxxxxx |xxxxxxxxxxxxx |xxxxxxxxxxxxx |        50199 |        50204 |        50208 |xxxxxxxxxxxxx |xxxxxxxxxxxxx |xxxxxxxxxxxxx |xxxxxxxxxxxxx |        99355 |        99358 |        99359 |xxxxxxxxxxxxx |xxxxxxxxxxxxx |xxxxxxxxxxxxx |xxxxxxxxxxxxx |       197659 |       197662 |       197663 |xxxxxxxxxxxxx |xxxxxxxxxxxxx |xxxxxxxxxxxxx |xxxxxxxxxxxxx |       394268 |       394271 |       394272 |xxxxxxxxxxxxx |xxxxxxxxxxxxx |xxxxxxxxxxxxx |xxxxxxxxxxxxx |       787484 |       787487 |       787488 |xxxxxxxxxxxxx |xxxxxxxxxxxxx |xxxxxxxxxxxxx |xxxxxxxxxxxxx |      1573916 |      1573919 |      1573920 |xxxxxxxxxxxxx |xxxxxxxxxxxxx |xxxxxxxxxxxxx |xxxxxxxxxxxxx |      3147561 |      3147562 |      3147563 |xxxxxxxxxxxxx |xxxxxxxxxxxxx |xxxxxxxxxxxxx |xxxxxxxxxxxxx |      6294060 |      6294061 |      6294062 |xxxxxxxxxxxxx |xxxxxxxxxxxxx |xxxxxxxxxxxxx |xxxxxxxxxxxxx |     12587055 |     12587056 |     12587057 |
bpred_bimod.misses                             112 |          109 |          108 |xxxxxxxxxxxxx |xxxxxxxxxxxxx |xxxxxxxxxxxxx |xxxxxxxxxxxxx |          116 |          112 |          111 |xxxxxxxxxxxxx |xxxxxxxxxxxxx |xxxxxxxxxxxxx |xxxxxxxxxxxxx |          119 |          114 |          110 |xxxxxxxxxxxxx |xxxxxxxxxxxxx |xxxxxxxxxxxxx |xxxxxxxxxxxxx |          115 |          112 |          111 |xxxxxxxxxxxxx |xxxxxxxxxxxxx |xxxxxxxxxxxxx |xxxxxxxxxxxxx |          115 |          112 |          111 |xxxxxxxxxxxxx |xxxxxxxxxxxxx |xxxxxxxxxxxxx |xxxxxxxxxxxxx |          114 |          111 |          110 |xxxxxxxxxxxxx |xxxxxxxxxxxxx |xxxxxxxxxxxxx |xxxxxxxxxxxxx |          114 |          111 |          110 |xxxxxxxxxxxxx |xxxxxxxxxxxxx |xxxxxxxxxxxxx |xxxxxxxxxxxxx |          114 |          111 |          110 |xxxxxxxxxxxxx |xxxxxxxxxxxxx |xxxxxxxxxxxxx |xxxxxxxxxxxxx |          126 |          125 |          124 |xxxxxxxxxxxxx |xxxxxxxxxxxxx |xxxxxxxxxxxxx |xxxxxxxxxxxxx |          126 |          125 |          124 |xxxxxxxxxxxxx |xxxxxxxxxxxxx |xxxxxxxxxxxxx |xxxxxxxxxxxxx |          126 |          125 |          124 |
bpred_bimod.jr_hits                             61 |           61 |           61 |xxxxxxxxxxxxx |xxxxxxxxxxxxx |xxxxxxxxxxxxx |xxxxxxxxxxxxx |           69 |           69 |           69 |xxxxxxxxxxxxx |xxxxxxxxxxxxx |xxxxxxxxxxxxx |xxxxxxxxxxxxx |           69 |           69 |           69 |xxxxxxxxxxxxx |xxxxxxxxxxxxx |xxxxxxxxxxxxx |xxxxxxxxxxxxx |           69 |           69 |           69 |xxxxxxxxxxxxx |xxxxxxxxxxxxx |xxxxxxxxxxxxx |xxxxxxxxxxxxx |           69 |           69 |           69 |xxxxxxxxxxxxx |xxxxxxxxxxxxx |xxxxxxxxxxxxx |xxxxxxxxxxxxx |           69 |           69 |           69 |xxxxxxxxxxxxx |xxxxxxxxxxxxx |xxxxxxxxxxxxx |xxxxxxxxxxxxx |           69 |           69 |           69 |xxxxxxxxxxxxx |xxxxxxxxxxxxx |xxxxxxxxxxxxx |xxxxxxxxxxxxx |           69 |           69 |           69 |xxxxxxxxxxxxx |xxxxxxxxxxxxx |xxxxxxxxxxxxx |xxxxxxxxxxxxx |           72 |           72 |           72 |xxxxxxxxxxxxx |xxxxxxxxxxxxx |xxxxxxxxxxxxx |xxxxxxxxxxxxx |           72 |           72 |           72 |xxxxxxxxxxxxx |xxxxxxxxxxxxx |xxxxxxxxxxxxx |xxxxxxxxxxxxx |           72 |           72 |           72 |
bpred_bimod.jr_seen                             61 |           61 |           61 |xxxxxxxxxxxxx |xxxxxxxxxxxxx |xxxxxxxxxxxxx |xxxxxxxxxxxxx |           70 |           70 |           70 |xxxxxxxxxxxxx |xxxxxxxxxxxxx |xxxxxxxxxxxxx |xxxxxxxxxxxxx |           70 |           70 |           70 |xxxxxxxxxxxxx |xxxxxxxxxxxxx |xxxxxxxxxxxxx |xxxxxxxxxxxxx |           70 |           70 |           70 |xxxxxxxxxxxxx |xxxxxxxxxxxxx |xxxxxxxxxxxxx |xxxxxxxxxxxxx |           70 |           70 |           70 |xxxxxxxxxxxxx |xxxxxxxxxxxxx |xxxxxxxxxxxxx |xxxxxxxxxxxxx |           70 |           70 |           70 |xxxxxxxxxxxxx |xxxxxxxxxxxxx |xxxxxxxxxxxxx |xxxxxxxxxxxxx |           70 |           70 |           70 |xxxxxxxxxxxxx |xxxxxxxxxxxxx |xxxxxxxxxxxxx |xxxxxxxxxxxxx |           70 |           70 |           70 |xxxxxxxxxxxxx |xxxxxxxxxxxxx |xxxxxxxxxxxxx |xxxxxxxxxxxxx |           73 |           73 |           73 |xxxxxxxxxxxxx |xxxxxxxxxxxxx |xxxxxxxxxxxxx |xxxxxxxxxxxxx |           73 |           73 |           73 |xxxxxxxxxxxxx |xxxxxxxxxxxxx |xxxxxxxxxxxxx |xxxxxxxxxxxxx |           73 |           73 |           73 |
bpred_bimod.jr_non_ras_hits.PP                   0 |            0 |            0 |xxxxxxxxxxxxx |xxxxxxxxxxxxx |xxxxxxxxxxxxx |xxxxxxxxxxxxx |            0 |            0 |            0 |xxxxxxxxxxxxx |xxxxxxxxxxxxx |xxxxxxxxxxxxx |xxxxxxxxxxxxx |            0 |            0 |            0 |xxxxxxxxxxxxx |xxxxxxxxxxxxx |xxxxxxxxxxxxx |xxxxxxxxxxxxx |            0 |            0 |            0 |xxxxxxxxxxxxx |xxxxxxxxxxxxx |xxxxxxxxxxxxx |xxxxxxxxxxxxx |            0 |            0 |            0 |xxxxxxxxxxxxx |xxxxxxxxxxxxx |xxxxxxxxxxxxx |xxxxxxxxxxxxx |            0 |            0 |            0 |xxxxxxxxxxxxx |xxxxxxxxxxxxx |xxxxxxxxxxxxx |xxxxxxxxxxxxx |            0 |            0 |            0 |xxxxxxxxxxxxx |xxxxxxxxxxxxx |xxxxxxxxxxxxx |xxxxxxxxxxxxx |            0 |            0 |            0 |xxxxxxxxxxxxx |xxxxxxxxxxxxx |xxxxxxxxxxxxx |xxxxxxxxxxxxx |            0 |            0 |            0 |xxxxxxxxxxxxx |xxxxxxxxxxxxx |xxxxxxxxxxxxx |xxxxxxxxxxxxx |            0 |            0 |            0 |xxxxxxxxxxxxx |xxxxxxxxxxxxx |xxxxxxxxxxxxx |xxxxxxxxxxxxx |            0 |            0 |            0 |
bpred_bimod.jr_non_ras_seen.PP                   0 |            0 |            0 |xxxxxxxxxxxxx |xxxxxxxxxxxxx |xxxxxxxxxxxxx |xxxxxxxxxxxxx |            0 |            0 |            0 |xxxxxxxxxxxxx |xxxxxxxxxxxxx |xxxxxxxxxxxxx |xxxxxxxxxxxxx |            0 |            0 |            0 |xxxxxxxxxxxxx |xxxxxxxxxxxxx |xxxxxxxxxxxxx |xxxxxxxxxxxxx |            0 |            0 |            0 |xxxxxxxxxxxxx |xxxxxxxxxxxxx |xxxxxxxxxxxxx |xxxxxxxxxxxxx |            0 |            0 |            0 |xxxxxxxxxxxxx |xxxxxxxxxxxxx |xxxxxxxxxxxxx |xxxxxxxxxxxxx |            0 |            0 |            0 |xxxxxxxxxxxxx |xxxxxxxxxxxxx |xxxxxxxxxxxxx |xxxxxxxxxxxxx |            0 |            0 |            0 |xxxxxxxxxxxxx |xxxxxxxxxxxxx |xxxxxxxxxxxxx |xxxxxxxxxxxxx |            0 |            0 |            0 |xxxxxxxxxxxxx |xxxxxxxxxxxxx |xxxxxxxxxxxxx |xxxxxxxxxxxxx |            1 |            1 |            1 |xxxxxxxxxxxxx |xxxxxxxxxxxxx |xxxxxxxxxxxxx |xxxxxxxxxxxxx |            1 |            1 |            1 |xxxxxxxxxxxxx |xxxxxxxxxxxxx |xxxxxxxxxxxxx |xxxxxxxxxxxxx |            1 |            1 |            1 |
bpred_bimod.bpred_addr_rate                 0.9846 |       0.9846 |       0.9847 |xxxxxxxxxxxxx |xxxxxxxxxxxxx |xxxxxxxxxxxxx |xxxxxxxxxxxxx |       0.9916 |       0.9917 |       0.9918 |xxxxxxxxxxxxx |xxxxxxxxxxxxx |xxxxxxxxxxxxx |xxxxxxxxxxxxx |       0.9956 |       0.9957 |       0.9958 |xxxxxxxxxxxxx |xxxxxxxxxxxxx |xxxxxxxxxxxxx |xxxxxxxxxxxxx |       0.9978 |       0.9979 |       0.9979 |xxxxxxxxxxxxx |xxxxxxxxxxxxx |xxxxxxxxxxxxx |xxxxxxxxxxxxx |       0.9989 |       0.9989 |       0.9989 |xxxxxxxxxxxxx |xxxxxxxxxxxxx |xxxxxxxxxxxxx |xxxxxxxxxxxxx |       0.9995 |       0.9995 |       0.9995 |xxxxxxxxxxxxx |xxxxxxxxxxxxx |xxxxxxxxxxxxx |xxxxxxxxxxxxx |       0.9997 |       0.9997 |       0.9997 |xxxxxxxxxxxxx |xxxxxxxxxxxxx |xxxxxxxxxxxxx |xxxxxxxxxxxxx |       0.9999 |       0.9999 |       0.9999 |xxxxxxxxxxxxx |xxxxxxxxxxxxx |xxxxxxxxxxxxx |xxxxxxxxxxxxx |       0.9999 |       0.9999 |       0.9999 |xxxxxxxxxxxxx |xxxxxxxxxxxxx |xxxxxxxxxxxxx |xxxxxxxxxxxxx |       1.0000 |       1.0000 |       1.0000 |xxxxxxxxxxxxx |xxxxxxxxxxxxx |xxxxxxxxxxxxx |xxxxxxxxxxxxx |       1.0000 |       1.0000 |       1.0000 |
bpred_bimod.bpred_dir_rate                  0.9917 |       0.9919 |       0.9919 |xxxxxxxxxxxxx |xxxxxxxxxxxxx |xxxxxxxxxxxxx |xxxxxxxxxxxxx |       0.9955 |       0.9956 |       0.9957 |xxxxxxxxxxxxx |xxxxxxxxxxxxx |xxxxxxxxxxxxx |xxxxxxxxxxxxx |       0.9976 |       0.9977 |       0.9978 |xxxxxxxxxxxxx |xxxxxxxxxxxxx |xxxxxxxxxxxxx |xxxxxxxxxxxxx |       0.9988 |       0.9989 |       0.9989 |xxxxxxxxxxxxx |xxxxxxxxxxxxx |xxxxxxxxxxxxx |xxxxxxxxxxxxx |       0.9994 |       0.9994 |       0.9994 |xxxxxxxxxxxxx |xxxxxxxxxxxxx |xxxxxxxxxxxxx |xxxxxxxxxxxxx |       0.9997 |       0.9997 |       0.9997 |xxxxxxxxxxxxx |xxxxxxxxxxxxx |xxxxxxxxxxxxx |xxxxxxxxxxxxx |       0.9999 |       0.9999 |       0.9999 |xxxxxxxxxxxxx |xxxxxxxxxxxxx |xxxxxxxxxxxxx |xxxxxxxxxxxxx |       0.9999 |       0.9999 |       0.9999 |xxxxxxxxxxxxx |xxxxxxxxxxxxx |xxxxxxxxxxxxx |xxxxxxxxxxxxx |       1.0000 |       1.0000 |       1.0000 |xxxxxxxxxxxxx |xxxxxxxxxxxxx |xxxxxxxxxxxxx |xxxxxxxxxxxxx |       1.0000 |       1.0000 |       1.0000 |xxxxxxxxxxxxx |xxxxxxxxxxxxx |xxxxxxxxxxxxx |xxxxxxxxxxxxx |       1.0000 |       1.0000 |       1.0000 |
bpred_bimod.bpred_jr_rate                   1.0000 |       1.0000 |       1.0000 |xxxxxxxxxxxxx |xxxxxxxxxxxxx |xxxxxxxxxxxxx |xxxxxxxxxxxxx |       0.9857 |       0.9857 |       0.9857 |xxxxxxxxxxxxx |xxxxxxxxxxxxx |xxxxxxxxxxxxx |xxxxxxxxxxxxx |       0.9857 |       0.9857 |       0.9857 |xxxxxxxxxxxxx |xxxxxxxxxxxxx |xxxxxxxxxxxxx |xxxxxxxxxxxxx |       0.9857 |       0.9857 |       0.9857 |xxxxxxxxxxxxx |xxxxxxxxxxxxx |xxxxxxxxxxxxx |xxxxxxxxxxxxx |       0.9857 |       0.9857 |       0.9857 |xxxxxxxxxxxxx |xxxxxxxxxxxxx |xxxxxxxxxxxxx |xxxxxxxxxxxxx |       0.9857 |       0.9857 |       0.9857 |xxxxxxxxxxxxx |xxxxxxxxxxxxx |xxxxxxxxxxxxx |xxxxxxxxxxxxx |       0.9857 |       0.9857 |       0.9857 |xxxxxxxxxxxxx |xxxxxxxxxxxxx |xxxxxxxxxxxxx |xxxxxxxxxxxxx |       0.9857 |       0.9857 |       0.9857 |xxxxxxxxxxxxx |xxxxxxxxxxxxx |xxxxxxxxxxxxx |xxxxxxxxxxxxx |       0.9863 |       0.9863 |       0.9863 |xxxxxxxxxxxxx |xxxxxxxxxxxxx |xxxxxxxxxxxxx |xxxxxxxxxxxxx |       0.9863 |       0.9863 |       0.9863 |xxxxxxxxxxxxx |xxxxxxxxxxxxx |xxxxxxxxxxxxx |xxxxxxxxxxxxx |       0.9863 |       0.9863 |       0.9863 |
bpred_bimod.bpred_jr_non_ras_rate.PP       <error: |      <error: |      <error: |xxxxxxxxxxxxx |xxxxxxxxxxxxx |xxxxxxxxxxxxx |xxxxxxxxxxxxx |      <error: |      <error: |      <error: |xxxxxxxxxxxxx |xxxxxxxxxxxxx |xxxxxxxxxxxxx |xxxxxxxxxxxxx |      <error: |      <error: |      <error: |xxxxxxxxxxxxx |xxxxxxxxxxxxx |xxxxxxxxxxxxx |xxxxxxxxxxxxx |      <error: |      <error: |      <error: |xxxxxxxxxxxxx |xxxxxxxxxxxxx |xxxxxxxxxxxxx |xxxxxxxxxxxxx |      <error: |      <error: |      <error: |xxxxxxxxxxxxx |xxxxxxxxxxxxx |xxxxxxxxxxxxx |xxxxxxxxxxxxx |      <error: |      <error: |      <error: |xxxxxxxxxxxxx |xxxxxxxxxxxxx |xxxxxxxxxxxxx |xxxxxxxxxxxxx |      <error: |      <error: |      <error: |xxxxxxxxxxxxx |xxxxxxxxxxxxx |xxxxxxxxxxxxx |xxxxxxxxxxxxx |      <error: |      <error: |      <error: |xxxxxxxxxxxxx |xxxxxxxxxxxxx |xxxxxxxxxxxxx |xxxxxxxxxxxxx |       0.0000 |       0.0000 |       0.0000 |xxxxxxxxxxxxx |xxxxxxxxxxxxx |xxxxxxxxxxxxx |xxxxxxxxxxxxx |       0.0000 |       0.0000 |       0.0000 |xxxxxxxxxxxxx |xxxxxxxxxxxxx |xxxxxxxxxxxxx |xxxxxxxxxxxxx |       0.0000 |       0.0000 |       0.0000 |
bpred_bimod.retstack_pushes                     63 |           63 |           63 |xxxxxxxxxxxxx |xxxxxxxxxxxxx |xxxxxxxxxxxxx |xxxxxxxxxxxxx |           72 |           72 |           72 |xxxxxxxxxxxxx |xxxxxxxxxxxxx |xxxxxxxxxxxxx |xxxxxxxxxxxxx |           72 |           72 |           72 |xxxxxxxxxxxxx |xxxxxxxxxxxxx |xxxxxxxxxxxxx |xxxxxxxxxxxxx |           72 |           72 |           72 |xxxxxxxxxxxxx |xxxxxxxxxxxxx |xxxxxxxxxxxxx |xxxxxxxxxxxxx |           72 |           72 |           72 |xxxxxxxxxxxxx |xxxxxxxxxxxxx |xxxxxxxxxxxxx |xxxxxxxxxxxxx |           72 |           72 |           72 |xxxxxxxxxxxxx |xxxxxxxxxxxxx |xxxxxxxxxxxxx |xxxxxxxxxxxxx |           72 |           72 |           72 |xxxxxxxxxxxxx |xxxxxxxxxxxxx |xxxxxxxxxxxxx |xxxxxxxxxxxxx |           72 |           72 |           72 |xxxxxxxxxxxxx |xxxxxxxxxxxxx |xxxxxxxxxxxxx |xxxxxxxxxxxxx |           74 |           74 |           74 |xxxxxxxxxxxxx |xxxxxxxxxxxxx |xxxxxxxxxxxxx |xxxxxxxxxxxxx |           74 |           74 |           74 |xxxxxxxxxxxxx |xxxxxxxxxxxxx |xxxxxxxxxxxxx |xxxxxxxxxxxxx |           74 |           74 |           74 |
bpred_bimod.retstack_pops                       61 |           61 |           61 |xxxxxxxxxxxxx |xxxxxxxxxxxxx |xxxxxxxxxxxxx |xxxxxxxxxxxxx |           70 |           70 |           70 |xxxxxxxxxxxxx |xxxxxxxxxxxxx |xxxxxxxxxxxxx |xxxxxxxxxxxxx |           70 |           70 |           70 |xxxxxxxxxxxxx |xxxxxxxxxxxxx |xxxxxxxxxxxxx |xxxxxxxxxxxxx |           70 |           70 |           70 |xxxxxxxxxxxxx |xxxxxxxxxxxxx |xxxxxxxxxxxxx |xxxxxxxxxxxxx |           70 |           70 |           70 |xxxxxxxxxxxxx |xxxxxxxxxxxxx |xxxxxxxxxxxxx |xxxxxxxxxxxxx |           70 |           70 |           70 |xxxxxxxxxxxxx |xxxxxxxxxxxxx |xxxxxxxxxxxxx |xxxxxxxxxxxxx |           70 |           70 |           70 |xxxxxxxxxxxxx |xxxxxxxxxxxxx |xxxxxxxxxxxxx |xxxxxxxxxxxxx |           70 |           70 |           70 |xxxxxxxxxxxxx |xxxxxxxxxxxxx |xxxxxxxxxxxxx |xxxxxxxxxxxxx |           72 |           72 |           72 |xxxxxxxxxxxxx |xxxxxxxxxxxxx |xxxxxxxxxxxxx |xxxxxxxxxxxxx |           72 |           72 |           72 |xxxxxxxxxxxxx |xxxxxxxxxxxxx |xxxxxxxxxxxxx |xxxxxxxxxxxxx |           72 |           72 |           72 |
bpred_bimod.used_ras.PP                         61 |           61 |           61 |xxxxxxxxxxxxx |xxxxxxxxxxxxx |xxxxxxxxxxxxx |xxxxxxxxxxxxx |           70 |           70 |           70 |xxxxxxxxxxxxx |xxxxxxxxxxxxx |xxxxxxxxxxxxx |xxxxxxxxxxxxx |           70 |           70 |           70 |xxxxxxxxxxxxx |xxxxxxxxxxxxx |xxxxxxxxxxxxx |xxxxxxxxxxxxx |           70 |           70 |           70 |xxxxxxxxxxxxx |xxxxxxxxxxxxx |xxxxxxxxxxxxx |xxxxxxxxxxxxx |           70 |           70 |           70 |xxxxxxxxxxxxx |xxxxxxxxxxxxx |xxxxxxxxxxxxx |xxxxxxxxxxxxx |           70 |           70 |           70 |xxxxxxxxxxxxx |xxxxxxxxxxxxx |xxxxxxxxxxxxx |xxxxxxxxxxxxx |           70 |           70 |           70 |xxxxxxxxxxxxx |xxxxxxxxxxxxx |xxxxxxxxxxxxx |xxxxxxxxxxxxx |           70 |           70 |           70 |xxxxxxxxxxxxx |xxxxxxxxxxxxx |xxxxxxxxxxxxx |xxxxxxxxxxxxx |           72 |           72 |           72 |xxxxxxxxxxxxx |xxxxxxxxxxxxx |xxxxxxxxxxxxx |xxxxxxxxxxxxx |           72 |           72 |           72 |xxxxxxxxxxxxx |xxxxxxxxxxxxx |xxxxxxxxxxxxx |xxxxxxxxxxxxx |           72 |           72 |           72 |
bpred_bimod.ras_hits.PP                         61 |           61 |           61 |xxxxxxxxxxxxx |xxxxxxxxxxxxx |xxxxxxxxxxxxx |xxxxxxxxxxxxx |           69 |           69 |           69 |xxxxxxxxxxxxx |xxxxxxxxxxxxx |xxxxxxxxxxxxx |xxxxxxxxxxxxx |           69 |           69 |           69 |xxxxxxxxxxxxx |xxxxxxxxxxxxx |xxxxxxxxxxxxx |xxxxxxxxxxxxx |           69 |           69 |           69 |xxxxxxxxxxxxx |xxxxxxxxxxxxx |xxxxxxxxxxxxx |xxxxxxxxxxxxx |           69 |           69 |           69 |xxxxxxxxxxxxx |xxxxxxxxxxxxx |xxxxxxxxxxxxx |xxxxxxxxxxxxx |           69 |           69 |           69 |xxxxxxxxxxxxx |xxxxxxxxxxxxx |xxxxxxxxxxxxx |xxxxxxxxxxxxx |           69 |           69 |           69 |xxxxxxxxxxxxx |xxxxxxxxxxxxx |xxxxxxxxxxxxx |xxxxxxxxxxxxx |           69 |           69 |           69 |xxxxxxxxxxxxx |xxxxxxxxxxxxx |xxxxxxxxxxxxx |xxxxxxxxxxxxx |           72 |           72 |           72 |xxxxxxxxxxxxx |xxxxxxxxxxxxx |xxxxxxxxxxxxx |xxxxxxxxxxxxx |           72 |           72 |           72 |xxxxxxxxxxxxx |xxxxxxxxxxxxx |xxxxxxxxxxxxx |xxxxxxxxxxxxx |           72 |           72 |           72 |
bpred_bimod.ras_rate.PP                     1.0000 |       1.0000 |       1.0000 |xxxxxxxxxxxxx |xxxxxxxxxxxxx |xxxxxxxxxxxxx |xxxxxxxxxxxxx |       0.9857 |       0.9857 |       0.9857 |xxxxxxxxxxxxx |xxxxxxxxxxxxx |xxxxxxxxxxxxx |xxxxxxxxxxxxx |       0.9857 |       0.9857 |       0.9857 |xxxxxxxxxxxxx |xxxxxxxxxxxxx |xxxxxxxxxxxxx |xxxxxxxxxxxxx |       0.9857 |       0.9857 |       0.9857 |xxxxxxxxxxxxx |xxxxxxxxxxxxx |xxxxxxxxxxxxx |xxxxxxxxxxxxx |       0.9857 |       0.9857 |       0.9857 |xxxxxxxxxxxxx |xxxxxxxxxxxxx |xxxxxxxxxxxxx |xxxxxxxxxxxxx |       0.9857 |       0.9857 |       0.9857 |xxxxxxxxxxxxx |xxxxxxxxxxxxx |xxxxxxxxxxxxx |xxxxxxxxxxxxx |       0.9857 |       0.9857 |       0.9857 |xxxxxxxxxxxxx |xxxxxxxxxxxxx |xxxxxxxxxxxxx |xxxxxxxxxxxxx |       0.9857 |       0.9857 |       0.9857 |xxxxxxxxxxxxx |xxxxxxxxxxxxx |xxxxxxxxxxxxx |xxxxxxxxxxxxx |       1.0000 |       1.0000 |       1.0000 |xxxxxxxxxxxxx |xxxxxxxxxxxxx |xxxxxxxxxxxxx |xxxxxxxxxxxxx |       1.0000 |       1.0000 |       1.0000 |xxxxxxxxxxxxx |xxxxxxxxxxxxx |xxxxxxxxxxxxx |xxxxxxxxxxxxx |       1.0000 |       1.0000 |       1.0000 |
bpred_2lev.lookups                   xxxxxxxxxxxxx |xxxxxxxxxxxxx |xxxxxxxxxxxxx |        13414 |        13414 |        13414 |        13414 |xxxxxxxxxxxxx |xxxxxxxxxxxxx |xxxxxxxxxxxxx |        25742 |        25742 |        25742 |        25742 |xxxxxxxxxxxxx |xxxxxxxxxxxxx |xxxxxxxxxxxxx |        50318 |        50318 |        50318 |        50318 |xxxxxxxxxxxxx |xxxxxxxxxxxxx |xxxxxxxxxxxxx |        99470 |        99470 |        99470 |        99470 |xxxxxxxxxxxxx |xxxxxxxxxxxxx |xxxxxxxxxxxxx |       197774 |       197774 |       197774 |       197774 |xxxxxxxxxxxxx |xxxxxxxxxxxxx |xxxxxxxxxxxxx |       394382 |       394382 |       394382 |       394382 |xxxxxxxxxxxxx |xxxxxxxxxxxxx |xxxxxxxxxxxxx |       787598 |       787598 |       787598 |       787598 |xxxxxxxxxxxxx |xxxxxxxxxxxxx |xxxxxxxxxxxxx |      1574030 |      1574030 |      1574030 |      1574030 |xxxxxxxxxxxxx |xxxxxxxxxxxxx |xxxxxxxxxxxxx |      3147687 |      3147687 |      3147687 |      3147687 |xxxxxxxxxxxxx |xxxxxxxxxxxxx |xxxxxxxxxxxxx |      6294186 |      6294186 |      6294186 |      6294186 |xxxxxxxxxxxxx |xxxxxxxxxxxxx |xxxxxxxxxxxxx |     12587181 |     12587181 |     12587181 |     12587181 |
[...]
bpred_2lev.retstack_pushes           xxxxxxxxxxxxx |xxxxxxxxxxxxx |xxxxxxxxxxxxx |           63 |           63 |           63 |           63 |xxxxxxxxxxxxx |xxxxxxxxxxxxx |xxxxxxxxxxxxx |           72 |           72 |           72 |           72 |xxxxxxxxxxxxx |xxxxxxxxxxxxx |xxxxxxxxxxxxx |           72 |           72 |           72 |           72 |xxxxxxxxxxxxx |xxxxxxxxxxxxx |xxxxxxxxxxxxx |           72 |           72 |           72 |           72 |xxxxxxxxxxxxx |xxxxxxxxxxxxx |xxxxxxxxxxxxx |           72 |           72 |           72 |           72 |xxxxxxxxxxxxx |xxxxxxxxxxxxx |xxxxxxxxxxxxx |           72 |           72 |           72 |           72 |xxxxxxxxxxxxx |xxxxxxxxxxxxx |xxxxxxxxxxxxx |           72 |           72 |           72 |           72 |xxxxxxxxxxxxx |xxxxxxxxxxxxx |xxxxxxxxxxxxx |           72 |           72 |           72 |           72 |xxxxxxxxxxxxx |xxxxxxxxxxxxx |xxxxxxxxxxxxx |           74 |           74 |           74 |           74 |xxxxxxxxxxxxx |xxxxxxxxxxxxx |xxxxxxxxxxxxx |           74 |           74 |           74 |           74 |xxxxxxxxxxxxx |xxxxxxxxxxxxx |xxxxxxxxxxxxx |           74 |           74 |           74 |           74 |
bpred_2lev.retstack_pops             xxxxxxxxxxxxx |xxxxxxxxxxxxx |xxxxxxxxxxxxx |           61 |           61 |           61 |           61 |xxxxxxxxxxxxx |xxxxxxxxxxxxx |xxxxxxxxxxxxx |           70 |           70 |           70 |           70 |xxxxxxxxxxxxx |xxxxxxxxxxxxx |xxxxxxxxxxxxx |           70 |           70 |           70 |           70 |xxxxxxxxxxxxx |xxxxxxxxxxxxx |xxxxxxxxxxxxx |           70 |           70 |           70 |           70 |xxxxxxxxxxxxx |xxxxxxxxxxxxx |xxxxxxxxxxxxx |           70 |           70 |           70 |           70 |xxxxxxxxxxxxx |xxxxxxxxxxxxx |xxxxxxxxxxxxx |           70 |           70 |           70 |           70 |xxxxxxxxxxxxx |xxxxxxxxxxxxx |xxxxxxxxxxxxx |           70 |           70 |           70 |           70 |xxxxxxxxxxxxx |xxxxxxxxxxxxx |xxxxxxxxxxxxx |           70 |           70 |           70 |           70 |xxxxxxxxxxxxx |xxxxxxxxxxxxx |xxxxxxxxxxxxx |           72 |           72 |           72 |           72 |xxxxxxxxxxxxx |xxxxxxxxxxxxx |xxxxxxxxxxxxx |           72 |           72 |           72 |           72 |xxxxxxxxxxxxx |xxxxxxxxxxxxx |xxxxxxxxxxxxx |           72 |           72 |           72 |           72 |
bpred_2lev.used_ras.PP               xxxxxxxxxxxxx |xxxxxxxxxxxxx |xxxxxxxxxxxxx |           61 |           61 |           61 |           61 |xxxxxxxxxxxxx |xxxxxxxxxxxxx |xxxxxxxxxxxxx |           70 |           70 |           70 |           70 |xxxxxxxxxxxxx |xxxxxxxxxxxxx |xxxxxxxxxxxxx |           70 |           70 |           70 |           70 |xxxxxxxxxxxxx |xxxxxxxxxxxxx |xxxxxxxxxxxxx |           70 |           70 |           70 |           70 |xxxxxxxxxxxxx |xxxxxxxxxxxxx |xxxxxxxxxxxxx |           70 |           70 |           70 |           70 |xxxxxxxxxxxxx |xxxxxxxxxxxxx |xxxxxxxxxxxxx |           70 |           70 |           70 |           70 |xxxxxxxxxxxxx |xxxxxxxxxxxxx |xxxxxxxxxxxxx |           70 |           70 |           70 |           70 |xxxxxxxxxxxxx |xxxxxxxxxxxxx |xxxxxxxxxxxxx |           70 |           70 |           70 |           70 |xxxxxxxxxxxxx |xxxxxxxxxxxxx |xxxxxxxxxxxxx |           72 |           72 |           72 |           72 |xxxxxxxxxxxxx |xxxxxxxxxxxxx |xxxxxxxxxxxxx |           72 |           72 |           72 |           72 |xxxxxxxxxxxxx |xxxxxxxxxxxxx |xxxxxxxxxxxxx |           72 |           72 |           72 |           72 |
bpred_2lev.ras_hits.PP               xxxxxxxxxxxxx |xxxxxxxxxxxxx |xxxxxxxxxxxxx |           61 |           61 |           61 |           61 |xxxxxxxxxxxxx |xxxxxxxxxxxxx |xxxxxxxxxxxxx |           69 |           69 |           69 |           69 |xxxxxxxxxxxxx |xxxxxxxxxxxxx |xxxxxxxxxxxxx |           69 |           69 |           69 |           69 |xxxxxxxxxxxxx |xxxxxxxxxxxxx |xxxxxxxxxxxxx |           69 |           69 |           69 |           69 |xxxxxxxxxxxxx |xxxxxxxxxxxxx |xxxxxxxxxxxxx |           69 |           69 |           69 |           69 |xxxxxxxxxxxxx |xxxxxxxxxxxxx |xxxxxxxxxxxxx |           69 |           69 |           69 |           69 |xxxxxxxxxxxxx |xxxxxxxxxxxxx |xxxxxxxxxxxxx |           69 |           69 |           69 |           69 |xxxxxxxxxxxxx |xxxxxxxxxxxxx |xxxxxxxxxxxxx |           69 |           69 |           69 |           69 |xxxxxxxxxxxxx |xxxxxxxxxxxxx |xxxxxxxxxxxxx |           72 |           72 |           72 |           72 |xxxxxxxxxxxxx |xxxxxxxxxxxxx |xxxxxxxxxxxxx |           72 |           72 |           72 |           72 |xxxxxxxxxxxxx |xxxxxxxxxxxxx |xxxxxxxxxxxxx |           72 |           72 |           72 |           72 |
bpred_2lev.ras_rate.PP               xxxxxxxxxxxxx |xxxxxxxxxxxxx |xxxxxxxxxxxxx |       1.0000 |       1.0000 |       1.0000 |       1.0000 |xxxxxxxxxxxxx |xxxxxxxxxxxxx |xxxxxxxxxxxxx |       0.9857 |       0.9857 |       0.9857 |       0.9857 |xxxxxxxxxxxxx |xxxxxxxxxxxxx |xxxxxxxxxxxxx |       0.9857 |       0.9857 |       0.9857 |       0.9857 |xxxxxxxxxxxxx |xxxxxxxxxxxxx |xxxxxxxxxxxxx |       0.9857 |       0.9857 |       0.9857 |       0.9857 |xxxxxxxxxxxxx |xxxxxxxxxxxxx |xxxxxxxxxxxxx |       0.9857 |       0.9857 |       0.9857 |       0.9857 |xxxxxxxxxxxxx |xxxxxxxxxxxxx |xxxxxxxxxxxxx |       0.9857 |       0.9857 |       0.9857 |       0.9857 |xxxxxxxxxxxxx |xxxxxxxxxxxxx |xxxxxxxxxxxxx |       0.9857 |       0.9857 |       0.9857 |       0.9857 |xxxxxxxxxxxxx |xxxxxxxxxxxxx |xxxxxxxxxxxxx |       0.9857 |       0.9857 |       0.9857 |       0.9857 |xxxxxxxxxxxxx |xxxxxxxxxxxxx |xxxxxxxxxxxxx |       1.0000 |       1.0000 |       1.0000 |       1.0000 |xxxxxxxxxxxxx |xxxxxxxxxxxxx |xxxxxxxxxxxxx |       1.0000 |       1.0000 |       1.0000 |       1.0000 |xxxxxxxxxxxxx |xxxxxxxxxxxxx |xxxxxxxxxxxxx |       1.0000 |       1.0000 |       1.0000 |       1.0000 |

Command list: 
	sslittle-na-sstrix-gcc -Wall -O3 -funroll-loops -finline-functions  -DRANDOM_SIZE=4096 -DOFFSET=3 -DSORT=base_radixsort sorts/base_radixsort672498875.c simpleMain.c -o base_radixsort1242260160
	sim-cache -cache:dl1 dl1:256:32:1:l -cache:dl2 dl2:131072:32:1:l -cache:il1 il1:256:32:1:l -cache:il2 dl2 base_radixsort1242260160
	sim-cache -cache:dl1 dl1:256:32:1:l -cache:dl2 dl2:65536:32:1:l -cache:il1 il1:256:32:1:l -cache:il2 dl2 base_radixsort1242260160
	sim-cache -cache:dl1 dl1:1:32:256:l -cache:dl2 dl2:1:32:131072:l -cache:il1 il1:1:32:256:l -cache:il2 dl2 base_radixsort1242260160
	sim-cache -cache:dl1 dl1:1:32:256:l -cache:dl2 dl2:1:32:65536:l -cache:il1 il1:1:32:256:l -cache:il2 dl2 base_radixsort1242260160
	sim-bpred -bpred bimod -bpred:bimod 512 base_radixsort1242260160
	sim-bpred -bpred bimod -bpred:bimod 1024 base_radixsort1242260160
	sim-bpred -bpred bimod -bpred:bimod 2048 base_radixsort1242260160
	sim-bpred -bpred 2lev -bpred:2lev 1 512 10 1 base_radixsort1242260160
	sim-bpred -bpred 2lev -bpred:2lev 1 1024 10 1 base_radixsort1242260160
	sim-bpred -bpred 2lev -bpred:2lev 1 2048 10 1 base_radixsort1242260160
	sim-bpred -bpred 2lev -bpred:2lev 1 4096 10 1 base_radixsort1242260160
	sslittle-na-sstrix-gcc -Wall -O3 -funroll-loops -finline-functions  -DRANDOM_SIZE=8192 -DOFFSET=3 -DSORT=base_radixsort sorts/base_radixsort672498875.c simpleMain.c -o base_radixsort1242260160
	sim-cache -cache:dl1 dl1:256:32:1:l -cache:dl2 dl2:131072:32:1:l -cache:il1 il1:256:32:1:l -cache:il2 dl2 base_radixsort1242260160
	sim-cache -cache:dl1 dl1:256:32:1:l -cache:dl2 dl2:65536:32:1:l -cache:il1 il1:256:32:1:l -cache:il2 dl2 base_radixsort1242260160
	sim-cache -cache:dl1 dl1:1:32:256:l -cache:dl2 dl2:1:32:131072:l -cache:il1 il1:1:32:256:l -cache:il2 dl2 base_radixsort1242260160
	sim-cache -cache:dl1 dl1:1:32:256:l -cache:dl2 dl2:1:32:65536:l -cache:il1 il1:1:32:256:l -cache:il2 dl2 base_radixsort1242260160
	sim-bpred -bpred bimod -bpred:bimod 512 base_radixsort1242260160
	sim-bpred -bpred bimod -bpred:bimod 1024 base_radixsort1242260160
	sim-bpred -bpred bimod -bpred:bimod 2048 base_radixsort1242260160
	sim-bpred -bpred 2lev -bpred:2lev 1 512 10 1 base_radixsort1242260160
	sim-bpred -bpred 2lev -bpred:2lev 1 1024 10 1 base_radixsort1242260160
	sim-bpred -bpred 2lev -bpred:2lev 1 2048 10 1 base_radixsort1242260160
	sim-bpred -bpred 2lev -bpred:2lev 1 4096 10 1 base_radixsort1242260160
	sslittle-na-sstrix-gcc -Wall -O3 -funroll-loops -finline-functions  -DRANDOM_SIZE=16384 -DOFFSET=3 -DSORT=base_radixsort sorts/base_radixsort672498875.c simpleMain.c -o base_radixsort1242260160
	sim-cache -cache:dl1 dl1:256:32:1:l -cache:dl2 dl2:131072:32:1:l -cache:il1 il1:256:32:1:l -cache:il2 dl2 base_radixsort1242260160
	sim-cache -cache:dl1 dl1:256:32:1:l -cache:dl2 dl2:65536:32:1:l -cache:il1 il1:256:32:1:l -cache:il2 dl2 base_radixsort1242260160
	sim-cache -cache:dl1 dl1:1:32:256:l -cache:dl2 dl2:1:32:131072:l -cache:il1 il1:1:32:256:l -cache:il2 dl2 base_radixsort1242260160
	sim-cache -cache:dl1 dl1:1:32:256:l -cache:dl2 dl2:1:32:65536:l -cache:il1 il1:1:32:256:l -cache:il2 dl2 base_radixsort1242260160
	sim-bpred -bpred bimod -bpred:bimod 512 base_radixsort1242260160
	sim-bpred -bpred bimod -bpred:bimod 1024 base_radixsort1242260160
	sim-bpred -bpred bimod -bpred:bimod 2048 base_radixsort1242260160
	sim-bpred -bpred 2lev -bpred:2lev 1 512 10 1 base_radixsort1242260160
	sim-bpred -bpred 2lev -bpred:2lev 1 1024 10 1 base_radixsort1242260160
	sim-bpred -bpred 2lev -bpred:2lev 1 2048 10 1 base_radixsort1242260160
	sim-bpred -bpred 2lev -bpred:2lev 1 4096 10 1 base_radixsort1242260160
	sslittle-na-sstrix-gcc -Wall -O3 -funroll-loops -finline-functions  -DRANDOM_SIZE=32768 -DOFFSET=3 -DSORT=base_radixsort sorts/base_radixsort672498875.c simpleMain.c -o base_radixsort1242260160
	sim-cache -cache:dl1 dl1:256:32:1:l -cache:dl2 dl2:131072:32:1:l -cache:il1 il1:256:32:1:l -cache:il2 dl2 base_radixsort1242260160
	sim-cache -cache:dl1 dl1:256:32:1:l -cache:dl2 dl2:65536:32:1:l -cache:il1 il1:256:32:1:l -cache:il2 dl2 base_radixsort1242260160
	sim-cache -cache:dl1 dl1:1:32:256:l -cache:dl2 dl2:1:32:131072:l -cache:il1 il1:1:32:256:l -cache:il2 dl2 base_radixsort1242260160
	sim-cache -cache:dl1 dl1:1:32:256:l -cache:dl2 dl2:1:32:65536:l -cache:il1 il1:1:32:256:l -cache:il2 dl2 base_radixsort1242260160
	sim-bpred -bpred bimod -bpred:bimod 512 base_radixsort1242260160
	sim-bpred -bpred bimod -bpred:bimod 1024 base_radixsort1242260160
	sim-bpred -bpred bimod -bpred:bimod 2048 base_radixsort1242260160
	sim-bpred -bpred 2lev -bpred:2lev 1 512 10 1 base_radixsort1242260160
	sim-bpred -bpred 2lev -bpred:2lev 1 1024 10 1 base_radixsort1242260160
	sim-bpred -bpred 2lev -bpred:2lev 1 2048 10 1 base_radixsort1242260160
	sim-bpred -bpred 2lev -bpred:2lev 1 4096 10 1 base_radixsort1242260160
	sslittle-na-sstrix-gcc -Wall -O3 -funroll-loops -finline-functions  -DRANDOM_SIZE=65536 -DOFFSET=3 -DSORT=base_radixsort sorts/base_radixsort672498875.c simpleMain.c -o base_radixsort1242260160
	sim-cache -cache:dl1 dl1:256:32:1:l -cache:dl2 dl2:131072:32:1:l -cache:il1 il1:256:32:1:l -cache:il2 dl2 base_radixsort1242260160
	sim-cache -cache:dl1 dl1:256:32:1:l -cache:dl2 dl2:65536:32:1:l -cache:il1 il1:256:32:1:l -cache:il2 dl2 base_radixsort1242260160
	sim-cache -cache:dl1 dl1:1:32:256:l -cache:dl2 dl2:1:32:131072:l -cache:il1 il1:1:32:256:l -cache:il2 dl2 base_radixsort1242260160
	sim-cache -cache:dl1 dl1:1:32:256:l -cache:dl2 dl2:1:32:65536:l -cache:il1 il1:1:32:256:l -cache:il2 dl2 base_radixsort1242260160
	sim-bpred -bpred bimod -bpred:bimod 512 base_radixsort1242260160
	sim-bpred -bpred bimod -bpred:bimod 1024 base_radixsort1242260160
	sim-bpred -bpred bimod -bpred:bimod 2048 base_radixsort1242260160
	sim-bpred -bpred 2lev -bpred:2lev 1 512 10 1 base_radixsort1242260160
	sim-bpred -bpred 2lev -bpred:2lev 1 1024 10 1 base_radixsort1242260160
	sim-bpred -bpred 2lev -bpred:2lev 1 2048 10 1 base_radixsort1242260160
	sim-bpred -bpred 2lev -bpred:2lev 1 4096 10 1 base_radixsort1242260160
	sslittle-na-sstrix-gcc -Wall -O3 -funroll-loops -finline-functions  -DRANDOM_SIZE=131072 -DOFFSET=3 -DSORT=base_radixsort sorts/base_radixsort672498875.c simpleMain.c -o base_radixsort1242260160
	sim-cache -cache:dl1 dl1:256:32:1:l -cache:dl2 dl2:131072:32:1:l -cache:il1 il1:256:32:1:l -cache:il2 dl2 base_radixsort1242260160
	sim-cache -cache:dl1 dl1:256:32:1:l -cache:dl2 dl2:65536:32:1:l -cache:il1 il1:256:32:1:l -cache:il2 dl2 base_radixsort1242260160
	sim-cache -cache:dl1 dl1:1:32:256:l -cache:dl2 dl2:1:32:131072:l -cache:il1 il1:1:32:256:l -cache:il2 dl2 base_radixsort1242260160
	sim-cache -cache:dl1 dl1:1:32:256:l -cache:dl2 dl2:1:32:65536:l -cache:il1 il1:1:32:256:l -cache:il2 dl2 base_radixsort1242260160
	sim-bpred -bpred bimod -bpred:bimod 512 base_radixsort1242260160
	sim-bpred -bpred bimod -bpred:bimod 1024 base_radixsort1242260160
	sim-bpred -bpred bimod -bpred:bimod 2048 base_radixsort1242260160
	sim-bpred -bpred 2lev -bpred:2lev 1 512 10 1 base_radixsort1242260160
	sim-bpred -bpred 2lev -bpred:2lev 1 1024 10 1 base_radixsort1242260160
	sim-bpred -bpred 2lev -bpred:2lev 1 2048 10 1 base_radixsort1242260160
	sim-bpred -bpred 2lev -bpred:2lev 1 4096 10 1 base_radixsort1242260160
	sslittle-na-sstrix-gcc -Wall -O3 -funroll-loops -finline-functions  -DRANDOM_SIZE=262144 -DOFFSET=3 -DSORT=base_radixsort sorts/base_radixsort672498875.c simpleMain.c -o base_radixsort1242260160
	sim-cache -cache:dl1 dl1:256:32:1:l -cache:dl2 dl2:131072:32:1:l -cache:il1 il1:256:32:1:l -cache:il2 dl2 base_radixsort1242260160
	sim-cache -cache:dl1 dl1:256:32:1:l -cache:dl2 dl2:65536:32:1:l -cache:il1 il1:256:32:1:l -cache:il2 dl2 base_radixsort1242260160
	sim-cache -cache:dl1 dl1:1:32:256:l -cache:dl2 dl2:1:32:131072:l -cache:il1 il1:1:32:256:l -cache:il2 dl2 base_radixsort1242260160
	sim-cache -cache:dl1 dl1:1:32:256:l -cache:dl2 dl2:1:32:65536:l -cache:il1 il1:1:32:256:l -cache:il2 dl2 base_radixsort1242260160
	sim-bpred -bpred bimod -bpred:bimod 512 base_radixsort1242260160
	sim-bpred -bpred bimod -bpred:bimod 1024 base_radixsort1242260160
	sim-bpred -bpred bimod -bpred:bimod 2048 base_radixsort1242260160
	sim-bpred -bpred 2lev -bpred:2lev 1 512 10 1 base_radixsort1242260160
	sim-bpred -bpred 2lev -bpred:2lev 1 1024 10 1 base_radixsort1242260160
	sim-bpred -bpred 2lev -bpred:2lev 1 2048 10 1 base_radixsort1242260160
	sim-bpred -bpred 2lev -bpred:2lev 1 4096 10 1 base_radixsort1242260160
	sslittle-na-sstrix-gcc -Wall -O3 -funroll-loops -finline-functions  -DRANDOM_SIZE=524288 -DOFFSET=3 -DSORT=base_radixsort sorts/base_radixsort672498875.c simpleMain.c -o base_radixsort1242260160
	sim-cache -cache:dl1 dl1:256:32:1:l -cache:dl2 dl2:131072:32:1:l -cache:il1 il1:256:32:1:l -cache:il2 dl2 base_radixsort1242260160
	sim-cache -cache:dl1 dl1:256:32:1:l -cache:dl2 dl2:65536:32:1:l -cache:il1 il1:256:32:1:l -cache:il2 dl2 base_radixsort1242260160
	sim-cache -cache:dl1 dl1:1:32:256:l -cache:dl2 dl2:1:32:131072:l -cache:il1 il1:1:32:256:l -cache:il2 dl2 base_radixsort1242260160
	sim-cache -cache:dl1 dl1:1:32:256:l -cache:dl2 dl2:1:32:65536:l -cache:il1 il1:1:32:256:l -cache:il2 dl2 base_radixsort1242260160
	sim-bpred -bpred bimod -bpred:bimod 512 base_radixsort1242260160
	sim-bpred -bpred bimod -bpred:bimod 1024 base_radixsort1242260160
	sim-bpred -bpred bimod -bpred:bimod 2048 base_radixsort1242260160
	sim-bpred -bpred 2lev -bpred:2lev 1 512 10 1 base_radixsort1242260160
	sim-bpred -bpred 2lev -bpred:2lev 1 1024 10 1 base_radixsort1242260160
	sim-bpred -bpred 2lev -bpred:2lev 1 2048 10 1 base_radixsort1242260160
	sim-bpred -bpred 2lev -bpred:2lev 1 4096 10 1 base_radixsort1242260160
	sslittle-na-sstrix-gcc -Wall -O3 -funroll-loops -finline-functions  -DRANDOM_SIZE=1048576 -DOFFSET=3 -DSORT=base_radixsort sorts/base_radixsort672498875.c simpleMain.c -o base_radixsort1242260160
	sim-cache -cache:dl1 dl1:256:32:1:l -cache:dl2 dl2:131072:32:1:l -cache:il1 il1:256:32:1:l -cache:il2 dl2 base_radixsort1242260160
	sim-cache -cache:dl1 dl1:256:32:1:l -cache:dl2 dl2:65536:32:1:l -cache:il1 il1:256:32:1:l -cache:il2 dl2 base_radixsort1242260160
	sim-cache -cache:dl1 dl1:1:32:256:l -cache:dl2 dl2:1:32:131072:l -cache:il1 il1:1:32:256:l -cache:il2 dl2 base_radixsort1242260160
	sim-cache -cache:dl1 dl1:1:32:256:l -cache:dl2 dl2:1:32:65536:l -cache:il1 il1:1:32:256:l -cache:il2 dl2 base_radixsort1242260160
	sim-bpred -bpred bimod -bpred:bimod 512 base_radixsort1242260160
	sim-bpred -bpred bimod -bpred:bimod 1024 base_radixsort1242260160
	sim-bpred -bpred bimod -bpred:bimod 2048 base_radixsort1242260160
	sim-bpred -bpred 2lev -bpred:2lev 1 512 10 1 base_radixsort1242260160
	sim-bpred -bpred 2lev -bpred:2lev 1 1024 10 1 base_radixsort1242260160
	sim-bpred -bpred 2lev -bpred:2lev 1 2048 10 1 base_radixsort1242260160
	sim-bpred -bpred 2lev -bpred:2lev 1 4096 10 1 base_radixsort1242260160
	sslittle-na-sstrix-gcc -Wall -O3 -funroll-loops -finline-functions  -DRANDOM_SIZE=2097152 -DOFFSET=3 -DSORT=base_radixsort sorts/base_radixsort672498875.c simpleMain.c -o base_radixsort1242260160
	sim-cache -cache:dl1 dl1:256:32:1:l -cache:dl2 dl2:131072:32:1:l -cache:il1 il1:256:32:1:l -cache:il2 dl2 base_radixsort1242260160
	sim-cache -cache:dl1 dl1:256:32:1:l -cache:dl2 dl2:65536:32:1:l -cache:il1 il1:256:32:1:l -cache:il2 dl2 base_radixsort1242260160
	sim-cache -cache:dl1 dl1:1:32:256:l -cache:dl2 dl2:1:32:131072:l -cache:il1 il1:1:32:256:l -cache:il2 dl2 base_radixsort1242260160
	sim-cache -cache:dl1 dl1:1:32:256:l -cache:dl2 dl2:1:32:65536:l -cache:il1 il1:1:32:256:l -cache:il2 dl2 base_radixsort1242260160
	sim-bpred -bpred bimod -bpred:bimod 512 base_radixsort1242260160
	sim-bpred -bpred bimod -bpred:bimod 1024 base_radixsort1242260160
	sim-bpred -bpred bimod -bpred:bimod 2048 base_radixsort1242260160
	sim-bpred -bpred 2lev -bpred:2lev 1 512 10 1 base_radixsort1242260160
	sim-bpred -bpred 2lev -bpred:2lev 1 1024 10 1 base_radixsort1242260160
	sim-bpred -bpred 2lev -bpred:2lev 1 2048 10 1 base_radixsort1242260160
	sim-bpred -bpred 2lev -bpred:2lev 1 4096 10 1 base_radixsort1242260160
	sslittle-na-sstrix-gcc -Wall -O3 -funroll-loops -finline-functions  -DRANDOM_SIZE=4194304 -DOFFSET=3 -DSORT=base_radixsort sorts/base_radixsort672498875.c simpleMain.c -o base_radixsort1242260160
	sim-cache -cache:dl1 dl1:256:32:1:l -cache:dl2 dl2:131072:32:1:l -cache:il1 il1:256:32:1:l -cache:il2 dl2 base_radixsort1242260160
	sim-cache -cache:dl1 dl1:256:32:1:l -cache:dl2 dl2:65536:32:1:l -cache:il1 il1:256:32:1:l -cache:il2 dl2 base_radixsort1242260160
	sim-cache -cache:dl1 dl1:1:32:256:l -cache:dl2 dl2:1:32:131072:l -cache:il1 il1:1:32:256:l -cache:il2 dl2 base_radixsort1242260160
	sim-cache -cache:dl1 dl1:1:32:256:l -cache:dl2 dl2:1:32:65536:l -cache:il1 il1:1:32:256:l -cache:il2 dl2 base_radixsort1242260160
	sim-bpred -bpred bimod -bpred:bimod 512 base_radixsort1242260160
	sim-bpred -bpred bimod -bpred:bimod 1024 base_radixsort1242260160
	sim-bpred -bpred bimod -bpred:bimod 2048 base_radixsort1242260160
	sim-bpred -bpred 2lev -bpred:2lev 1 512 10 1 base_radixsort1242260160
	sim-bpred -bpred 2lev -bpred:2lev 1 1024 10 1 base_radixsort1242260160
	sim-bpred -bpred 2lev -bpred:2lev 1 2048 10 1 base_radixsort1242260160
	sim-bpred -bpred 2lev -bpred:2lev 1 4096 10 1 base_radixsort1242260160
