Sat Jul  2 06:47:41 2005
Run as: "./do_simple -c random.org3 -o 3 base_quicksort"
-------------------------------------------------------------------------------------------------
sim-cache                                     4096 |         4096 |         4096 |         4096 |         8192 |         8192 |         8192 |         8192 |        16384 |        16384 |        16384 |        16384 |        32768 |        32768 |        32768 |        32768 |        65536 |        65536 |        65536 |        65536 |       131072 |       131072 |       131072 |       131072 |       262144 |       262144 |       262144 |       262144 |       524288 |       524288 |       524288 |       524288 |      1048576 |      1048576 |      1048576 |      1048576 |      2097152 |      2097152 |      2097152 |      2097152 |      4194304 |      4194304 |      4194304 |      4194304 |
-cache:dl1 dl1:256:32:1:l -cache:dl2 dl2:131072:32:1:l -cache:il1 il1:256:32:1:l -cache:il2 dl2
-cache:dl1 dl1:256:32:1:l -cache:dl2 dl2:65536:32:1:l -cache:il1 il1:256:32:1:l -cache:il2 dl2
-cache:dl1 dl1:1:32:256:l -cache:dl2 dl2:1:32:131072:l -cache:il1 il1:1:32:256:l -cache:il2 dl2
-cache:dl1 dl1:1:32:256:l -cache:dl2 dl2:1:32:65536:l -cache:il1 il1:1:32:256:l -cache:il2 dl2
-------------------------------------------------------------------------------------------------
sim_num_insn                                469686 |       469686 |       469686 |       469686 |       994762 |       994762 |       994762 |       994762 |      2153514 |      2153514 |      2153514 |      2153514 |      4599878 |      4599878 |      4599878 |      4599878 |      9840973 |      9840973 |      9840973 |      9840973 |     21175219 |     21175219 |     21175219 |     21175219 |     44066968 |     44066968 |     44066968 |     44066968 |     93121964 |     93121964 |     93121964 |     93121964 |    199522481 |    199522481 |    199522481 |    199522481 |    409940847 |    409940847 |    409940847 |    409940847 |    868461493 |    868461493 |    868461493 |    868461493 |
sim_num_refs                                124615 |       124615 |       124615 |       124615 |       261411 |       261411 |       261411 |       261411 |       556188 |       556188 |       556188 |       556188 |      1178026 |      1178026 |      1178026 |      1178026 |      2502004 |      2502004 |      2502004 |      2502004 |      5318264 |      5318264 |      5318264 |      5318264 |     11093395 |     11093395 |     11093395 |     11093395 |     23325936 |     23325936 |     23325936 |     23325936 |     49401833 |     49401833 |     49401833 |     49401833 |    102085215 |    102085215 |    102085215 |    102085215 |    214669093 |    214669093 |    214669093 |    214669093 |
sim_elapsed_time                                 1 |            1 |            7 |            4 |            1 |            1 |            9 |            5 |            1 |            1 |           15 |            8 |            1 |            1 |           26 |           13 |            2 |            3 |           48 |           24 |            5 |            6 |           88 |           44 |           11 |           11 |          163 |           76 |           25 |           24 |          280 |          109 |           52 |           53 |          390 |          139 |          107 |          108 |          448 |          197 |          227 |          228 |          580 |          329 |
sim_inst_rate                          469686.0000 |  469686.0000 |   67098.0000 |  117421.5000 |  994762.0000 |  994762.0000 |  110529.1111 |  198952.4000 | 2153514.0000 | 2153514.0000 |  143567.6000 |  269189.2500 | 4599878.0000 | 4599878.0000 |  176918.3846 |  353836.7692 | 4920486.5000 | 3280324.3333 |  205020.2708 |  410040.5417 | 4235043.8000 | 3529203.1667 |  240627.4886 |  481254.9773 | 4006088.0000 | 4006088.0000 |  270349.4969 |  579828.5263 | 3724878.5600 | 3880081.8333 |  332578.4429 |  854329.9450 | 3836970.7885 | 3764575.1132 |  511596.1051 | 1435413.5324 | 3831222.8692 | 3795748.5833 |  915046.5335 | 2080918.0051 | 3825821.5551 | 3809041.6360 | 1497347.4017 | 2639700.5866 |
il1.accesses                                469686 |       469686 |       469686 |       469686 |       994762 |       994762 |       994762 |       994762 |      2153514 |      2153514 |      2153514 |      2153514 |      4599878 |      4599878 |      4599878 |      4599878 |      9840973 |      9840973 |      9840973 |      9840973 |     21175219 |     21175219 |     21175219 |     21175219 |     44066968 |     44066968 |     44066968 |     44066968 |     93121964 |     93121964 |     93121964 |     93121964 |    199522481 |    199522481 |    199522481 |    199522481 |    409940847 |    409940847 |    409940847 |    409940847 |    868461493 |    868461493 |    868461493 |    868461493 |
il1.hits                                    469235 |       469235 |       469266 |       469266 |       994309 |       994309 |       994340 |       994340 |      2153049 |      2153049 |      2153089 |      2153089 |      4599424 |      4599424 |      4599455 |      4599455 |      9840519 |      9840519 |      9840550 |      9840550 |     21174766 |     21174766 |     21174797 |     21174797 |     44066515 |     44066515 |     44066546 |     44066546 |     93121511 |     93121511 |     93121542 |     93121542 |    199522028 |    199522028 |    199522059 |    199522059 |    409940394 |    409940394 |    409940425 |    409940425 |    868461040 |    868461040 |    868461071 |    868461071 |
il1.misses                                     451 |          451 |          420 |          420 |          453 |          453 |          422 |          422 |          465 |          465 |          425 |          425 |          454 |          454 |          423 |          423 |          454 |          454 |          423 |          423 |          453 |          453 |          422 |          422 |          453 |          453 |          422 |          422 |          453 |          453 |          422 |          422 |          453 |          453 |          422 |          422 |          453 |          453 |          422 |          422 |          453 |          453 |          422 |          422 |
il1.replacements                               213 |          213 |          164 |          164 |          215 |          215 |          166 |          166 |          227 |          227 |          169 |          169 |          216 |          216 |          167 |          167 |          216 |          216 |          167 |          167 |          216 |          216 |          166 |          166 |          216 |          216 |          166 |          166 |          216 |          216 |          166 |          166 |          216 |          216 |          166 |          166 |          216 |          216 |          166 |          166 |          216 |          216 |          166 |          166 |
il1.writebacks                                   0 |            0 |            0 |            0 |            0 |            0 |            0 |            0 |            0 |            0 |            0 |            0 |            0 |            0 |            0 |            0 |            0 |            0 |            0 |            0 |            0 |            0 |            0 |            0 |            0 |            0 |            0 |            0 |            0 |            0 |            0 |            0 |            0 |            0 |            0 |            0 |            0 |            0 |            0 |            0 |            0 |            0 |            0 |            0 |
il1.invalidations                                0 |            0 |            0 |            0 |            0 |            0 |            0 |            0 |            0 |            0 |            0 |            0 |            0 |            0 |            0 |            0 |            0 |            0 |            0 |            0 |            0 |            0 |            0 |            0 |            0 |            0 |            0 |            0 |            0 |            0 |            0 |            0 |            0 |            0 |            0 |            0 |            0 |            0 |            0 |            0 |            0 |            0 |            0 |            0 |
il1.miss_rate                               0.0010 |       0.0010 |       0.0009 |       0.0009 |       0.0005 |       0.0005 |       0.0004 |       0.0004 |       0.0002 |       0.0002 |       0.0002 |       0.0002 |       0.0001 |       0.0001 |       0.0001 |       0.0001 |       0.0000 |       0.0000 |       0.0000 |       0.0000 |       0.0000 |       0.0000 |       0.0000 |       0.0000 |       0.0000 |       0.0000 |       0.0000 |       0.0000 |       0.0000 |       0.0000 |       0.0000 |       0.0000 |       0.0000 |       0.0000 |       0.0000 |       0.0000 |       0.0000 |       0.0000 |       0.0000 |       0.0000 |       0.0000 |       0.0000 |       0.0000 |       0.0000 |
il1.repl_rate                               0.0005 |       0.0005 |       0.0003 |       0.0003 |       0.0002 |       0.0002 |       0.0002 |       0.0002 |       0.0001 |       0.0001 |       0.0001 |       0.0001 |       0.0000 |       0.0000 |       0.0000 |       0.0000 |       0.0000 |       0.0000 |       0.0000 |       0.0000 |       0.0000 |       0.0000 |       0.0000 |       0.0000 |       0.0000 |       0.0000 |       0.0000 |       0.0000 |       0.0000 |       0.0000 |       0.0000 |       0.0000 |       0.0000 |       0.0000 |       0.0000 |       0.0000 |       0.0000 |       0.0000 |       0.0000 |       0.0000 |       0.0000 |       0.0000 |       0.0000 |       0.0000 |
il1.wb_rate                                 0.0000 |       0.0000 |       0.0000 |       0.0000 |       0.0000 |       0.0000 |       0.0000 |       0.0000 |       0.0000 |       0.0000 |       0.0000 |       0.0000 |       0.0000 |       0.0000 |       0.0000 |       0.0000 |       0.0000 |       0.0000 |       0.0000 |       0.0000 |       0.0000 |       0.0000 |       0.0000 |       0.0000 |       0.0000 |       0.0000 |       0.0000 |       0.0000 |       0.0000 |       0.0000 |       0.0000 |       0.0000 |       0.0000 |       0.0000 |       0.0000 |       0.0000 |       0.0000 |       0.0000 |       0.0000 |       0.0000 |       0.0000 |       0.0000 |       0.0000 |       0.0000 |
il1.inv_rate                                0.0000 |       0.0000 |       0.0000 |       0.0000 |       0.0000 |       0.0000 |       0.0000 |       0.0000 |       0.0000 |       0.0000 |       0.0000 |       0.0000 |       0.0000 |       0.0000 |       0.0000 |       0.0000 |       0.0000 |       0.0000 |       0.0000 |       0.0000 |       0.0000 |       0.0000 |       0.0000 |       0.0000 |       0.0000 |       0.0000 |       0.0000 |       0.0000 |       0.0000 |       0.0000 |       0.0000 |       0.0000 |       0.0000 |       0.0000 |       0.0000 |       0.0000 |       0.0000 |       0.0000 |       0.0000 |       0.0000 |       0.0000 |       0.0000 |       0.0000 |       0.0000 |
dl1.accesses                                141081 |       141081 |       141081 |       141081 |       294261 |       294261 |       294261 |       294261 |       621806 |       621806 |       621806 |       621806 |      1309180 |      1309180 |      1309180 |      1309180 |      2764230 |      2764230 |      2764230 |      2764230 |      5842634 |      5842634 |      5842634 |      5842634 |     12142053 |     12142053 |     12142053 |     12142053 |     25423170 |     25423170 |     25423170 |     25423170 |     53596219 |     53596219 |     53596219 |     53596219 |    110473905 |    110473905 |    110473905 |    110473905 |    231446391 |    231446391 |    231446391 |    231446391 |
dl1.hits                                    138698 |       138698 |       138574 |       138574 |       288577 |       288577 |       288636 |       288636 |       608064 |       608064 |       607936 |       607936 |      1277966 |      1277966 |      1277453 |      1277453 |      2688910 |      2688910 |      2688446 |      2688446 |      5666732 |      5666732 |      5667310 |      5667310 |     11770319 |     11770319 |     11770746 |     11770746 |     24591075 |     24591075 |     24596444 |     24596444 |     51696463 |     51696463 |     51711426 |     51711426 |    106548670 |    106548670 |    106588758 |    106588758 |    222731533 |    222731533 |    222826095 |    222826095 |
dl1.misses                                    2383 |         2383 |         2507 |         2507 |         5684 |         5684 |         5625 |         5625 |        13742 |        13742 |        13870 |        13870 |        31214 |        31214 |        31727 |        31727 |        75320 |        75320 |        75784 |        75784 |       175902 |       175902 |       175324 |       175324 |       371734 |       371734 |       371307 |       371307 |       832095 |       832095 |       826726 |       826726 |      1899756 |      1899756 |      1884793 |      1884793 |      3925235 |      3925235 |      3885147 |      3885147 |      8714858 |      8714858 |      8620296 |      8620296 |
dl1.replacements                              2127 |         2127 |         2251 |         2251 |         5428 |         5428 |         5369 |         5369 |        13486 |        13486 |        13614 |        13614 |        30958 |        30958 |        31471 |        31471 |        75064 |        75064 |        75528 |        75528 |       175646 |       175646 |       175068 |       175068 |       371478 |       371478 |       371051 |       371051 |       831839 |       831839 |       826470 |       826470 |      1899500 |      1899500 |      1884537 |      1884537 |      3924979 |      3924979 |      3884891 |      3884891 |      8714602 |      8714602 |      8620040 |      8620040 |
dl1.writebacks                                2080 |         2080 |         2223 |         2223 |         5334 |         5334 |         5320 |         5320 |        12985 |        12985 |        13163 |        13163 |        29720 |        29720 |        30210 |        30210 |        70226 |        70226 |        71047 |        71047 |       158705 |       158705 |       159570 |       159570 |       347695 |       347695 |       350076 |       350076 |       773208 |       773208 |       775061 |       775061 |      1699342 |      1699342 |      1702101 |      1702101 |      3617840 |      3617840 |      3617157 |      3617157 |      7837871 |      7837871 |      7829795 |      7829795 |
dl1.invalidations                                0 |            0 |            0 |            0 |            0 |            0 |            0 |            0 |            0 |            0 |            0 |            0 |            0 |            0 |            0 |            0 |            0 |            0 |            0 |            0 |            0 |            0 |            0 |            0 |            0 |            0 |            0 |            0 |            0 |            0 |            0 |            0 |            0 |            0 |            0 |            0 |            0 |            0 |            0 |            0 |            0 |            0 |            0 |            0 |
dl1.miss_rate                               0.0169 |       0.0169 |       0.0178 |       0.0178 |       0.0193 |       0.0193 |       0.0191 |       0.0191 |       0.0221 |       0.0221 |       0.0223 |       0.0223 |       0.0238 |       0.0238 |       0.0242 |       0.0242 |       0.0272 |       0.0272 |       0.0274 |       0.0274 |       0.0301 |       0.0301 |       0.0300 |       0.0300 |       0.0306 |       0.0306 |       0.0306 |       0.0306 |       0.0327 |       0.0327 |       0.0325 |       0.0325 |       0.0354 |       0.0354 |       0.0352 |       0.0352 |       0.0355 |       0.0355 |       0.0352 |       0.0352 |       0.0377 |       0.0377 |       0.0372 |       0.0372 |
dl1.repl_rate                               0.0151 |       0.0151 |       0.0160 |       0.0160 |       0.0184 |       0.0184 |       0.0182 |       0.0182 |       0.0217 |       0.0217 |       0.0219 |       0.0219 |       0.0236 |       0.0236 |       0.0240 |       0.0240 |       0.0272 |       0.0272 |       0.0273 |       0.0273 |       0.0301 |       0.0301 |       0.0300 |       0.0300 |       0.0306 |       0.0306 |       0.0306 |       0.0306 |       0.0327 |       0.0327 |       0.0325 |       0.0325 |       0.0354 |       0.0354 |       0.0352 |       0.0352 |       0.0355 |       0.0355 |       0.0352 |       0.0352 |       0.0377 |       0.0377 |       0.0372 |       0.0372 |
dl1.wb_rate                                 0.0147 |       0.0147 |       0.0158 |       0.0158 |       0.0181 |       0.0181 |       0.0181 |       0.0181 |       0.0209 |       0.0209 |       0.0212 |       0.0212 |       0.0227 |       0.0227 |       0.0231 |       0.0231 |       0.0254 |       0.0254 |       0.0257 |       0.0257 |       0.0272 |       0.0272 |       0.0273 |       0.0273 |       0.0286 |       0.0286 |       0.0288 |       0.0288 |       0.0304 |       0.0304 |       0.0305 |       0.0305 |       0.0317 |       0.0317 |       0.0318 |       0.0318 |       0.0327 |       0.0327 |       0.0327 |       0.0327 |       0.0339 |       0.0339 |       0.0338 |       0.0338 |
dl1.inv_rate                                0.0000 |       0.0000 |       0.0000 |       0.0000 |       0.0000 |       0.0000 |       0.0000 |       0.0000 |       0.0000 |       0.0000 |       0.0000 |       0.0000 |       0.0000 |       0.0000 |       0.0000 |       0.0000 |       0.0000 |       0.0000 |       0.0000 |       0.0000 |       0.0000 |       0.0000 |       0.0000 |       0.0000 |       0.0000 |       0.0000 |       0.0000 |       0.0000 |       0.0000 |       0.0000 |       0.0000 |       0.0000 |       0.0000 |       0.0000 |       0.0000 |       0.0000 |       0.0000 |       0.0000 |       0.0000 |       0.0000 |       0.0000 |       0.0000 |       0.0000 |       0.0000 |
dl2.accesses                                  4914 |         4914 |         5150 |         5150 |        11471 |        11471 |        11367 |        11367 |        27192 |        27192 |        27458 |        27458 |        61388 |        61388 |        62360 |        62360 |       146000 |       146000 |       147254 |       147254 |       335060 |       335060 |       335316 |       335316 |       719882 |       719882 |       721805 |       721805 |      1605756 |      1605756 |      1602209 |      1602209 |      3599551 |      3599551 |      3587316 |      3587316 |      7543528 |      7543528 |      7502726 |      7502726 |     16553182 |     16553182 |     16450513 |     16450513 |
dl2.hits                                      3549 |         3549 |         3795 |         3795 |         9592 |         9592 |         9498 |         9498 |        24290 |        24290 |        24571 |        24571 |        56444 |        56444 |        57426 |        57426 |       136959 |       136959 |       138223 |       138223 |       317828 |       317828 |       318094 |       318094 |       686266 |       686266 |       688199 |       688199 |      1539372 |      1538600 |      1535835 |      1475444 |      3466837 |      3114766 |      3283106 |      3033134 |      6625831 |      6205238 |      6467589 |      6079234 |     13756924 |     12981334 |     13452370 |     12753338 |
dl2.misses                                    1365 |         1365 |         1355 |         1355 |         1879 |         1879 |         1869 |         1869 |         2902 |         2902 |         2887 |         2887 |         4944 |         4944 |         4934 |         4934 |         9041 |         9041 |         9031 |         9031 |        17232 |        17232 |        17222 |        17222 |        33616 |        33616 |        33606 |        33606 |        66384 |        67156 |        66374 |       126765 |       132714 |       484785 |       304210 |       554182 |       917697 |      1338290 |      1035137 |      1423492 |      2796258 |      3571848 |      2998143 |      3697175 |
dl2.replacements                               144 |          144 |            0 |            0 |          144 |          144 |            0 |            0 |          150 |          150 |            0 |            0 |          144 |          144 |            0 |            0 |          144 |          144 |            0 |            0 |          144 |          144 |            0 |            0 |          144 |          144 |            0 |            0 |          144 |         1620 |            0 |        61229 |         1642 |       419249 |       173138 |       488646 |       786625 |      1272754 |       904065 |      1357956 |      2665186 |      3506312 |      2867071 |      3631639 |
dl2.writebacks                                  88 |           88 |            0 |            0 |           88 |           88 |            0 |            0 |           89 |           89 |            0 |            0 |           88 |           88 |            0 |            0 |           88 |           88 |            0 |            0 |           88 |           88 |            0 |            0 |           88 |           88 |            0 |            0 |           88 |         1310 |            0 |        60018 |         1325 |       396686 |       167501 |       455552 |       785730 |      1212380 |       865742 |      1285819 |      2374892 |      3122744 |      2567930 |      3243418 |
dl2.invalidations                                0 |            0 |            0 |            0 |            0 |            0 |            0 |            0 |            0 |            0 |            0 |            0 |            0 |            0 |            0 |            0 |            0 |            0 |            0 |            0 |            0 |            0 |            0 |            0 |            0 |            0 |            0 |            0 |            0 |            0 |            0 |            0 |            0 |            0 |            0 |            0 |            0 |            0 |            0 |            0 |            0 |            0 |            0 |            0 |
dl2.miss_rate                               0.2778 |       0.2778 |       0.2631 |       0.2631 |       0.1638 |       0.1638 |       0.1644 |       0.1644 |       0.1067 |       0.1067 |       0.1051 |       0.1051 |       0.0805 |       0.0805 |       0.0791 |       0.0791 |       0.0619 |       0.0619 |       0.0613 |       0.0613 |       0.0514 |       0.0514 |       0.0514 |       0.0514 |       0.0467 |       0.0467 |       0.0466 |       0.0466 |       0.0413 |       0.0418 |       0.0414 |       0.0791 |       0.0369 |       0.1347 |       0.0848 |       0.1545 |       0.1217 |       0.1774 |       0.1380 |       0.1897 |       0.1689 |       0.2158 |       0.1823 |       0.2247 |
dl2.repl_rate                               0.0293 |       0.0293 |       0.0000 |       0.0000 |       0.0126 |       0.0126 |       0.0000 |       0.0000 |       0.0055 |       0.0055 |       0.0000 |       0.0000 |       0.0023 |       0.0023 |       0.0000 |       0.0000 |       0.0010 |       0.0010 |       0.0000 |       0.0000 |       0.0004 |       0.0004 |       0.0000 |       0.0000 |       0.0002 |       0.0002 |       0.0000 |       0.0000 |       0.0001 |       0.0010 |       0.0000 |       0.0382 |       0.0005 |       0.1165 |       0.0483 |       0.1362 |       0.1043 |       0.1687 |       0.1205 |       0.1810 |       0.1610 |       0.2118 |       0.1743 |       0.2208 |
dl2.wb_rate                                 0.0179 |       0.0179 |       0.0000 |       0.0000 |       0.0077 |       0.0077 |       0.0000 |       0.0000 |       0.0033 |       0.0033 |       0.0000 |       0.0000 |       0.0014 |       0.0014 |       0.0000 |       0.0000 |       0.0006 |       0.0006 |       0.0000 |       0.0000 |       0.0003 |       0.0003 |       0.0000 |       0.0000 |       0.0001 |       0.0001 |       0.0000 |       0.0000 |       0.0001 |       0.0008 |       0.0000 |       0.0375 |       0.0004 |       0.1102 |       0.0467 |       0.1270 |       0.1042 |       0.1607 |       0.1154 |       0.1714 |       0.1435 |       0.1886 |       0.1561 |       0.1972 |
dl2.inv_rate                                0.0000 |       0.0000 |       0.0000 |       0.0000 |       0.0000 |       0.0000 |       0.0000 |       0.0000 |       0.0000 |       0.0000 |       0.0000 |       0.0000 |       0.0000 |       0.0000 |       0.0000 |       0.0000 |       0.0000 |       0.0000 |       0.0000 |       0.0000 |       0.0000 |       0.0000 |       0.0000 |       0.0000 |       0.0000 |       0.0000 |       0.0000 |       0.0000 |       0.0000 |       0.0000 |       0.0000 |       0.0000 |       0.0000 |       0.0000 |       0.0000 |       0.0000 |       0.0000 |       0.0000 |       0.0000 |       0.0000 |       0.0000 |       0.0000 |       0.0000 |       0.0000 |
itlb.accesses                               469686 |       469686 |       469686 |       469686 |       994762 |       994762 |       994762 |       994762 |      2153514 |      2153514 |      2153514 |      2153514 |      4599878 |      4599878 |      4599878 |      4599878 |      9840973 |      9840973 |      9840973 |      9840973 |     21175219 |     21175219 |     21175219 |     21175219 |     44066968 |     44066968 |     44066968 |     44066968 |     93121964 |     93121964 |     93121964 |     93121964 |    199522481 |    199522481 |    199522481 |    199522481 |    409940847 |    409940847 |    409940847 |    409940847 |    868461493 |    868461493 |    868461493 |    868461493 |
itlb.hits                                   469676 |       469676 |       469676 |       469676 |       994752 |       994752 |       994752 |       994752 |      2153504 |      2153504 |      2153504 |      2153504 |      4599868 |      4599868 |      4599868 |      4599868 |      9840963 |      9840963 |      9840963 |      9840963 |     21175209 |     21175209 |     21175209 |     21175209 |     44066958 |     44066958 |     44066958 |     44066958 |     93121954 |     93121954 |     93121954 |     93121954 |    199522471 |    199522471 |    199522471 |    199522471 |    409940837 |    409940837 |    409940837 |    409940837 |    868461483 |    868461483 |    868461483 |    868461483 |
itlb.misses                                     10 |           10 |           10 |           10 |           10 |           10 |           10 |           10 |           10 |           10 |           10 |           10 |           10 |           10 |           10 |           10 |           10 |           10 |           10 |           10 |           10 |           10 |           10 |           10 |           10 |           10 |           10 |           10 |           10 |           10 |           10 |           10 |           10 |           10 |           10 |           10 |           10 |           10 |           10 |           10 |           10 |           10 |           10 |           10 |
itlb.replacements                                0 |            0 |            0 |            0 |            0 |            0 |            0 |            0 |            0 |            0 |            0 |            0 |            0 |            0 |            0 |            0 |            0 |            0 |            0 |            0 |            0 |            0 |            0 |            0 |            0 |            0 |            0 |            0 |            0 |            0 |            0 |            0 |            0 |            0 |            0 |            0 |            0 |            0 |            0 |            0 |            0 |            0 |            0 |            0 |
itlb.writebacks                                  0 |            0 |            0 |            0 |            0 |            0 |            0 |            0 |            0 |            0 |            0 |            0 |            0 |            0 |            0 |            0 |            0 |            0 |            0 |            0 |            0 |            0 |            0 |            0 |            0 |            0 |            0 |            0 |            0 |            0 |            0 |            0 |            0 |            0 |            0 |            0 |            0 |            0 |            0 |            0 |            0 |            0 |            0 |            0 |
itlb.invalidations                               0 |            0 |            0 |            0 |            0 |            0 |            0 |            0 |            0 |            0 |            0 |            0 |            0 |            0 |            0 |            0 |            0 |            0 |            0 |            0 |            0 |            0 |            0 |            0 |            0 |            0 |            0 |            0 |            0 |            0 |            0 |            0 |            0 |            0 |            0 |            0 |            0 |            0 |            0 |            0 |            0 |            0 |            0 |            0 |
itlb.miss_rate                              0.0000 |       0.0000 |       0.0000 |       0.0000 |       0.0000 |       0.0000 |       0.0000 |       0.0000 |       0.0000 |       0.0000 |       0.0000 |       0.0000 |       0.0000 |       0.0000 |       0.0000 |       0.0000 |       0.0000 |       0.0000 |       0.0000 |       0.0000 |       0.0000 |       0.0000 |       0.0000 |       0.0000 |       0.0000 |       0.0000 |       0.0000 |       0.0000 |       0.0000 |       0.0000 |       0.0000 |       0.0000 |       0.0000 |       0.0000 |       0.0000 |       0.0000 |       0.0000 |       0.0000 |       0.0000 |       0.0000 |       0.0000 |       0.0000 |       0.0000 |       0.0000 |
itlb.repl_rate                              0.0000 |       0.0000 |       0.0000 |       0.0000 |       0.0000 |       0.0000 |       0.0000 |       0.0000 |       0.0000 |       0.0000 |       0.0000 |       0.0000 |       0.0000 |       0.0000 |       0.0000 |       0.0000 |       0.0000 |       0.0000 |       0.0000 |       0.0000 |       0.0000 |       0.0000 |       0.0000 |       0.0000 |       0.0000 |       0.0000 |       0.0000 |       0.0000 |       0.0000 |       0.0000 |       0.0000 |       0.0000 |       0.0000 |       0.0000 |       0.0000 |       0.0000 |       0.0000 |       0.0000 |       0.0000 |       0.0000 |       0.0000 |       0.0000 |       0.0000 |       0.0000 |
itlb.wb_rate                                0.0000 |       0.0000 |       0.0000 |       0.0000 |       0.0000 |       0.0000 |       0.0000 |       0.0000 |       0.0000 |       0.0000 |       0.0000 |       0.0000 |       0.0000 |       0.0000 |       0.0000 |       0.0000 |       0.0000 |       0.0000 |       0.0000 |       0.0000 |       0.0000 |       0.0000 |       0.0000 |       0.0000 |       0.0000 |       0.0000 |       0.0000 |       0.0000 |       0.0000 |       0.0000 |       0.0000 |       0.0000 |       0.0000 |       0.0000 |       0.0000 |       0.0000 |       0.0000 |       0.0000 |       0.0000 |       0.0000 |       0.0000 |       0.0000 |       0.0000 |       0.0000 |
itlb.inv_rate                               0.0000 |       0.0000 |       0.0000 |       0.0000 |       0.0000 |       0.0000 |       0.0000 |       0.0000 |       0.0000 |       0.0000 |       0.0000 |       0.0000 |       0.0000 |       0.0000 |       0.0000 |       0.0000 |       0.0000 |       0.0000 |       0.0000 |       0.0000 |       0.0000 |       0.0000 |       0.0000 |       0.0000 |       0.0000 |       0.0000 |       0.0000 |       0.0000 |       0.0000 |       0.0000 |       0.0000 |       0.0000 |       0.0000 |       0.0000 |       0.0000 |       0.0000 |       0.0000 |       0.0000 |       0.0000 |       0.0000 |       0.0000 |       0.0000 |       0.0000 |       0.0000 |
dtlb.accesses                               141081 |       141081 |       141081 |       141081 |       294261 |       294261 |       294261 |       294261 |       621806 |       621806 |       621806 |       621806 |      1309180 |      1309180 |      1309180 |      1309180 |      2764230 |      2764230 |      2764230 |      2764230 |      5842634 |      5842634 |      5842634 |      5842634 |     12142053 |     12142053 |     12142053 |     12142053 |     25423170 |     25423170 |     25423170 |     25423170 |     53596219 |     53596219 |     53596219 |     53596219 |    110473905 |    110473905 |    110473905 |    110473905 |    231446391 |    231446391 |    231446391 |    231446391 |
dtlb.hits                                   141069 |       141069 |       141069 |       141069 |       294245 |       294245 |       294245 |       294245 |       621782 |       621782 |       621782 |       621782 |      1309140 |      1309140 |      1309140 |      1309140 |      2764158 |      2764158 |      2764158 |      2764158 |      5842461 |      5842461 |      5842461 |      5842461 |     12141085 |     12141085 |     12141085 |     12141085 |     25420483 |     25420483 |     25420483 |     25420483 |     53588934 |     53588934 |     53588934 |     53588934 |    110458255 |    110458255 |    110458255 |    110458255 |    231408375 |    231408375 |    231408375 |    231408375 |
dtlb.misses                                     12 |           12 |           12 |           12 |           16 |           16 |           16 |           16 |           24 |           24 |           24 |           24 |           40 |           40 |           40 |           40 |           72 |           72 |           72 |           72 |          173 |          173 |          173 |          173 |          968 |          968 |          968 |          968 |         2687 |         2687 |         2687 |         2687 |         7285 |         7285 |         7285 |         7285 |        15650 |        15650 |        15650 |        15650 |        38016 |        38016 |        38016 |        38016 |
dtlb.replacements                                0 |            0 |            0 |            0 |            0 |            0 |            0 |            0 |            0 |            0 |            0 |            0 |            0 |            0 |            0 |            0 |            0 |            0 |            0 |            0 |           45 |           45 |           45 |           45 |          840 |          840 |          840 |          840 |         2559 |         2559 |         2559 |         2559 |         7157 |         7157 |         7157 |         7157 |        15522 |        15522 |        15522 |        15522 |        37888 |        37888 |        37888 |        37888 |
dtlb.writebacks                                  0 |            0 |            0 |            0 |            0 |            0 |            0 |            0 |            0 |            0 |            0 |            0 |            0 |            0 |            0 |            0 |            0 |            0 |            0 |            0 |           43 |           43 |           43 |           43 |          838 |          838 |          838 |          838 |         2557 |         2557 |         2557 |         2557 |         7154 |         7154 |         7154 |         7154 |        15520 |        15520 |        15520 |        15520 |        37886 |        37886 |        37886 |        37886 |
dtlb.invalidations                               0 |            0 |            0 |            0 |            0 |            0 |            0 |            0 |            0 |            0 |            0 |            0 |            0 |            0 |            0 |            0 |            0 |            0 |            0 |            0 |            0 |            0 |            0 |            0 |            0 |            0 |            0 |            0 |            0 |            0 |            0 |            0 |            0 |            0 |            0 |            0 |            0 |            0 |            0 |            0 |            0 |            0 |            0 |            0 |
dtlb.miss_rate                              0.0001 |       0.0001 |       0.0001 |       0.0001 |       0.0001 |       0.0001 |       0.0001 |       0.0001 |       0.0000 |       0.0000 |       0.0000 |       0.0000 |       0.0000 |       0.0000 |       0.0000 |       0.0000 |       0.0000 |       0.0000 |       0.0000 |       0.0000 |       0.0000 |       0.0000 |       0.0000 |       0.0000 |       0.0001 |       0.0001 |       0.0001 |       0.0001 |       0.0001 |       0.0001 |       0.0001 |       0.0001 |       0.0001 |       0.0001 |       0.0001 |       0.0001 |       0.0001 |       0.0001 |       0.0001 |       0.0001 |       0.0002 |       0.0002 |       0.0002 |       0.0002 |
dtlb.repl_rate                              0.0000 |       0.0000 |       0.0000 |       0.0000 |       0.0000 |       0.0000 |       0.0000 |       0.0000 |       0.0000 |       0.0000 |       0.0000 |       0.0000 |       0.0000 |       0.0000 |       0.0000 |       0.0000 |       0.0000 |       0.0000 |       0.0000 |       0.0000 |       0.0000 |       0.0000 |       0.0000 |       0.0000 |       0.0001 |       0.0001 |       0.0001 |       0.0001 |       0.0001 |       0.0001 |       0.0001 |       0.0001 |       0.0001 |       0.0001 |       0.0001 |       0.0001 |       0.0001 |       0.0001 |       0.0001 |       0.0001 |       0.0002 |       0.0002 |       0.0002 |       0.0002 |
dtlb.wb_rate                                0.0000 |       0.0000 |       0.0000 |       0.0000 |       0.0000 |       0.0000 |       0.0000 |       0.0000 |       0.0000 |       0.0000 |       0.0000 |       0.0000 |       0.0000 |       0.0000 |       0.0000 |       0.0000 |       0.0000 |       0.0000 |       0.0000 |       0.0000 |       0.0000 |       0.0000 |       0.0000 |       0.0000 |       0.0001 |       0.0001 |       0.0001 |       0.0001 |       0.0001 |       0.0001 |       0.0001 |       0.0001 |       0.0001 |       0.0001 |       0.0001 |       0.0001 |       0.0001 |       0.0001 |       0.0001 |       0.0001 |       0.0002 |       0.0002 |       0.0002 |       0.0002 |
dtlb.inv_rate                               0.0000 |       0.0000 |       0.0000 |       0.0000 |       0.0000 |       0.0000 |       0.0000 |       0.0000 |       0.0000 |       0.0000 |       0.0000 |       0.0000 |       0.0000 |       0.0000 |       0.0000 |       0.0000 |       0.0000 |       0.0000 |       0.0000 |       0.0000 |       0.0000 |       0.0000 |       0.0000 |       0.0000 |       0.0000 |       0.0000 |       0.0000 |       0.0000 |       0.0000 |       0.0000 |       0.0000 |       0.0000 |       0.0000 |       0.0000 |       0.0000 |       0.0000 |       0.0000 |       0.0000 |       0.0000 |       0.0000 |       0.0000 |       0.0000 |       0.0000 |       0.0000 |
ld_text_base                            0x00400000 |   0x00400000 |   0x00400000 |   0x00400000 |   0x00400000 |   0x00400000 |   0x00400000 |   0x00400000 |   0x00400000 |   0x00400000 |   0x00400000 |   0x00400000 |   0x00400000 |   0x00400000 |   0x00400000 |   0x00400000 |   0x00400000 |   0x00400000 |   0x00400000 |   0x00400000 |   0x00400000 |   0x00400000 |   0x00400000 |   0x00400000 |   0x00400000 |   0x00400000 |   0x00400000 |   0x00400000 |   0x00400000 |   0x00400000 |   0x00400000 |   0x00400000 |   0x00400000 |   0x00400000 |   0x00400000 |   0x00400000 |   0x00400000 |   0x00400000 |   0x00400000 |   0x00400000 |   0x00400000 |   0x00400000 |   0x00400000 |   0x00400000 |
ld_text_size                                 73456 |        73456 |        73456 |        73456 |        73488 |        73488 |        73488 |        73488 |        73504 |        73504 |        73504 |        73504 |        73520 |        73520 |        73520 |        73520 |        73520 |        73520 |        73520 |        73520 |        73520 |        73520 |        73520 |        73520 |        73520 |        73520 |        73520 |        73520 |        73520 |        73520 |        73520 |        73520 |        73520 |        73520 |        73520 |        73520 |        73520 |        73520 |        73520 |        73520 |        73520 |        73520 |        73520 |        73520 |
ld_data_base                            0x10000000 |   0x10000000 |   0x10000000 |   0x10000000 |   0x10000000 |   0x10000000 |   0x10000000 |   0x10000000 |   0x10000000 |   0x10000000 |   0x10000000 |   0x10000000 |   0x10000000 |   0x10000000 |   0x10000000 |   0x10000000 |   0x10000000 |   0x10000000 |   0x10000000 |   0x10000000 |   0x10000000 |   0x10000000 |   0x10000000 |   0x10000000 |   0x10000000 |   0x10000000 |   0x10000000 |   0x10000000 |   0x10000000 |   0x10000000 |   0x10000000 |   0x10000000 |   0x10000000 |   0x10000000 |   0x10000000 |   0x10000000 |   0x10000000 |   0x10000000 |   0x10000000 |   0x10000000 |   0x10000000 |   0x10000000 |   0x10000000 |   0x10000000 |
ld_data_size                                  8192 |         8192 |         8192 |         8192 |         8192 |         8192 |         8192 |         8192 |         8192 |         8192 |         8192 |         8192 |         8192 |         8192 |         8192 |         8192 |         8192 |         8192 |         8192 |         8192 |         8192 |         8192 |         8192 |         8192 |         8192 |         8192 |         8192 |         8192 |         8192 |         8192 |         8192 |         8192 |         8192 |         8192 |         8192 |         8192 |         8192 |         8192 |         8192 |         8192 |         8192 |         8192 |         8192 |         8192 |
ld_stack_base                           0x7fffc000 |   0x7fffc000 |   0x7fffc000 |   0x7fffc000 |   0x7fffc000 |   0x7fffc000 |   0x7fffc000 |   0x7fffc000 |   0x7fffc000 |   0x7fffc000 |   0x7fffc000 |   0x7fffc000 |   0x7fffc000 |   0x7fffc000 |   0x7fffc000 |   0x7fffc000 |   0x7fffc000 |   0x7fffc000 |   0x7fffc000 |   0x7fffc000 |   0x7fffc000 |   0x7fffc000 |   0x7fffc000 |   0x7fffc000 |   0x7fffc000 |   0x7fffc000 |   0x7fffc000 |   0x7fffc000 |   0x7fffc000 |   0x7fffc000 |   0x7fffc000 |   0x7fffc000 |   0x7fffc000 |   0x7fffc000 |   0x7fffc000 |   0x7fffc000 |   0x7fffc000 |   0x7fffc000 |   0x7fffc000 |   0x7fffc000 |   0x7fffc000 |   0x7fffc000 |   0x7fffc000 |   0x7fffc000 |
ld_stack_size                                16384 |        16384 |        16384 |        16384 |        16384 |        16384 |        16384 |        16384 |        16384 |        16384 |        16384 |        16384 |        16384 |        16384 |        16384 |        16384 |        16384 |        16384 |        16384 |        16384 |        16384 |        16384 |        16384 |        16384 |        16384 |        16384 |        16384 |        16384 |        16384 |        16384 |        16384 |        16384 |        16384 |        16384 |        16384 |        16384 |        16384 |        16384 |        16384 |        16384 |        16384 |        16384 |        16384 |        16384 |
ld_prog_entry                           0x00400140 |   0x00400140 |   0x00400140 |   0x00400140 |   0x00400140 |   0x00400140 |   0x00400140 |   0x00400140 |   0x00400140 |   0x00400140 |   0x00400140 |   0x00400140 |   0x00400140 |   0x00400140 |   0x00400140 |   0x00400140 |   0x00400140 |   0x00400140 |   0x00400140 |   0x00400140 |   0x00400140 |   0x00400140 |   0x00400140 |   0x00400140 |   0x00400140 |   0x00400140 |   0x00400140 |   0x00400140 |   0x00400140 |   0x00400140 |   0x00400140 |   0x00400140 |   0x00400140 |   0x00400140 |   0x00400140 |   0x00400140 |   0x00400140 |   0x00400140 |   0x00400140 |   0x00400140 |   0x00400140 |   0x00400140 |   0x00400140 |   0x00400140 |
ld_environ_base                         0x7fff8000 |   0x7fff8000 |   0x7fff8000 |   0x7fff8000 |   0x7fff8000 |   0x7fff8000 |   0x7fff8000 |   0x7fff8000 |   0x7fff8000 |   0x7fff8000 |   0x7fff8000 |   0x7fff8000 |   0x7fff8000 |   0x7fff8000 |   0x7fff8000 |   0x7fff8000 |   0x7fff8000 |   0x7fff8000 |   0x7fff8000 |   0x7fff8000 |   0x7fff8000 |   0x7fff8000 |   0x7fff8000 |   0x7fff8000 |   0x7fff8000 |   0x7fff8000 |   0x7fff8000 |   0x7fff8000 |   0x7fff8000 |   0x7fff8000 |   0x7fff8000 |   0x7fff8000 |   0x7fff8000 |   0x7fff8000 |   0x7fff8000 |   0x7fff8000 |   0x7fff8000 |   0x7fff8000 |   0x7fff8000 |   0x7fff8000 |   0x7fff8000 |   0x7fff8000 |   0x7fff8000 |   0x7fff8000 |
ld_target_big_endian                             0 |            0 |            0 |            0 |            0 |            0 |            0 |            0 |            0 |            0 |            0 |            0 |            0 |            0 |            0 |            0 |            0 |            0 |            0 |            0 |            0 |            0 |            0 |            0 |            0 |            0 |            0 |            0 |            0 |            0 |            0 |            0 |            0 |            0 |            0 |            0 |            0 |            0 |            0 |            0 |            0 |            0 |            0 |            0 |
mem.page_count                                  30 |           30 |           30 |           30 |           34 |           34 |           34 |           34 |           42 |           42 |           42 |           42 |           58 |           58 |           58 |           58 |           90 |           90 |           90 |           90 |          154 |          154 |          154 |          154 |          282 |          282 |          282 |          282 |          538 |          538 |          538 |          538 |         1050 |         1050 |         1050 |         1050 |         2074 |         2074 |         2074 |         2074 |         4122 |         4122 |         4122 |         4122 |
mem.page_mem                                  120k |         120k |         120k |         120k |         136k |         136k |         136k |         136k |         168k |         168k |         168k |         168k |         232k |         232k |         232k |         232k |         360k |         360k |         360k |         360k |         616k |         616k |         616k |         616k |        1128k |        1128k |        1128k |        1128k |        2152k |        2152k |        2152k |        2152k |        4200k |        4200k |        4200k |        4200k |        8296k |        8296k |        8296k |        8296k |       16488k |       16488k |       16488k |       16488k |
mem.ptab_misses                                 30 |           30 |           30 |           30 |           34 |           34 |           34 |           34 |           42 |           42 |           42 |           42 |           58 |           58 |           58 |           58 |           90 |           90 |           90 |           90 |          154 |          154 |          154 |          154 |          282 |          282 |          282 |          282 |          538 |          538 |          538 |          538 |         1050 |         1050 |         1050 |         1050 |         2074 |         2074 |         2074 |         2074 |         4122 |         4122 |         4122 |         4122 |
mem.ptab_accesses                          2616262 |      2616262 |      2616262 |      2616262 |      5023118 |      5023118 |      5023118 |      5023118 |     10313312 |     10313312 |     10313312 |     10313312 |     21473612 |     21473612 |     21473612 |     21473612 |     45348092 |     45348092 |     45348092 |     45348092 |     96841884 |     96841884 |     96841884 |     96841884 |    201007718 |    201007718 |    201007718 |    201007718 |    423789936 |    423789936 |    423789936 |    423789936 |    905738102 |    905738102 |    905738102 |    905738102 |   1861166938 |   1861166938 |   1861166938 |   1861166938 |   3937194494 |   3937194494 |   3937194494 |   3937194494 |
mem.ptab_miss_rate                          0.0000 |       0.0000 |       0.0000 |       0.0000 |       0.0000 |       0.0000 |       0.0000 |       0.0000 |       0.0000 |       0.0000 |       0.0000 |       0.0000 |       0.0000 |       0.0000 |       0.0000 |       0.0000 |       0.0000 |       0.0000 |       0.0000 |       0.0000 |       0.0000 |       0.0000 |       0.0000 |       0.0000 |       0.0000 |       0.0000 |       0.0000 |       0.0000 |       0.0000 |       0.0000 |       0.0000 |       0.0000 |       0.0000 |       0.0000 |       0.0000 |       0.0000 |       0.0000 |       0.0000 |       0.0000 |       0.0000 |       0.0000 |       0.0000 |       0.0000 |       0.0000 |
-------------------------------------------------------------------------------------------------
sim-bpred                                     4096 |         4096 |         4096 |         4096 |         4096 |         4096 |         4096 |         8192 |         8192 |         8192 |         8192 |         8192 |         8192 |         8192 |        16384 |        16384 |        16384 |        16384 |        16384 |        16384 |        16384 |        32768 |        32768 |        32768 |        32768 |        32768 |        32768 |        32768 |        65536 |        65536 |        65536 |        65536 |        65536 |        65536 |        65536 |       131072 |       131072 |       131072 |       131072 |       131072 |       131072 |       131072 |       262144 |       262144 |       262144 |       262144 |       262144 |       262144 |       262144 |       524288 |       524288 |       524288 |       524288 |       524288 |       524288 |       524288 |      1048576 |      1048576 |      1048576 |      1048576 |      1048576 |      1048576 |      1048576 |      2097152 |      2097152 |      2097152 |      2097152 |      2097152 |      2097152 |      2097152 |      4194304 |      4194304 |      4194304 |      4194304 |      4194304 |      4194304 |      4194304 |
-bpred bimod -bpred:bimod 512
-bpred bimod -bpred:bimod 1024
-bpred bimod -bpred:bimod 2048
-bpred 2lev -bpred:2lev 1 512 10 1
-bpred 2lev -bpred:2lev 1 1024 10 1
-bpred 2lev -bpred:2lev 1 2048 10 1
-bpred 2lev -bpred:2lev 1 4096 10 1
-------------------------------------------------------------------------------------------------
sim_num_insn                                469686 |       469686 |       469686 |       469686 |       469686 |       469686 |       469686 |       994762 |       994762 |       994762 |       994762 |       994762 |       994762 |       994762 |      2153514 |      2153514 |      2153514 |      2153514 |      2153514 |      2153514 |      2153514 |      4599878 |      4599878 |      4599878 |      4599878 |      4599878 |      4599878 |      4599878 |      9840973 |      9840973 |      9840973 |      9840973 |      9840973 |      9840973 |      9840973 |     21175219 |     21175219 |     21175219 |     21175219 |     21175219 |     21175219 |     21175219 |     44066968 |     44066968 |     44066968 |     44066968 |     44066968 |     44066968 |     44066968 |     93121964 |     93121964 |     93121964 |     93121964 |     93121964 |     93121964 |     93121964 |    199522481 |    199522481 |    199522481 |    199522481 |    199522481 |    199522481 |    199522481 |    409940847 |    409940847 |    409940847 |    409940847 |    409940847 |    409940847 |    409940847 |    868461493 |    868461493 |    868461493 |    868461493 |    868461493 |    868461493 |    868461493 |
sim_num_refs                                124615 |       124615 |       124615 |       124615 |       124615 |       124615 |       124615 |       261411 |       261411 |       261411 |       261411 |       261411 |       261411 |       261411 |       556188 |       556188 |       556188 |       556188 |       556188 |       556188 |       556188 |      1178026 |      1178026 |      1178026 |      1178026 |      1178026 |      1178026 |      1178026 |      2502004 |      2502004 |      2502004 |      2502004 |      2502004 |      2502004 |      2502004 |      5318264 |      5318264 |      5318264 |      5318264 |      5318264 |      5318264 |      5318264 |     11093395 |     11093395 |     11093395 |     11093395 |     11093395 |     11093395 |     11093395 |     23325936 |     23325936 |     23325936 |     23325936 |     23325936 |     23325936 |     23325936 |     49401833 |     49401833 |     49401833 |     49401833 |     49401833 |     49401833 |     49401833 |    102085215 |    102085215 |    102085215 |    102085215 |    102085215 |    102085215 |    102085215 |    214669093 |    214669093 |    214669093 |    214669093 |    214669093 |    214669093 |    214669093 |
sim_elapsed_time                                 1 |            1 |            1 |            1 |            1 |            1 |            1 |            1 |            1 |            1 |            1 |            1 |            1 |            1 |            1 |            1 |            1 |            1 |            1 |            1 |            1 |            1 |            1 |            1 |            1 |            1 |            1 |            1 |            1 |            1 |            1 |            1 |            1 |            1 |            1 |            3 |            3 |            2 |            3 |            2 |            3 |            2 |            5 |            6 |            5 |            5 |            6 |            5 |            6 |           11 |           11 |           11 |           12 |           11 |           11 |           12 |           24 |           24 |           24 |           24 |           24 |           24 |           25 |           49 |           49 |           50 |           49 |           50 |           50 |           50 |          104 |          104 |          104 |          105 |          105 |          105 |          106 |
sim_inst_rate                          469686.0000 |  469686.0000 |  469686.0000 |  469686.0000 |  469686.0000 |  469686.0000 |  469686.0000 |  994762.0000 |  994762.0000 |  994762.0000 |  994762.0000 |  994762.0000 |  994762.0000 |  994762.0000 | 2153514.0000 | 2153514.0000 | 2153514.0000 | 2153514.0000 | 2153514.0000 | 2153514.0000 | 2153514.0000 | 4599878.0000 | 4599878.0000 | 4599878.0000 | 4599878.0000 | 4599878.0000 | 4599878.0000 | 4599878.0000 | 9840973.0000 | 9840973.0000 | 9840973.0000 | 9840973.0000 | 9840973.0000 | 9840973.0000 | 9840973.0000 | 7058406.3333 | 7058406.3333 |10587609.5000 | 7058406.3333 |10587609.5000 | 7058406.3333 |10587609.5000 | 8813393.6000 | 7344494.6667 | 8813393.6000 | 8813393.6000 | 7344494.6667 | 8813393.6000 | 7344494.6667 | 8465633.0909 | 8465633.0909 | 8465633.0909 | 7760163.6667 | 8465633.0909 | 8465633.0909 | 7760163.6667 | 8313436.7083 | 8313436.7083 | 8313436.7083 | 8313436.7083 | 8313436.7083 | 8313436.7083 | 7980899.2400 | 8366139.7347 | 8366139.7347 | 8198816.9400 | 8366139.7347 | 8198816.9400 | 8198816.9400 | 8198816.9400 | 8350591.2788 | 8350591.2788 | 8350591.2788 | 8271061.8381 | 8271061.8381 | 8271061.8381 | 8193032.9528 |
sim_num_branches                             76401 |        76401 |        76401 |        76401 |        76401 |        76401 |        76401 |       163414 |       163414 |       163414 |       163414 |       163414 |       163414 |       163414 |       356169 |       356169 |       356169 |       356169 |       356169 |       356169 |       356169 |       764770 |       764770 |       764770 |       764770 |       764770 |       764770 |       764770 |      1645369 |      1645369 |      1645369 |      1645369 |      1645369 |      1645369 |      1645369 |      3551818 |      3551818 |      3551818 |      3551818 |      3551818 |      3551818 |      3551818 |      7427022 |      7427022 |      7427022 |      7427022 |      7427022 |      7427022 |      7427022 |     15749912 |     15749912 |     15749912 |     15749912 |     15749912 |     15749912 |     15749912 |     33802894 |     33802894 |     33802894 |     33802894 |     33802894 |     33802894 |     33802894 |     69720435 |     69720435 |     69720435 |     69720435 |     69720435 |     69720435 |     69720435 |    148086552 |    148086552 |    148086552 |    148086552 |    148086552 |    148086552 |    148086552 |
sim_IPB                                     6.1476 |       6.1476 |       6.1476 |       6.1476 |       6.1476 |       6.1476 |       6.1476 |       6.0874 |       6.0874 |       6.0874 |       6.0874 |       6.0874 |       6.0874 |       6.0874 |       6.0463 |       6.0463 |       6.0463 |       6.0463 |       6.0463 |       6.0463 |       6.0463 |       6.0147 |       6.0147 |       6.0147 |       6.0147 |       6.0147 |       6.0147 |       6.0147 |       5.9810 |       5.9810 |       5.9810 |       5.9810 |       5.9810 |       5.9810 |       5.9810 |       5.9618 |       5.9618 |       5.9618 |       5.9618 |       5.9618 |       5.9618 |       5.9618 |       5.9333 |       5.9333 |       5.9333 |       5.9333 |       5.9333 |       5.9333 |       5.9333 |       5.9125 |       5.9125 |       5.9125 |       5.9125 |       5.9125 |       5.9125 |       5.9125 |       5.9025 |       5.9025 |       5.9025 |       5.9025 |       5.9025 |       5.9025 |       5.9025 |       5.8798 |       5.8798 |       5.8798 |       5.8798 |       5.8798 |       5.8798 |       5.8798 |       5.8646 |       5.8646 |       5.8646 |       5.8646 |       5.8646 |       5.8646 |       5.8646 |
bpred_bimod.lookups                          76401 |        76401 |        76401 |xxxxxxxxxxxxx |xxxxxxxxxxxxx |xxxxxxxxxxxxx |xxxxxxxxxxxxx |       163414 |       163414 |       163414 |xxxxxxxxxxxxx |xxxxxxxxxxxxx |xxxxxxxxxxxxx |xxxxxxxxxxxxx |       356169 |       356169 |       356169 |xxxxxxxxxxxxx |xxxxxxxxxxxxx |xxxxxxxxxxxxx |xxxxxxxxxxxxx |       764770 |       764770 |       764770 |xxxxxxxxxxxxx |xxxxxxxxxxxxx |xxxxxxxxxxxxx |xxxxxxxxxxxxx |      1645369 |      1645369 |      1645369 |xxxxxxxxxxxxx |xxxxxxxxxxxxx |xxxxxxxxxxxxx |xxxxxxxxxxxxx |      3551818 |      3551818 |      3551818 |xxxxxxxxxxxxx |xxxxxxxxxxxxx |xxxxxxxxxxxxx |xxxxxxxxxxxxx |      7427022 |      7427022 |      7427022 |xxxxxxxxxxxxx |xxxxxxxxxxxxx |xxxxxxxxxxxxx |xxxxxxxxxxxxx |     15749912 |     15749912 |     15749912 |xxxxxxxxxxxxx |xxxxxxxxxxxxx |xxxxxxxxxxxxx |xxxxxxxxxxxxx |     33802894 |     33802894 |     33802894 |xxxxxxxxxxxxx |xxxxxxxxxxxxx |xxxxxxxxxxxxx |xxxxxxxxxxxxx |     69720435 |     69720435 |     69720435 |xxxxxxxxxxxxx |xxxxxxxxxxxxx |xxxxxxxxxxxxx |xxxxxxxxxxxxx |    148086552 |    148086552 |    148086552 |
bpred_bimod.updates                          76401 |        76401 |        76401 |xxxxxxxxxxxxx |xxxxxxxxxxxxx |xxxxxxxxxxxxx |xxxxxxxxxxxxx |       163414 |       163414 |       163414 |xxxxxxxxxxxxx |xxxxxxxxxxxxx |xxxxxxxxxxxxx |xxxxxxxxxxxxx |       356169 |       356169 |       356169 |xxxxxxxxxxxxx |xxxxxxxxxxxxx |xxxxxxxxxxxxx |xxxxxxxxxxxxx |       764770 |       764770 |       764770 |xxxxxxxxxxxxx |xxxxxxxxxxxxx |xxxxxxxxxxxxx |xxxxxxxxxxxxx |      1645369 |      1645369 |      1645369 |xxxxxxxxxxxxx |xxxxxxxxxxxxx |xxxxxxxxxxxxx |xxxxxxxxxxxxx |      3551818 |      3551818 |      3551818 |xxxxxxxxxxxxx |xxxxxxxxxxxxx |xxxxxxxxxxxxx |xxxxxxxxxxxxx |      7427022 |      7427022 |      7427022 |xxxxxxxxxxxxx |xxxxxxxxxxxxx |xxxxxxxxxxxxx |xxxxxxxxxxxxx |     15749912 |     15749912 |     15749912 |xxxxxxxxxxxxx |xxxxxxxxxxxxx |xxxxxxxxxxxxx |xxxxxxxxxxxxx |     33802894 |     33802894 |     33802894 |xxxxxxxxxxxxx |xxxxxxxxxxxxx |xxxxxxxxxxxxx |xxxxxxxxxxxxx |     69720435 |     69720435 |     69720435 |xxxxxxxxxxxxx |xxxxxxxxxxxxx |xxxxxxxxxxxxx |xxxxxxxxxxxxx |    148086552 |    148086552 |    148086552 |
bpred_bimod.addr_hits                        54305 |        54306 |        54309 |xxxxxxxxxxxxx |xxxxxxxxxxxxx |xxxxxxxxxxxxx |xxxxxxxxxxxxx |       115161 |       115163 |       115166 |xxxxxxxxxxxxx |xxxxxxxxxxxxx |xxxxxxxxxxxxx |xxxxxxxxxxxxx |       254409 |       254413 |       254416 |xxxxxxxxxxxxx |xxxxxxxxxxxxx |xxxxxxxxxxxxx |xxxxxxxxxxxxx |       545469 |       545470 |       545470 |xxxxxxxxxxxxx |xxxxxxxxxxxxx |xxxxxxxxxxxxx |xxxxxxxxxxxxx |      1188039 |      1188040 |      1188040 |xxxxxxxxxxxxx |xxxxxxxxxxxxx |xxxxxxxxxxxxx |xxxxxxxxxxxxx |      2584245 |      2584246 |      2584246 |xxxxxxxxxxxxx |xxxxxxxxxxxxx |xxxxxxxxxxxxx |xxxxxxxxxxxxx |      5364965 |      5364966 |      5364966 |xxxxxxxxxxxxx |xxxxxxxxxxxxx |xxxxxxxxxxxxx |xxxxxxxxxxxxx |     11424286 |     11424287 |     11424287 |xxxxxxxxxxxxx |xxxxxxxxxxxxx |xxxxxxxxxxxxx |xxxxxxxxxxxxx |     24780407 |     24780408 |     24780408 |xxxxxxxxxxxxx |xxxxxxxxxxxxx |xxxxxxxxxxxxx |xxxxxxxxxxxxx |     50285823 |     50285824 |     50285824 |xxxxxxxxxxxxx |xxxxxxxxxxxxx |xxxxxxxxxxxxx |xxxxxxxxxxxxx |    107689840 |    107689841 |    107689841 |
bpred_bimod.dir_hits                         54416 |        54413 |        54416 |xxxxxxxxxxxxx |xxxxxxxxxxxxx |xxxxxxxxxxxxx |xxxxxxxxxxxxx |       115273 |       115273 |       115275 |xxxxxxxxxxxxx |xxxxxxxxxxxxx |xxxxxxxxxxxxx |xxxxxxxxxxxxx |       254519 |       254521 |       254524 |xxxxxxxxxxxxx |xxxxxxxxxxxxx |xxxxxxxxxxxxx |xxxxxxxxxxxxx |       545579 |       545577 |       545576 |xxxxxxxxxxxxx |xxxxxxxxxxxxx |xxxxxxxxxxxxx |xxxxxxxxxxxxx |      1188151 |      1188149 |      1188148 |xxxxxxxxxxxxx |xxxxxxxxxxxxx |xxxxxxxxxxxxx |xxxxxxxxxxxxx |      2584357 |      2584355 |      2584354 |xxxxxxxxxxxxx |xxxxxxxxxxxxx |xxxxxxxxxxxxx |xxxxxxxxxxxxx |      5365077 |      5365075 |      5365074 |xxxxxxxxxxxxx |xxxxxxxxxxxxx |xxxxxxxxxxxxx |xxxxxxxxxxxxx |     11424397 |     11424395 |     11424394 |xxxxxxxxxxxxx |xxxxxxxxxxxxx |xxxxxxxxxxxxx |xxxxxxxxxxxxx |     24780519 |     24780517 |     24780516 |xxxxxxxxxxxxx |xxxxxxxxxxxxx |xxxxxxxxxxxxx |xxxxxxxxxxxxx |     50285937 |     50285935 |     50285934 |xxxxxxxxxxxxx |xxxxxxxxxxxxx |xxxxxxxxxxxxx |xxxxxxxxxxxxx |    107689952 |    107689950 |    107689949 |
bpred_bimod.misses                           21985 |        21988 |        21985 |xxxxxxxxxxxxx |xxxxxxxxxxxxx |xxxxxxxxxxxxx |xxxxxxxxxxxxx |        48141 |        48141 |        48139 |xxxxxxxxxxxxx |xxxxxxxxxxxxx |xxxxxxxxxxxxx |xxxxxxxxxxxxx |       101650 |       101648 |       101645 |xxxxxxxxxxxxx |xxxxxxxxxxxxx |xxxxxxxxxxxxx |xxxxxxxxxxxxx |       219191 |       219193 |       219194 |xxxxxxxxxxxxx |xxxxxxxxxxxxx |xxxxxxxxxxxxx |xxxxxxxxxxxxx |       457218 |       457220 |       457221 |xxxxxxxxxxxxx |xxxxxxxxxxxxx |xxxxxxxxxxxxx |xxxxxxxxxxxxx |       967461 |       967463 |       967464 |xxxxxxxxxxxxx |xxxxxxxxxxxxx |xxxxxxxxxxxxx |xxxxxxxxxxxxx |      2061945 |      2061947 |      2061948 |xxxxxxxxxxxxx |xxxxxxxxxxxxx |xxxxxxxxxxxxx |xxxxxxxxxxxxx |      4325515 |      4325517 |      4325518 |xxxxxxxxxxxxx |xxxxxxxxxxxxx |xxxxxxxxxxxxx |xxxxxxxxxxxxx |      9022375 |      9022377 |      9022378 |xxxxxxxxxxxxx |xxxxxxxxxxxxx |xxxxxxxxxxxxx |xxxxxxxxxxxxx |     19434498 |     19434500 |     19434501 |xxxxxxxxxxxxx |xxxxxxxxxxxxx |xxxxxxxxxxxxx |xxxxxxxxxxxxx |     40396600 |     40396602 |     40396603 |
bpred_bimod.jr_hits                             64 |           64 |           64 |xxxxxxxxxxxxx |xxxxxxxxxxxxx |xxxxxxxxxxxxx |xxxxxxxxxxxxx |           64 |           64 |           64 |xxxxxxxxxxxxx |xxxxxxxxxxxxx |xxxxxxxxxxxxx |xxxxxxxxxxxxx |           64 |           64 |           64 |xxxxxxxxxxxxx |xxxxxxxxxxxxx |xxxxxxxxxxxxx |xxxxxxxxxxxxx |           64 |           64 |           64 |xxxxxxxxxxxxx |xxxxxxxxxxxxx |xxxxxxxxxxxxx |xxxxxxxxxxxxx |           64 |           64 |           64 |xxxxxxxxxxxxx |xxxxxxxxxxxxx |xxxxxxxxxxxxx |xxxxxxxxxxxxx |           64 |           64 |           64 |xxxxxxxxxxxxx |xxxxxxxxxxxxx |xxxxxxxxxxxxx |xxxxxxxxxxxxx |           64 |           64 |           64 |xxxxxxxxxxxxx |xxxxxxxxxxxxx |xxxxxxxxxxxxx |xxxxxxxxxxxxx |           64 |           64 |           64 |xxxxxxxxxxxxx |xxxxxxxxxxxxx |xxxxxxxxxxxxx |xxxxxxxxxxxxx |           64 |           64 |           64 |xxxxxxxxxxxxx |xxxxxxxxxxxxx |xxxxxxxxxxxxx |xxxxxxxxxxxxx |           64 |           64 |           64 |xxxxxxxxxxxxx |xxxxxxxxxxxxx |xxxxxxxxxxxxx |xxxxxxxxxxxxx |           64 |           64 |           64 |
bpred_bimod.jr_seen                             64 |           64 |           64 |xxxxxxxxxxxxx |xxxxxxxxxxxxx |xxxxxxxxxxxxx |xxxxxxxxxxxxx |           64 |           64 |           64 |xxxxxxxxxxxxx |xxxxxxxxxxxxx |xxxxxxxxxxxxx |xxxxxxxxxxxxx |           64 |           64 |           64 |xxxxxxxxxxxxx |xxxxxxxxxxxxx |xxxxxxxxxxxxx |xxxxxxxxxxxxx |           64 |           64 |           64 |xxxxxxxxxxxxx |xxxxxxxxxxxxx |xxxxxxxxxxxxx |xxxxxxxxxxxxx |           64 |           64 |           64 |xxxxxxxxxxxxx |xxxxxxxxxxxxx |xxxxxxxxxxxxx |xxxxxxxxxxxxx |           64 |           64 |           64 |xxxxxxxxxxxxx |xxxxxxxxxxxxx |xxxxxxxxxxxxx |xxxxxxxxxxxxx |           64 |           64 |           64 |xxxxxxxxxxxxx |xxxxxxxxxxxxx |xxxxxxxxxxxxx |xxxxxxxxxxxxx |           64 |           64 |           64 |xxxxxxxxxxxxx |xxxxxxxxxxxxx |xxxxxxxxxxxxx |xxxxxxxxxxxxx |           64 |           64 |           64 |xxxxxxxxxxxxx |xxxxxxxxxxxxx |xxxxxxxxxxxxx |xxxxxxxxxxxxx |           64 |           64 |           64 |xxxxxxxxxxxxx |xxxxxxxxxxxxx |xxxxxxxxxxxxx |xxxxxxxxxxxxx |           64 |           64 |           64 |
bpred_bimod.jr_non_ras_hits.PP                   0 |            0 |            0 |xxxxxxxxxxxxx |xxxxxxxxxxxxx |xxxxxxxxxxxxx |xxxxxxxxxxxxx |            0 |            0 |            0 |xxxxxxxxxxxxx |xxxxxxxxxxxxx |xxxxxxxxxxxxx |xxxxxxxxxxxxx |            0 |            0 |            0 |xxxxxxxxxxxxx |xxxxxxxxxxxxx |xxxxxxxxxxxxx |xxxxxxxxxxxxx |            0 |            0 |            0 |xxxxxxxxxxxxx |xxxxxxxxxxxxx |xxxxxxxxxxxxx |xxxxxxxxxxxxx |            0 |            0 |            0 |xxxxxxxxxxxxx |xxxxxxxxxxxxx |xxxxxxxxxxxxx |xxxxxxxxxxxxx |            0 |            0 |            0 |xxxxxxxxxxxxx |xxxxxxxxxxxxx |xxxxxxxxxxxxx |xxxxxxxxxxxxx |            0 |            0 |            0 |xxxxxxxxxxxxx |xxxxxxxxxxxxx |xxxxxxxxxxxxx |xxxxxxxxxxxxx |            0 |            0 |            0 |xxxxxxxxxxxxx |xxxxxxxxxxxxx |xxxxxxxxxxxxx |xxxxxxxxxxxxx |            0 |            0 |            0 |xxxxxxxxxxxxx |xxxxxxxxxxxxx |xxxxxxxxxxxxx |xxxxxxxxxxxxx |            0 |            0 |            0 |xxxxxxxxxxxxx |xxxxxxxxxxxxx |xxxxxxxxxxxxx |xxxxxxxxxxxxx |            0 |            0 |            0 |
bpred_bimod.jr_non_ras_seen.PP                   0 |            0 |            0 |xxxxxxxxxxxxx |xxxxxxxxxxxxx |xxxxxxxxxxxxx |xxxxxxxxxxxxx |            0 |            0 |            0 |xxxxxxxxxxxxx |xxxxxxxxxxxxx |xxxxxxxxxxxxx |xxxxxxxxxxxxx |            0 |            0 |            0 |xxxxxxxxxxxxx |xxxxxxxxxxxxx |xxxxxxxxxxxxx |xxxxxxxxxxxxx |            0 |            0 |            0 |xxxxxxxxxxxxx |xxxxxxxxxxxxx |xxxxxxxxxxxxx |xxxxxxxxxxxxx |            0 |            0 |            0 |xxxxxxxxxxxxx |xxxxxxxxxxxxx |xxxxxxxxxxxxx |xxxxxxxxxxxxx |            0 |            0 |            0 |xxxxxxxxxxxxx |xxxxxxxxxxxxx |xxxxxxxxxxxxx |xxxxxxxxxxxxx |            0 |            0 |            0 |xxxxxxxxxxxxx |xxxxxxxxxxxxx |xxxxxxxxxxxxx |xxxxxxxxxxxxx |            0 |            0 |            0 |xxxxxxxxxxxxx |xxxxxxxxxxxxx |xxxxxxxxxxxxx |xxxxxxxxxxxxx |            0 |            0 |            0 |xxxxxxxxxxxxx |xxxxxxxxxxxxx |xxxxxxxxxxxxx |xxxxxxxxxxxxx |            0 |            0 |            0 |xxxxxxxxxxxxx |xxxxxxxxxxxxx |xxxxxxxxxxxxx |xxxxxxxxxxxxx |            0 |            0 |            0 |
bpred_bimod.bpred_addr_rate                 0.7108 |       0.7108 |       0.7108 |xxxxxxxxxxxxx |xxxxxxxxxxxxx |xxxxxxxxxxxxx |xxxxxxxxxxxxx |       0.7047 |       0.7047 |       0.7047 |xxxxxxxxxxxxx |xxxxxxxxxxxxx |xxxxxxxxxxxxx |xxxxxxxxxxxxx |       0.7143 |       0.7143 |       0.7143 |xxxxxxxxxxxxx |xxxxxxxxxxxxx |xxxxxxxxxxxxx |xxxxxxxxxxxxx |       0.7132 |       0.7132 |       0.7132 |xxxxxxxxxxxxx |xxxxxxxxxxxxx |xxxxxxxxxxxxx |xxxxxxxxxxxxx |       0.7221 |       0.7221 |       0.7221 |xxxxxxxxxxxxx |xxxxxxxxxxxxx |xxxxxxxxxxxxx |xxxxxxxxxxxxx |       0.7276 |       0.7276 |       0.7276 |xxxxxxxxxxxxx |xxxxxxxxxxxxx |xxxxxxxxxxxxx |xxxxxxxxxxxxx |       0.7224 |       0.7224 |       0.7224 |xxxxxxxxxxxxx |xxxxxxxxxxxxx |xxxxxxxxxxxxx |xxxxxxxxxxxxx |       0.7254 |       0.7254 |       0.7254 |xxxxxxxxxxxxx |xxxxxxxxxxxxx |xxxxxxxxxxxxx |xxxxxxxxxxxxx |       0.7331 |       0.7331 |       0.7331 |xxxxxxxxxxxxx |xxxxxxxxxxxxx |xxxxxxxxxxxxx |xxxxxxxxxxxxx |       0.7212 |       0.7212 |       0.7212 |xxxxxxxxxxxxx |xxxxxxxxxxxxx |xxxxxxxxxxxxx |xxxxxxxxxxxxx |       0.7272 |       0.7272 |       0.7272 |
bpred_bimod.bpred_dir_rate                  0.7122 |       0.7122 |       0.7122 |xxxxxxxxxxxxx |xxxxxxxxxxxxx |xxxxxxxxxxxxx |xxxxxxxxxxxxx |       0.7054 |       0.7054 |       0.7054 |xxxxxxxxxxxxx |xxxxxxxxxxxxx |xxxxxxxxxxxxx |xxxxxxxxxxxxx |       0.7146 |       0.7146 |       0.7146 |xxxxxxxxxxxxx |xxxxxxxxxxxxx |xxxxxxxxxxxxx |xxxxxxxxxxxxx |       0.7134 |       0.7134 |       0.7134 |xxxxxxxxxxxxx |xxxxxxxxxxxxx |xxxxxxxxxxxxx |xxxxxxxxxxxxx |       0.7221 |       0.7221 |       0.7221 |xxxxxxxxxxxxx |xxxxxxxxxxxxx |xxxxxxxxxxxxx |xxxxxxxxxxxxx |       0.7276 |       0.7276 |       0.7276 |xxxxxxxxxxxxx |xxxxxxxxxxxxx |xxxxxxxxxxxxx |xxxxxxxxxxxxx |       0.7224 |       0.7224 |       0.7224 |xxxxxxxxxxxxx |xxxxxxxxxxxxx |xxxxxxxxxxxxx |xxxxxxxxxxxxx |       0.7254 |       0.7254 |       0.7254 |xxxxxxxxxxxxx |xxxxxxxxxxxxx |xxxxxxxxxxxxx |xxxxxxxxxxxxx |       0.7331 |       0.7331 |       0.7331 |xxxxxxxxxxxxx |xxxxxxxxxxxxx |xxxxxxxxxxxxx |xxxxxxxxxxxxx |       0.7213 |       0.7213 |       0.7213 |xxxxxxxxxxxxx |xxxxxxxxxxxxx |xxxxxxxxxxxxx |xxxxxxxxxxxxx |       0.7272 |       0.7272 |       0.7272 |
bpred_bimod.bpred_jr_rate                   1.0000 |       1.0000 |       1.0000 |xxxxxxxxxxxxx |xxxxxxxxxxxxx |xxxxxxxxxxxxx |xxxxxxxxxxxxx |       1.0000 |       1.0000 |       1.0000 |xxxxxxxxxxxxx |xxxxxxxxxxxxx |xxxxxxxxxxxxx |xxxxxxxxxxxxx |       1.0000 |       1.0000 |       1.0000 |xxxxxxxxxxxxx |xxxxxxxxxxxxx |xxxxxxxxxxxxx |xxxxxxxxxxxxx |       1.0000 |       1.0000 |       1.0000 |xxxxxxxxxxxxx |xxxxxxxxxxxxx |xxxxxxxxxxxxx |xxxxxxxxxxxxx |       1.0000 |       1.0000 |       1.0000 |xxxxxxxxxxxxx |xxxxxxxxxxxxx |xxxxxxxxxxxxx |xxxxxxxxxxxxx |       1.0000 |       1.0000 |       1.0000 |xxxxxxxxxxxxx |xxxxxxxxxxxxx |xxxxxxxxxxxxx |xxxxxxxxxxxxx |       1.0000 |       1.0000 |       1.0000 |xxxxxxxxxxxxx |xxxxxxxxxxxxx |xxxxxxxxxxxxx |xxxxxxxxxxxxx |       1.0000 |       1.0000 |       1.0000 |xxxxxxxxxxxxx |xxxxxxxxxxxxx |xxxxxxxxxxxxx |xxxxxxxxxxxxx |       1.0000 |       1.0000 |       1.0000 |xxxxxxxxxxxxx |xxxxxxxxxxxxx |xxxxxxxxxxxxx |xxxxxxxxxxxxx |       1.0000 |       1.0000 |       1.0000 |xxxxxxxxxxxxx |xxxxxxxxxxxxx |xxxxxxxxxxxxx |xxxxxxxxxxxxx |       1.0000 |       1.0000 |       1.0000 |
bpred_bimod.bpred_jr_non_ras_rate.PP       <error: |      <error: |      <error: |xxxxxxxxxxxxx |xxxxxxxxxxxxx |xxxxxxxxxxxxx |xxxxxxxxxxxxx |      <error: |      <error: |      <error: |xxxxxxxxxxxxx |xxxxxxxxxxxxx |xxxxxxxxxxxxx |xxxxxxxxxxxxx |      <error: |      <error: |      <error: |xxxxxxxxxxxxx |xxxxxxxxxxxxx |xxxxxxxxxxxxx |xxxxxxxxxxxxx |      <error: |      <error: |      <error: |xxxxxxxxxxxxx |xxxxxxxxxxxxx |xxxxxxxxxxxxx |xxxxxxxxxxxxx |      <error: |      <error: |      <error: |xxxxxxxxxxxxx |xxxxxxxxxxxxx |xxxxxxxxxxxxx |xxxxxxxxxxxxx |      <error: |      <error: |      <error: |xxxxxxxxxxxxx |xxxxxxxxxxxxx |xxxxxxxxxxxxx |xxxxxxxxxxxxx |      <error: |      <error: |      <error: |xxxxxxxxxxxxx |xxxxxxxxxxxxx |xxxxxxxxxxxxx |xxxxxxxxxxxxx |      <error: |      <error: |      <error: |xxxxxxxxxxxxx |xxxxxxxxxxxxx |xxxxxxxxxxxxx |xxxxxxxxxxxxx |      <error: |      <error: |      <error: |xxxxxxxxxxxxx |xxxxxxxxxxxxx |xxxxxxxxxxxxx |xxxxxxxxxxxxx |      <error: |      <error: |      <error: |xxxxxxxxxxxxx |xxxxxxxxxxxxx |xxxxxxxxxxxxx |xxxxxxxxxxxxx |      <error: |      <error: |      <error: |
bpred_bimod.retstack_pushes                     66 |           66 |           66 |xxxxxxxxxxxxx |xxxxxxxxxxxxx |xxxxxxxxxxxxx |xxxxxxxxxxxxx |           66 |           66 |           66 |xxxxxxxxxxxxx |xxxxxxxxxxxxx |xxxxxxxxxxxxx |xxxxxxxxxxxxx |           66 |           66 |           66 |xxxxxxxxxxxxx |xxxxxxxxxxxxx |xxxxxxxxxxxxx |xxxxxxxxxxxxx |           66 |           66 |           66 |xxxxxxxxxxxxx |xxxxxxxxxxxxx |xxxxxxxxxxxxx |xxxxxxxxxxxxx |           66 |           66 |           66 |xxxxxxxxxxxxx |xxxxxxxxxxxxx |xxxxxxxxxxxxx |xxxxxxxxxxxxx |           66 |           66 |           66 |xxxxxxxxxxxxx |xxxxxxxxxxxxx |xxxxxxxxxxxxx |xxxxxxxxxxxxx |           66 |           66 |           66 |xxxxxxxxxxxxx |xxxxxxxxxxxxx |xxxxxxxxxxxxx |xxxxxxxxxxxxx |           66 |           66 |           66 |xxxxxxxxxxxxx |xxxxxxxxxxxxx |xxxxxxxxxxxxx |xxxxxxxxxxxxx |           66 |           66 |           66 |xxxxxxxxxxxxx |xxxxxxxxxxxxx |xxxxxxxxxxxxx |xxxxxxxxxxxxx |           66 |           66 |           66 |xxxxxxxxxxxxx |xxxxxxxxxxxxx |xxxxxxxxxxxxx |xxxxxxxxxxxxx |           66 |           66 |           66 |
bpred_bimod.retstack_pops                       64 |           64 |           64 |xxxxxxxxxxxxx |xxxxxxxxxxxxx |xxxxxxxxxxxxx |xxxxxxxxxxxxx |           64 |           64 |           64 |xxxxxxxxxxxxx |xxxxxxxxxxxxx |xxxxxxxxxxxxx |xxxxxxxxxxxxx |           64 |           64 |           64 |xxxxxxxxxxxxx |xxxxxxxxxxxxx |xxxxxxxxxxxxx |xxxxxxxxxxxxx |           64 |           64 |           64 |xxxxxxxxxxxxx |xxxxxxxxxxxxx |xxxxxxxxxxxxx |xxxxxxxxxxxxx |           64 |           64 |           64 |xxxxxxxxxxxxx |xxxxxxxxxxxxx |xxxxxxxxxxxxx |xxxxxxxxxxxxx |           64 |           64 |           64 |xxxxxxxxxxxxx |xxxxxxxxxxxxx |xxxxxxxxxxxxx |xxxxxxxxxxxxx |           64 |           64 |           64 |xxxxxxxxxxxxx |xxxxxxxxxxxxx |xxxxxxxxxxxxx |xxxxxxxxxxxxx |           64 |           64 |           64 |xxxxxxxxxxxxx |xxxxxxxxxxxxx |xxxxxxxxxxxxx |xxxxxxxxxxxxx |           64 |           64 |           64 |xxxxxxxxxxxxx |xxxxxxxxxxxxx |xxxxxxxxxxxxx |xxxxxxxxxxxxx |           64 |           64 |           64 |xxxxxxxxxxxxx |xxxxxxxxxxxxx |xxxxxxxxxxxxx |xxxxxxxxxxxxx |           64 |           64 |           64 |
bpred_bimod.used_ras.PP                         64 |           64 |           64 |xxxxxxxxxxxxx |xxxxxxxxxxxxx |xxxxxxxxxxxxx |xxxxxxxxxxxxx |           64 |           64 |           64 |xxxxxxxxxxxxx |xxxxxxxxxxxxx |xxxxxxxxxxxxx |xxxxxxxxxxxxx |           64 |           64 |           64 |xxxxxxxxxxxxx |xxxxxxxxxxxxx |xxxxxxxxxxxxx |xxxxxxxxxxxxx |           64 |           64 |           64 |xxxxxxxxxxxxx |xxxxxxxxxxxxx |xxxxxxxxxxxxx |xxxxxxxxxxxxx |           64 |           64 |           64 |xxxxxxxxxxxxx |xxxxxxxxxxxxx |xxxxxxxxxxxxx |xxxxxxxxxxxxx |           64 |           64 |           64 |xxxxxxxxxxxxx |xxxxxxxxxxxxx |xxxxxxxxxxxxx |xxxxxxxxxxxxx |           64 |           64 |           64 |xxxxxxxxxxxxx |xxxxxxxxxxxxx |xxxxxxxxxxxxx |xxxxxxxxxxxxx |           64 |           64 |           64 |xxxxxxxxxxxxx |xxxxxxxxxxxxx |xxxxxxxxxxxxx |xxxxxxxxxxxxx |           64 |           64 |           64 |xxxxxxxxxxxxx |xxxxxxxxxxxxx |xxxxxxxxxxxxx |xxxxxxxxxxxxx |           64 |           64 |           64 |xxxxxxxxxxxxx |xxxxxxxxxxxxx |xxxxxxxxxxxxx |xxxxxxxxxxxxx |           64 |           64 |           64 |
bpred_bimod.ras_hits.PP                         64 |           64 |           64 |xxxxxxxxxxxxx |xxxxxxxxxxxxx |xxxxxxxxxxxxx |xxxxxxxxxxxxx |           64 |           64 |           64 |xxxxxxxxxxxxx |xxxxxxxxxxxxx |xxxxxxxxxxxxx |xxxxxxxxxxxxx |           64 |           64 |           64 |xxxxxxxxxxxxx |xxxxxxxxxxxxx |xxxxxxxxxxxxx |xxxxxxxxxxxxx |           64 |           64 |           64 |xxxxxxxxxxxxx |xxxxxxxxxxxxx |xxxxxxxxxxxxx |xxxxxxxxxxxxx |           64 |           64 |           64 |xxxxxxxxxxxxx |xxxxxxxxxxxxx |xxxxxxxxxxxxx |xxxxxxxxxxxxx |           64 |           64 |           64 |xxxxxxxxxxxxx |xxxxxxxxxxxxx |xxxxxxxxxxxxx |xxxxxxxxxxxxx |           64 |           64 |           64 |xxxxxxxxxxxxx |xxxxxxxxxxxxx |xxxxxxxxxxxxx |xxxxxxxxxxxxx |           64 |           64 |           64 |xxxxxxxxxxxxx |xxxxxxxxxxxxx |xxxxxxxxxxxxx |xxxxxxxxxxxxx |           64 |           64 |           64 |xxxxxxxxxxxxx |xxxxxxxxxxxxx |xxxxxxxxxxxxx |xxxxxxxxxxxxx |           64 |           64 |           64 |xxxxxxxxxxxxx |xxxxxxxxxxxxx |xxxxxxxxxxxxx |xxxxxxxxxxxxx |           64 |           64 |           64 |
bpred_bimod.ras_rate.PP                     1.0000 |       1.0000 |       1.0000 |xxxxxxxxxxxxx |xxxxxxxxxxxxx |xxxxxxxxxxxxx |xxxxxxxxxxxxx |       1.0000 |       1.0000 |       1.0000 |xxxxxxxxxxxxx |xxxxxxxxxxxxx |xxxxxxxxxxxxx |xxxxxxxxxxxxx |       1.0000 |       1.0000 |       1.0000 |xxxxxxxxxxxxx |xxxxxxxxxxxxx |xxxxxxxxxxxxx |xxxxxxxxxxxxx |       1.0000 |       1.0000 |       1.0000 |xxxxxxxxxxxxx |xxxxxxxxxxxxx |xxxxxxxxxxxxx |xxxxxxxxxxxxx |       1.0000 |       1.0000 |       1.0000 |xxxxxxxxxxxxx |xxxxxxxxxxxxx |xxxxxxxxxxxxx |xxxxxxxxxxxxx |       1.0000 |       1.0000 |       1.0000 |xxxxxxxxxxxxx |xxxxxxxxxxxxx |xxxxxxxxxxxxx |xxxxxxxxxxxxx |       1.0000 |       1.0000 |       1.0000 |xxxxxxxxxxxxx |xxxxxxxxxxxxx |xxxxxxxxxxxxx |xxxxxxxxxxxxx |       1.0000 |       1.0000 |       1.0000 |xxxxxxxxxxxxx |xxxxxxxxxxxxx |xxxxxxxxxxxxx |xxxxxxxxxxxxx |       1.0000 |       1.0000 |       1.0000 |xxxxxxxxxxxxx |xxxxxxxxxxxxx |xxxxxxxxxxxxx |xxxxxxxxxxxxx |       1.0000 |       1.0000 |       1.0000 |xxxxxxxxxxxxx |xxxxxxxxxxxxx |xxxxxxxxxxxxx |xxxxxxxxxxxxx |       1.0000 |       1.0000 |       1.0000 |
bpred_2lev.lookups                   xxxxxxxxxxxxx |xxxxxxxxxxxxx |xxxxxxxxxxxxx |        76401 |        76401 |        76401 |        76401 |xxxxxxxxxxxxx |xxxxxxxxxxxxx |xxxxxxxxxxxxx |       163414 |       163414 |       163414 |       163414 |xxxxxxxxxxxxx |xxxxxxxxxxxxx |xxxxxxxxxxxxx |       356169 |       356169 |       356169 |       356169 |xxxxxxxxxxxxx |xxxxxxxxxxxxx |xxxxxxxxxxxxx |       764770 |       764770 |       764770 |       764770 |xxxxxxxxxxxxx |xxxxxxxxxxxxx |xxxxxxxxxxxxx |      1645369 |      1645369 |      1645369 |      1645369 |xxxxxxxxxxxxx |xxxxxxxxxxxxx |xxxxxxxxxxxxx |      3551818 |      3551818 |      3551818 |      3551818 |xxxxxxxxxxxxx |xxxxxxxxxxxxx |xxxxxxxxxxxxx |      7427022 |      7427022 |      7427022 |      7427022 |xxxxxxxxxxxxx |xxxxxxxxxxxxx |xxxxxxxxxxxxx |     15749912 |     15749912 |     15749912 |     15749912 |xxxxxxxxxxxxx |xxxxxxxxxxxxx |xxxxxxxxxxxxx |     33802894 |     33802894 |     33802894 |     33802894 |xxxxxxxxxxxxx |xxxxxxxxxxxxx |xxxxxxxxxxxxx |     69720435 |     69720435 |     69720435 |     69720435 |xxxxxxxxxxxxx |xxxxxxxxxxxxx |xxxxxxxxxxxxx |    148086552 |    148086552 |    148086552 |    148086552 |
[...]
bpred_2lev.retstack_pushes           xxxxxxxxxxxxx |xxxxxxxxxxxxx |xxxxxxxxxxxxx |           66 |           66 |           66 |           66 |xxxxxxxxxxxxx |xxxxxxxxxxxxx |xxxxxxxxxxxxx |           66 |           66 |           66 |           66 |xxxxxxxxxxxxx |xxxxxxxxxxxxx |xxxxxxxxxxxxx |           66 |           66 |           66 |           66 |xxxxxxxxxxxxx |xxxxxxxxxxxxx |xxxxxxxxxxxxx |           66 |           66 |           66 |           66 |xxxxxxxxxxxxx |xxxxxxxxxxxxx |xxxxxxxxxxxxx |           66 |           66 |           66 |           66 |xxxxxxxxxxxxx |xxxxxxxxxxxxx |xxxxxxxxxxxxx |           66 |           66 |           66 |           66 |xxxxxxxxxxxxx |xxxxxxxxxxxxx |xxxxxxxxxxxxx |           66 |           66 |           66 |           66 |xxxxxxxxxxxxx |xxxxxxxxxxxxx |xxxxxxxxxxxxx |           66 |           66 |           66 |           66 |xxxxxxxxxxxxx |xxxxxxxxxxxxx |xxxxxxxxxxxxx |           66 |           66 |           66 |           66 |xxxxxxxxxxxxx |xxxxxxxxxxxxx |xxxxxxxxxxxxx |           66 |           66 |           66 |           66 |xxxxxxxxxxxxx |xxxxxxxxxxxxx |xxxxxxxxxxxxx |           66 |           66 |           66 |           66 |
bpred_2lev.retstack_pops             xxxxxxxxxxxxx |xxxxxxxxxxxxx |xxxxxxxxxxxxx |           64 |           64 |           64 |           64 |xxxxxxxxxxxxx |xxxxxxxxxxxxx |xxxxxxxxxxxxx |           64 |           64 |           64 |           64 |xxxxxxxxxxxxx |xxxxxxxxxxxxx |xxxxxxxxxxxxx |           64 |           64 |           64 |           64 |xxxxxxxxxxxxx |xxxxxxxxxxxxx |xxxxxxxxxxxxx |           64 |           64 |           64 |           64 |xxxxxxxxxxxxx |xxxxxxxxxxxxx |xxxxxxxxxxxxx |           64 |           64 |           64 |           64 |xxxxxxxxxxxxx |xxxxxxxxxxxxx |xxxxxxxxxxxxx |           64 |           64 |           64 |           64 |xxxxxxxxxxxxx |xxxxxxxxxxxxx |xxxxxxxxxxxxx |           64 |           64 |           64 |           64 |xxxxxxxxxxxxx |xxxxxxxxxxxxx |xxxxxxxxxxxxx |           64 |           64 |           64 |           64 |xxxxxxxxxxxxx |xxxxxxxxxxxxx |xxxxxxxxxxxxx |           64 |           64 |           64 |           64 |xxxxxxxxxxxxx |xxxxxxxxxxxxx |xxxxxxxxxxxxx |           64 |           64 |           64 |           64 |xxxxxxxxxxxxx |xxxxxxxxxxxxx |xxxxxxxxxxxxx |           64 |           64 |           64 |           64 |
bpred_2lev.used_ras.PP               xxxxxxxxxxxxx |xxxxxxxxxxxxx |xxxxxxxxxxxxx |           64 |           64 |           64 |           64 |xxxxxxxxxxxxx |xxxxxxxxxxxxx |xxxxxxxxxxxxx |           64 |           64 |           64 |           64 |xxxxxxxxxxxxx |xxxxxxxxxxxxx |xxxxxxxxxxxxx |           64 |           64 |           64 |           64 |xxxxxxxxxxxxx |xxxxxxxxxxxxx |xxxxxxxxxxxxx |           64 |           64 |           64 |           64 |xxxxxxxxxxxxx |xxxxxxxxxxxxx |xxxxxxxxxxxxx |           64 |           64 |           64 |           64 |xxxxxxxxxxxxx |xxxxxxxxxxxxx |xxxxxxxxxxxxx |           64 |           64 |           64 |           64 |xxxxxxxxxxxxx |xxxxxxxxxxxxx |xxxxxxxxxxxxx |           64 |           64 |           64 |           64 |xxxxxxxxxxxxx |xxxxxxxxxxxxx |xxxxxxxxxxxxx |           64 |           64 |           64 |           64 |xxxxxxxxxxxxx |xxxxxxxxxxxxx |xxxxxxxxxxxxx |           64 |           64 |           64 |           64 |xxxxxxxxxxxxx |xxxxxxxxxxxxx |xxxxxxxxxxxxx |           64 |           64 |           64 |           64 |xxxxxxxxxxxxx |xxxxxxxxxxxxx |xxxxxxxxxxxxx |           64 |           64 |           64 |           64 |
bpred_2lev.ras_hits.PP               xxxxxxxxxxxxx |xxxxxxxxxxxxx |xxxxxxxxxxxxx |           64 |           64 |           64 |           64 |xxxxxxxxxxxxx |xxxxxxxxxxxxx |xxxxxxxxxxxxx |           64 |           64 |           64 |           64 |xxxxxxxxxxxxx |xxxxxxxxxxxxx |xxxxxxxxxxxxx |           64 |           64 |           64 |           64 |xxxxxxxxxxxxx |xxxxxxxxxxxxx |xxxxxxxxxxxxx |           64 |           64 |           64 |           64 |xxxxxxxxxxxxx |xxxxxxxxxxxxx |xxxxxxxxxxxxx |           64 |           64 |           64 |           64 |xxxxxxxxxxxxx |xxxxxxxxxxxxx |xxxxxxxxxxxxx |           64 |           64 |           64 |           64 |xxxxxxxxxxxxx |xxxxxxxxxxxxx |xxxxxxxxxxxxx |           64 |           64 |           64 |           64 |xxxxxxxxxxxxx |xxxxxxxxxxxxx |xxxxxxxxxxxxx |           64 |           64 |           64 |           64 |xxxxxxxxxxxxx |xxxxxxxxxxxxx |xxxxxxxxxxxxx |           64 |           64 |           64 |           64 |xxxxxxxxxxxxx |xxxxxxxxxxxxx |xxxxxxxxxxxxx |           64 |           64 |           64 |           64 |xxxxxxxxxxxxx |xxxxxxxxxxxxx |xxxxxxxxxxxxx |           64 |           64 |           64 |           64 |
bpred_2lev.ras_rate.PP               xxxxxxxxxxxxx |xxxxxxxxxxxxx |xxxxxxxxxxxxx |       1.0000 |       1.0000 |       1.0000 |       1.0000 |xxxxxxxxxxxxx |xxxxxxxxxxxxx |xxxxxxxxxxxxx |       1.0000 |       1.0000 |       1.0000 |       1.0000 |xxxxxxxxxxxxx |xxxxxxxxxxxxx |xxxxxxxxxxxxx |       1.0000 |       1.0000 |       1.0000 |       1.0000 |xxxxxxxxxxxxx |xxxxxxxxxxxxx |xxxxxxxxxxxxx |       1.0000 |       1.0000 |       1.0000 |       1.0000 |xxxxxxxxxxxxx |xxxxxxxxxxxxx |xxxxxxxxxxxxx |       1.0000 |       1.0000 |       1.0000 |       1.0000 |xxxxxxxxxxxxx |xxxxxxxxxxxxx |xxxxxxxxxxxxx |       1.0000 |       1.0000 |       1.0000 |       1.0000 |xxxxxxxxxxxxx |xxxxxxxxxxxxx |xxxxxxxxxxxxx |       1.0000 |       1.0000 |       1.0000 |       1.0000 |xxxxxxxxxxxxx |xxxxxxxxxxxxx |xxxxxxxxxxxxx |       1.0000 |       1.0000 |       1.0000 |       1.0000 |xxxxxxxxxxxxx |xxxxxxxxxxxxx |xxxxxxxxxxxxx |       1.0000 |       1.0000 |       1.0000 |       1.0000 |xxxxxxxxxxxxx |xxxxxxxxxxxxx |xxxxxxxxxxxxx |       1.0000 |       1.0000 |       1.0000 |       1.0000 |xxxxxxxxxxxxx |xxxxxxxxxxxxx |xxxxxxxxxxxxx |       1.0000 |       1.0000 |       1.0000 |       1.0000 |

Command list: 
	sslittle-na-sstrix-gcc -Wall -O3 -funroll-loops -finline-functions  -DRANDOM_SIZE=4096 -DOFFSET=3 -DSORT=base_quicksort sorts/base_quicksort1594018698.c simpleMain.c -o base_quicksort595886819
	sim-cache -cache:dl1 dl1:256:32:1:l -cache:dl2 dl2:131072:32:1:l -cache:il1 il1:256:32:1:l -cache:il2 dl2 base_quicksort595886819
	sim-cache -cache:dl1 dl1:256:32:1:l -cache:dl2 dl2:65536:32:1:l -cache:il1 il1:256:32:1:l -cache:il2 dl2 base_quicksort595886819
	sim-cache -cache:dl1 dl1:1:32:256:l -cache:dl2 dl2:1:32:131072:l -cache:il1 il1:1:32:256:l -cache:il2 dl2 base_quicksort595886819
	sim-cache -cache:dl1 dl1:1:32:256:l -cache:dl2 dl2:1:32:65536:l -cache:il1 il1:1:32:256:l -cache:il2 dl2 base_quicksort595886819
	sim-bpred -bpred bimod -bpred:bimod 512 base_quicksort595886819
	sim-bpred -bpred bimod -bpred:bimod 1024 base_quicksort595886819
	sim-bpred -bpred bimod -bpred:bimod 2048 base_quicksort595886819
	sim-bpred -bpred 2lev -bpred:2lev 1 512 10 1 base_quicksort595886819
	sim-bpred -bpred 2lev -bpred:2lev 1 1024 10 1 base_quicksort595886819
	sim-bpred -bpred 2lev -bpred:2lev 1 2048 10 1 base_quicksort595886819
	sim-bpred -bpred 2lev -bpred:2lev 1 4096 10 1 base_quicksort595886819
	sslittle-na-sstrix-gcc -Wall -O3 -funroll-loops -finline-functions  -DRANDOM_SIZE=8192 -DOFFSET=3 -DSORT=base_quicksort sorts/base_quicksort1594018698.c simpleMain.c -o base_quicksort595886819
	sim-cache -cache:dl1 dl1:256:32:1:l -cache:dl2 dl2:131072:32:1:l -cache:il1 il1:256:32:1:l -cache:il2 dl2 base_quicksort595886819
	sim-cache -cache:dl1 dl1:256:32:1:l -cache:dl2 dl2:65536:32:1:l -cache:il1 il1:256:32:1:l -cache:il2 dl2 base_quicksort595886819
	sim-cache -cache:dl1 dl1:1:32:256:l -cache:dl2 dl2:1:32:131072:l -cache:il1 il1:1:32:256:l -cache:il2 dl2 base_quicksort595886819
	sim-cache -cache:dl1 dl1:1:32:256:l -cache:dl2 dl2:1:32:65536:l -cache:il1 il1:1:32:256:l -cache:il2 dl2 base_quicksort595886819
	sim-bpred -bpred bimod -bpred:bimod 512 base_quicksort595886819
	sim-bpred -bpred bimod -bpred:bimod 1024 base_quicksort595886819
	sim-bpred -bpred bimod -bpred:bimod 2048 base_quicksort595886819
	sim-bpred -bpred 2lev -bpred:2lev 1 512 10 1 base_quicksort595886819
	sim-bpred -bpred 2lev -bpred:2lev 1 1024 10 1 base_quicksort595886819
	sim-bpred -bpred 2lev -bpred:2lev 1 2048 10 1 base_quicksort595886819
	sim-bpred -bpred 2lev -bpred:2lev 1 4096 10 1 base_quicksort595886819
	sslittle-na-sstrix-gcc -Wall -O3 -funroll-loops -finline-functions  -DRANDOM_SIZE=16384 -DOFFSET=3 -DSORT=base_quicksort sorts/base_quicksort1594018698.c simpleMain.c -o base_quicksort595886819
	sim-cache -cache:dl1 dl1:256:32:1:l -cache:dl2 dl2:131072:32:1:l -cache:il1 il1:256:32:1:l -cache:il2 dl2 base_quicksort595886819
	sim-cache -cache:dl1 dl1:256:32:1:l -cache:dl2 dl2:65536:32:1:l -cache:il1 il1:256:32:1:l -cache:il2 dl2 base_quicksort595886819
	sim-cache -cache:dl1 dl1:1:32:256:l -cache:dl2 dl2:1:32:131072:l -cache:il1 il1:1:32:256:l -cache:il2 dl2 base_quicksort595886819
	sim-cache -cache:dl1 dl1:1:32:256:l -cache:dl2 dl2:1:32:65536:l -cache:il1 il1:1:32:256:l -cache:il2 dl2 base_quicksort595886819
	sim-bpred -bpred bimod -bpred:bimod 512 base_quicksort595886819
	sim-bpred -bpred bimod -bpred:bimod 1024 base_quicksort595886819
	sim-bpred -bpred bimod -bpred:bimod 2048 base_quicksort595886819
	sim-bpred -bpred 2lev -bpred:2lev 1 512 10 1 base_quicksort595886819
	sim-bpred -bpred 2lev -bpred:2lev 1 1024 10 1 base_quicksort595886819
	sim-bpred -bpred 2lev -bpred:2lev 1 2048 10 1 base_quicksort595886819
	sim-bpred -bpred 2lev -bpred:2lev 1 4096 10 1 base_quicksort595886819
	sslittle-na-sstrix-gcc -Wall -O3 -funroll-loops -finline-functions  -DRANDOM_SIZE=32768 -DOFFSET=3 -DSORT=base_quicksort sorts/base_quicksort1594018698.c simpleMain.c -o base_quicksort595886819
	sim-cache -cache:dl1 dl1:256:32:1:l -cache:dl2 dl2:131072:32:1:l -cache:il1 il1:256:32:1:l -cache:il2 dl2 base_quicksort595886819
	sim-cache -cache:dl1 dl1:256:32:1:l -cache:dl2 dl2:65536:32:1:l -cache:il1 il1:256:32:1:l -cache:il2 dl2 base_quicksort595886819
	sim-cache -cache:dl1 dl1:1:32:256:l -cache:dl2 dl2:1:32:131072:l -cache:il1 il1:1:32:256:l -cache:il2 dl2 base_quicksort595886819
	sim-cache -cache:dl1 dl1:1:32:256:l -cache:dl2 dl2:1:32:65536:l -cache:il1 il1:1:32:256:l -cache:il2 dl2 base_quicksort595886819
	sim-bpred -bpred bimod -bpred:bimod 512 base_quicksort595886819
	sim-bpred -bpred bimod -bpred:bimod 1024 base_quicksort595886819
	sim-bpred -bpred bimod -bpred:bimod 2048 base_quicksort595886819
	sim-bpred -bpred 2lev -bpred:2lev 1 512 10 1 base_quicksort595886819
	sim-bpred -bpred 2lev -bpred:2lev 1 1024 10 1 base_quicksort595886819
	sim-bpred -bpred 2lev -bpred:2lev 1 2048 10 1 base_quicksort595886819
	sim-bpred -bpred 2lev -bpred:2lev 1 4096 10 1 base_quicksort595886819
	sslittle-na-sstrix-gcc -Wall -O3 -funroll-loops -finline-functions  -DRANDOM_SIZE=65536 -DOFFSET=3 -DSORT=base_quicksort sorts/base_quicksort1594018698.c simpleMain.c -o base_quicksort595886819
	sim-cache -cache:dl1 dl1:256:32:1:l -cache:dl2 dl2:131072:32:1:l -cache:il1 il1:256:32:1:l -cache:il2 dl2 base_quicksort595886819
	sim-cache -cache:dl1 dl1:256:32:1:l -cache:dl2 dl2:65536:32:1:l -cache:il1 il1:256:32:1:l -cache:il2 dl2 base_quicksort595886819
	sim-cache -cache:dl1 dl1:1:32:256:l -cache:dl2 dl2:1:32:131072:l -cache:il1 il1:1:32:256:l -cache:il2 dl2 base_quicksort595886819
	sim-cache -cache:dl1 dl1:1:32:256:l -cache:dl2 dl2:1:32:65536:l -cache:il1 il1:1:32:256:l -cache:il2 dl2 base_quicksort595886819
	sim-bpred -bpred bimod -bpred:bimod 512 base_quicksort595886819
	sim-bpred -bpred bimod -bpred:bimod 1024 base_quicksort595886819
	sim-bpred -bpred bimod -bpred:bimod 2048 base_quicksort595886819
	sim-bpred -bpred 2lev -bpred:2lev 1 512 10 1 base_quicksort595886819
	sim-bpred -bpred 2lev -bpred:2lev 1 1024 10 1 base_quicksort595886819
	sim-bpred -bpred 2lev -bpred:2lev 1 2048 10 1 base_quicksort595886819
	sim-bpred -bpred 2lev -bpred:2lev 1 4096 10 1 base_quicksort595886819
	sslittle-na-sstrix-gcc -Wall -O3 -funroll-loops -finline-functions  -DRANDOM_SIZE=131072 -DOFFSET=3 -DSORT=base_quicksort sorts/base_quicksort1594018698.c simpleMain.c -o base_quicksort595886819
	sim-cache -cache:dl1 dl1:256:32:1:l -cache:dl2 dl2:131072:32:1:l -cache:il1 il1:256:32:1:l -cache:il2 dl2 base_quicksort595886819
	sim-cache -cache:dl1 dl1:256:32:1:l -cache:dl2 dl2:65536:32:1:l -cache:il1 il1:256:32:1:l -cache:il2 dl2 base_quicksort595886819
	sim-cache -cache:dl1 dl1:1:32:256:l -cache:dl2 dl2:1:32:131072:l -cache:il1 il1:1:32:256:l -cache:il2 dl2 base_quicksort595886819
	sim-cache -cache:dl1 dl1:1:32:256:l -cache:dl2 dl2:1:32:65536:l -cache:il1 il1:1:32:256:l -cache:il2 dl2 base_quicksort595886819
	sim-bpred -bpred bimod -bpred:bimod 512 base_quicksort595886819
	sim-bpred -bpred bimod -bpred:bimod 1024 base_quicksort595886819
	sim-bpred -bpred bimod -bpred:bimod 2048 base_quicksort595886819
	sim-bpred -bpred 2lev -bpred:2lev 1 512 10 1 base_quicksort595886819
	sim-bpred -bpred 2lev -bpred:2lev 1 1024 10 1 base_quicksort595886819
	sim-bpred -bpred 2lev -bpred:2lev 1 2048 10 1 base_quicksort595886819
	sim-bpred -bpred 2lev -bpred:2lev 1 4096 10 1 base_quicksort595886819
	sslittle-na-sstrix-gcc -Wall -O3 -funroll-loops -finline-functions  -DRANDOM_SIZE=262144 -DOFFSET=3 -DSORT=base_quicksort sorts/base_quicksort1594018698.c simpleMain.c -o base_quicksort595886819
	sim-cache -cache:dl1 dl1:256:32:1:l -cache:dl2 dl2:131072:32:1:l -cache:il1 il1:256:32:1:l -cache:il2 dl2 base_quicksort595886819
	sim-cache -cache:dl1 dl1:256:32:1:l -cache:dl2 dl2:65536:32:1:l -cache:il1 il1:256:32:1:l -cache:il2 dl2 base_quicksort595886819
	sim-cache -cache:dl1 dl1:1:32:256:l -cache:dl2 dl2:1:32:131072:l -cache:il1 il1:1:32:256:l -cache:il2 dl2 base_quicksort595886819
	sim-cache -cache:dl1 dl1:1:32:256:l -cache:dl2 dl2:1:32:65536:l -cache:il1 il1:1:32:256:l -cache:il2 dl2 base_quicksort595886819
	sim-bpred -bpred bimod -bpred:bimod 512 base_quicksort595886819
	sim-bpred -bpred bimod -bpred:bimod 1024 base_quicksort595886819
	sim-bpred -bpred bimod -bpred:bimod 2048 base_quicksort595886819
	sim-bpred -bpred 2lev -bpred:2lev 1 512 10 1 base_quicksort595886819
	sim-bpred -bpred 2lev -bpred:2lev 1 1024 10 1 base_quicksort595886819
	sim-bpred -bpred 2lev -bpred:2lev 1 2048 10 1 base_quicksort595886819
	sim-bpred -bpred 2lev -bpred:2lev 1 4096 10 1 base_quicksort595886819
	sslittle-na-sstrix-gcc -Wall -O3 -funroll-loops -finline-functions  -DRANDOM_SIZE=524288 -DOFFSET=3 -DSORT=base_quicksort sorts/base_quicksort1594018698.c simpleMain.c -o base_quicksort595886819
	sim-cache -cache:dl1 dl1:256:32:1:l -cache:dl2 dl2:131072:32:1:l -cache:il1 il1:256:32:1:l -cache:il2 dl2 base_quicksort595886819
	sim-cache -cache:dl1 dl1:256:32:1:l -cache:dl2 dl2:65536:32:1:l -cache:il1 il1:256:32:1:l -cache:il2 dl2 base_quicksort595886819
	sim-cache -cache:dl1 dl1:1:32:256:l -cache:dl2 dl2:1:32:131072:l -cache:il1 il1:1:32:256:l -cache:il2 dl2 base_quicksort595886819
	sim-cache -cache:dl1 dl1:1:32:256:l -cache:dl2 dl2:1:32:65536:l -cache:il1 il1:1:32:256:l -cache:il2 dl2 base_quicksort595886819
	sim-bpred -bpred bimod -bpred:bimod 512 base_quicksort595886819
	sim-bpred -bpred bimod -bpred:bimod 1024 base_quicksort595886819
	sim-bpred -bpred bimod -bpred:bimod 2048 base_quicksort595886819
	sim-bpred -bpred 2lev -bpred:2lev 1 512 10 1 base_quicksort595886819
	sim-bpred -bpred 2lev -bpred:2lev 1 1024 10 1 base_quicksort595886819
	sim-bpred -bpred 2lev -bpred:2lev 1 2048 10 1 base_quicksort595886819
	sim-bpred -bpred 2lev -bpred:2lev 1 4096 10 1 base_quicksort595886819
	sslittle-na-sstrix-gcc -Wall -O3 -funroll-loops -finline-functions  -DRANDOM_SIZE=1048576 -DOFFSET=3 -DSORT=base_quicksort sorts/base_quicksort1594018698.c simpleMain.c -o base_quicksort595886819
	sim-cache -cache:dl1 dl1:256:32:1:l -cache:dl2 dl2:131072:32:1:l -cache:il1 il1:256:32:1:l -cache:il2 dl2 base_quicksort595886819
	sim-cache -cache:dl1 dl1:256:32:1:l -cache:dl2 dl2:65536:32:1:l -cache:il1 il1:256:32:1:l -cache:il2 dl2 base_quicksort595886819
	sim-cache -cache:dl1 dl1:1:32:256:l -cache:dl2 dl2:1:32:131072:l -cache:il1 il1:1:32:256:l -cache:il2 dl2 base_quicksort595886819
	sim-cache -cache:dl1 dl1:1:32:256:l -cache:dl2 dl2:1:32:65536:l -cache:il1 il1:1:32:256:l -cache:il2 dl2 base_quicksort595886819
	sim-bpred -bpred bimod -bpred:bimod 512 base_quicksort595886819
	sim-bpred -bpred bimod -bpred:bimod 1024 base_quicksort595886819
	sim-bpred -bpred bimod -bpred:bimod 2048 base_quicksort595886819
	sim-bpred -bpred 2lev -bpred:2lev 1 512 10 1 base_quicksort595886819
	sim-bpred -bpred 2lev -bpred:2lev 1 1024 10 1 base_quicksort595886819
	sim-bpred -bpred 2lev -bpred:2lev 1 2048 10 1 base_quicksort595886819
	sim-bpred -bpred 2lev -bpred:2lev 1 4096 10 1 base_quicksort595886819
	sslittle-na-sstrix-gcc -Wall -O3 -funroll-loops -finline-functions  -DRANDOM_SIZE=2097152 -DOFFSET=3 -DSORT=base_quicksort sorts/base_quicksort1594018698.c simpleMain.c -o base_quicksort595886819
	sim-cache -cache:dl1 dl1:256:32:1:l -cache:dl2 dl2:131072:32:1:l -cache:il1 il1:256:32:1:l -cache:il2 dl2 base_quicksort595886819
	sim-cache -cache:dl1 dl1:256:32:1:l -cache:dl2 dl2:65536:32:1:l -cache:il1 il1:256:32:1:l -cache:il2 dl2 base_quicksort595886819
	sim-cache -cache:dl1 dl1:1:32:256:l -cache:dl2 dl2:1:32:131072:l -cache:il1 il1:1:32:256:l -cache:il2 dl2 base_quicksort595886819
	sim-cache -cache:dl1 dl1:1:32:256:l -cache:dl2 dl2:1:32:65536:l -cache:il1 il1:1:32:256:l -cache:il2 dl2 base_quicksort595886819
	sim-bpred -bpred bimod -bpred:bimod 512 base_quicksort595886819
	sim-bpred -bpred bimod -bpred:bimod 1024 base_quicksort595886819
	sim-bpred -bpred bimod -bpred:bimod 2048 base_quicksort595886819
	sim-bpred -bpred 2lev -bpred:2lev 1 512 10 1 base_quicksort595886819
	sim-bpred -bpred 2lev -bpred:2lev 1 1024 10 1 base_quicksort595886819
	sim-bpred -bpred 2lev -bpred:2lev 1 2048 10 1 base_quicksort595886819
	sim-bpred -bpred 2lev -bpred:2lev 1 4096 10 1 base_quicksort595886819
	sslittle-na-sstrix-gcc -Wall -O3 -funroll-loops -finline-functions  -DRANDOM_SIZE=4194304 -DOFFSET=3 -DSORT=base_quicksort sorts/base_quicksort1594018698.c simpleMain.c -o base_quicksort595886819
	sim-cache -cache:dl1 dl1:256:32:1:l -cache:dl2 dl2:131072:32:1:l -cache:il1 il1:256:32:1:l -cache:il2 dl2 base_quicksort595886819
	sim-cache -cache:dl1 dl1:256:32:1:l -cache:dl2 dl2:65536:32:1:l -cache:il1 il1:256:32:1:l -cache:il2 dl2 base_quicksort595886819
	sim-cache -cache:dl1 dl1:1:32:256:l -cache:dl2 dl2:1:32:131072:l -cache:il1 il1:1:32:256:l -cache:il2 dl2 base_quicksort595886819
	sim-cache -cache:dl1 dl1:1:32:256:l -cache:dl2 dl2:1:32:65536:l -cache:il1 il1:1:32:256:l -cache:il2 dl2 base_quicksort595886819
	sim-bpred -bpred bimod -bpred:bimod 512 base_quicksort595886819
	sim-bpred -bpred bimod -bpred:bimod 1024 base_quicksort595886819
	sim-bpred -bpred bimod -bpred:bimod 2048 base_quicksort595886819
	sim-bpred -bpred 2lev -bpred:2lev 1 512 10 1 base_quicksort595886819
	sim-bpred -bpred 2lev -bpred:2lev 1 1024 10 1 base_quicksort595886819
	sim-bpred -bpred 2lev -bpred:2lev 1 2048 10 1 base_quicksort595886819
	sim-bpred -bpred 2lev -bpred:2lev 1 4096 10 1 base_quicksort595886819
