Thu Jul  7 08:35:20 2005
Run as: "./do_simple -c random.org4 -o 4 base_radixsort"
-------------------------------------------------------------------------------------------------
sim-cache                                     4096 |         4096 |         4096 |         4096 |         8192 |         8192 |         8192 |         8192 |        16384 |        16384 |        16384 |        16384 |        32768 |        32768 |        32768 |        32768 |        65536 |        65536 |        65536 |        65536 |       131072 |       131072 |       131072 |       131072 |       262144 |       262144 |       262144 |       262144 |       524288 |       524288 |       524288 |       524288 |      1048576 |      1048576 |      1048576 |      1048576 |      2097152 |      2097152 |      2097152 |      2097152 |      4194304 |      4194304 |      4194304 |      4194304 |
-cache:dl1 dl1:256:32:1:l -cache:dl2 dl2:131072:32:1:l -cache:il1 il1:256:32:1:l -cache:il2 dl2
-cache:dl1 dl1:256:32:1:l -cache:dl2 dl2:65536:32:1:l -cache:il1 il1:256:32:1:l -cache:il2 dl2
-cache:dl1 dl1:1:32:256:l -cache:dl2 dl2:1:32:131072:l -cache:il1 il1:1:32:256:l -cache:il2 dl2
-cache:dl1 dl1:1:32:256:l -cache:dl2 dl2:1:32:65536:l -cache:il1 il1:1:32:256:l -cache:il2 dl2
-------------------------------------------------------------------------------------------------
sim_num_insn                                431102 |       431102 |       431102 |       431102 |       849036 |       849036 |       849036 |       849036 |      1684622 |      1684622 |      1684622 |      1684622 |      3355791 |      3355791 |      3355791 |      3355791 |      6698127 |      6698127 |      6698127 |      6698127 |     13382800 |     13382800 |     13382800 |     13382800 |     26752144 |     26752144 |     26752144 |     26752144 |     53490832 |     53490832 |     53490832 |     53490832 |    106980684 |    106980684 |    106980684 |    106980684 |    213944660 |    213944660 |    213944660 |    213944660 |    427872604 |    427872604 |    427872604 |    427872604 |
sim_num_refs                                171670 |       171670 |       171670 |       171670 |       335554 |       335554 |       335554 |       335554 |       663234 |       663234 |       663234 |       663234 |      1318594 |      1318594 |      1318594 |      1318594 |      2629314 |      2629314 |      2629314 |      2629314 |      5250754 |      5250754 |      5250754 |      5250754 |     10493634 |     10493634 |     10493634 |     10493634 |     20979394 |     20979394 |     20979394 |     20979394 |     41960176 |     41960176 |     41960176 |     41960176 |     83909360 |     83909360 |     83909360 |     83909360 |    167807728 |    167807728 |    167807728 |    167807728 |
sim_elapsed_time                                 1 |            1 |           10 |            5 |            1 |            1 |           15 |            8 |            1 |            1 |           26 |           14 |            1 |            1 |           47 |           23 |            2 |            3 |           87 |           43 |            4 |            4 |          160 |           71 |            9 |            9 |          273 |           98 |           18 |           18 |          368 |          108 |           37 |           36 |          390 |          129 |           72 |           72 |          432 |          172 |          144 |          143 |          520 |          257 |
sim_inst_rate                          431102.0000 |  431102.0000 |   43110.2000 |   86220.4000 |  849036.0000 |  849036.0000 |   56602.4000 |  106129.5000 | 1684622.0000 | 1684622.0000 |   64793.1538 |  120330.1429 | 3355791.0000 | 3355791.0000 |   71399.8085 |  145903.9565 | 3349063.5000 | 2232709.0000 |   76989.9655 |  155770.3953 | 3345700.0000 | 3345700.0000 |   83642.5000 |  188490.1408 | 2972460.4444 | 2972460.4444 |   97993.2015 |  272981.0612 | 2971712.8889 | 2971712.8889 |  145355.5217 |  495285.4815 | 2891369.8378 | 2971685.6667 |  274309.4462 |  829307.6279 | 2971453.6111 | 2971453.6111 |  495242.2685 | 1243864.3023 | 2971337.5278 | 2992116.1119 |  822831.9308 | 1664873.9455 |
il1.accesses                                431102 |       431102 |       431102 |       431102 |       849036 |       849036 |       849036 |       849036 |      1684622 |      1684622 |      1684622 |      1684622 |      3355791 |      3355791 |      3355791 |      3355791 |      6698127 |      6698127 |      6698127 |      6698127 |     13382800 |     13382800 |     13382800 |     13382800 |     26752144 |     26752144 |     26752144 |     26752144 |     53490832 |     53490832 |     53490832 |     53490832 |    106980684 |    106980684 |    106980684 |    106980684 |    213944660 |    213944660 |    213944660 |    213944660 |    427872604 |    427872604 |    427872604 |    427872604 |
il1.hits                                    430679 |       430679 |       430731 |       430731 |       848594 |       848594 |       848675 |       848675 |      1684166 |      1684166 |      1684255 |      1684255 |      3355349 |      3355349 |      3355429 |      3355429 |      6697685 |      6697685 |      6697765 |      6697765 |     13382359 |     13382359 |     13382439 |     13382439 |     26751703 |     26751703 |     26751783 |     26751783 |     53490391 |     53490391 |     53490471 |     53490471 |    106980193 |    106980193 |    106980253 |    106980253 |    213944169 |    213944169 |    213944229 |    213944229 |    427872113 |    427872113 |    427872173 |    427872173 |
il1.misses                                     423 |          423 |          371 |          371 |          442 |          442 |          361 |          361 |          456 |          456 |          367 |          367 |          442 |          442 |          362 |          362 |          442 |          442 |          362 |          362 |          441 |          441 |          361 |          361 |          441 |          441 |          361 |          361 |          441 |          441 |          361 |          361 |          491 |          491 |          431 |          431 |          491 |          491 |          431 |          431 |          491 |          491 |          431 |          431 |
il1.replacements                               221 |          221 |          115 |          115 |          242 |          242 |          105 |          105 |          254 |          254 |          111 |          111 |          240 |          240 |          106 |          106 |          240 |          240 |          106 |          106 |          240 |          240 |          105 |          105 |          240 |          240 |          105 |          105 |          240 |          240 |          105 |          105 |          275 |          275 |          175 |          175 |          275 |          275 |          175 |          175 |          275 |          275 |          175 |          175 |
il1.writebacks                                   0 |            0 |            0 |            0 |            0 |            0 |            0 |            0 |            0 |            0 |            0 |            0 |            0 |            0 |            0 |            0 |            0 |            0 |            0 |            0 |            0 |            0 |            0 |            0 |            0 |            0 |            0 |            0 |            0 |            0 |            0 |            0 |            0 |            0 |            0 |            0 |            0 |            0 |            0 |            0 |            0 |            0 |            0 |            0 |
il1.invalidations                                0 |            0 |            0 |            0 |            0 |            0 |            0 |            0 |            0 |            0 |            0 |            0 |            0 |            0 |            0 |            0 |            0 |            0 |            0 |            0 |            0 |            0 |            0 |            0 |            0 |            0 |            0 |            0 |            0 |            0 |            0 |            0 |            0 |            0 |            0 |            0 |            0 |            0 |            0 |            0 |            0 |            0 |            0 |            0 |
il1.miss_rate                               0.0010 |       0.0010 |       0.0009 |       0.0009 |       0.0005 |       0.0005 |       0.0004 |       0.0004 |       0.0003 |       0.0003 |       0.0002 |       0.0002 |       0.0001 |       0.0001 |       0.0001 |       0.0001 |       0.0001 |       0.0001 |       0.0001 |       0.0001 |       0.0000 |       0.0000 |       0.0000 |       0.0000 |       0.0000 |       0.0000 |       0.0000 |       0.0000 |       0.0000 |       0.0000 |       0.0000 |       0.0000 |       0.0000 |       0.0000 |       0.0000 |       0.0000 |       0.0000 |       0.0000 |       0.0000 |       0.0000 |       0.0000 |       0.0000 |       0.0000 |       0.0000 |
il1.repl_rate                               0.0005 |       0.0005 |       0.0003 |       0.0003 |       0.0003 |       0.0003 |       0.0001 |       0.0001 |       0.0002 |       0.0002 |       0.0001 |       0.0001 |       0.0001 |       0.0001 |       0.0000 |       0.0000 |       0.0000 |       0.0000 |       0.0000 |       0.0000 |       0.0000 |       0.0000 |       0.0000 |       0.0000 |       0.0000 |       0.0000 |       0.0000 |       0.0000 |       0.0000 |       0.0000 |       0.0000 |       0.0000 |       0.0000 |       0.0000 |       0.0000 |       0.0000 |       0.0000 |       0.0000 |       0.0000 |       0.0000 |       0.0000 |       0.0000 |       0.0000 |       0.0000 |
il1.wb_rate                                 0.0000 |       0.0000 |       0.0000 |       0.0000 |       0.0000 |       0.0000 |       0.0000 |       0.0000 |       0.0000 |       0.0000 |       0.0000 |       0.0000 |       0.0000 |       0.0000 |       0.0000 |       0.0000 |       0.0000 |       0.0000 |       0.0000 |       0.0000 |       0.0000 |       0.0000 |       0.0000 |       0.0000 |       0.0000 |       0.0000 |       0.0000 |       0.0000 |       0.0000 |       0.0000 |       0.0000 |       0.0000 |       0.0000 |       0.0000 |       0.0000 |       0.0000 |       0.0000 |       0.0000 |       0.0000 |       0.0000 |       0.0000 |       0.0000 |       0.0000 |       0.0000 |
il1.inv_rate                                0.0000 |       0.0000 |       0.0000 |       0.0000 |       0.0000 |       0.0000 |       0.0000 |       0.0000 |       0.0000 |       0.0000 |       0.0000 |       0.0000 |       0.0000 |       0.0000 |       0.0000 |       0.0000 |       0.0000 |       0.0000 |       0.0000 |       0.0000 |       0.0000 |       0.0000 |       0.0000 |       0.0000 |       0.0000 |       0.0000 |       0.0000 |       0.0000 |       0.0000 |       0.0000 |       0.0000 |       0.0000 |       0.0000 |       0.0000 |       0.0000 |       0.0000 |       0.0000 |       0.0000 |       0.0000 |       0.0000 |       0.0000 |       0.0000 |       0.0000 |       0.0000 |
dl1.accesses                                188136 |       188136 |       188136 |       188136 |       368404 |       368404 |       368404 |       368404 |       728852 |       728852 |       728852 |       728852 |      1449748 |      1449748 |      1449748 |      1449748 |      2891540 |      2891540 |      2891540 |      2891540 |      5775124 |      5775124 |      5775124 |      5775124 |     11542292 |     11542292 |     11542292 |     11542292 |     23076628 |     23076628 |     23076628 |     23076628 |     46154562 |     46154562 |     46154562 |     46154562 |     92298050 |     92298050 |     92298050 |     92298050 |    184585026 |    184585026 |    184585026 |    184585026 |
dl1.hits                                    168123 |       168123 |       172003 |       172003 |       327483 |       327483 |       336642 |       336642 |       647084 |       647084 |       666197 |       666197 |      1285928 |      1285928 |      1325161 |      1325161 |      2563177 |      2563177 |      2643678 |      2643678 |      5082869 |      5082869 |      5280014 |      5280014 |     10080018 |     10080018 |     10552503 |     10552503 |     20101601 |     20101601 |     21098922 |     21098922 |     40405184 |     40405184 |     42197664 |     42197664 |     81279818 |     81279818 |     84387066 |     84387066 |    163090530 |    163090530 |    168763611 |    168763611 |
dl1.misses                                   20013 |        20013 |        16133 |        16133 |        40921 |        40921 |        31762 |        31762 |        81768 |        81768 |        62655 |        62655 |       163820 |       163820 |       124587 |       124587 |       328363 |       328363 |       247862 |       247862 |       692255 |       692255 |       495110 |       495110 |      1462274 |      1462274 |       989789 |       989789 |      2975027 |      2975027 |      1977706 |      1977706 |      5749378 |      5749378 |      3956898 |      3956898 |     11018232 |     11018232 |      7910984 |      7910984 |     21494496 |     21494496 |     15821415 |     15821415 |
dl1.replacements                             19757 |        19757 |        15877 |        15877 |        40665 |        40665 |        31506 |        31506 |        81512 |        81512 |        62399 |        62399 |       163564 |       163564 |       124331 |       124331 |       328107 |       328107 |       247606 |       247606 |       691999 |       691999 |       494854 |       494854 |      1462018 |      1462018 |       989533 |       989533 |      2974771 |      2974771 |      1977450 |      1977450 |      5749122 |      5749122 |      3956642 |      3956642 |     11017976 |     11017976 |      7910728 |      7910728 |     21494240 |     21494240 |     15821159 |     15821159 |
dl1.writebacks                               13700 |        13700 |         9930 |         9930 |        28193 |        28193 |        19358 |        19358 |        56404 |        56404 |        37940 |        37940 |       113075 |       113075 |        75283 |        75283 |       226961 |       226961 |       149403 |       149403 |       489769 |       489769 |       298344 |       298344 |      1057558 |      1057558 |       596414 |       596414 |      2165787 |      2165787 |      1191115 |      1191115 |      4131339 |      4131339 |      2383487 |      2383487 |      7782365 |      7782365 |      4764709 |      4764709 |     15021760 |     15021760 |      9529412 |      9529412 |
dl1.invalidations                                0 |            0 |            0 |            0 |            0 |            0 |            0 |            0 |            0 |            0 |            0 |            0 |            0 |            0 |            0 |            0 |            0 |            0 |            0 |            0 |            0 |            0 |            0 |            0 |            0 |            0 |            0 |            0 |            0 |            0 |            0 |            0 |            0 |            0 |            0 |            0 |            0 |            0 |            0 |            0 |            0 |            0 |            0 |            0 |
dl1.miss_rate                               0.1064 |       0.1064 |       0.0858 |       0.0858 |       0.1111 |       0.1111 |       0.0862 |       0.0862 |       0.1122 |       0.1122 |       0.0860 |       0.0860 |       0.1130 |       0.1130 |       0.0859 |       0.0859 |       0.1136 |       0.1136 |       0.0857 |       0.0857 |       0.1199 |       0.1199 |       0.0857 |       0.0857 |       0.1267 |       0.1267 |       0.0858 |       0.0858 |       0.1289 |       0.1289 |       0.0857 |       0.0857 |       0.1246 |       0.1246 |       0.0857 |       0.0857 |       0.1194 |       0.1194 |       0.0857 |       0.0857 |       0.1164 |       0.1164 |       0.0857 |       0.0857 |
dl1.repl_rate                               0.1050 |       0.1050 |       0.0844 |       0.0844 |       0.1104 |       0.1104 |       0.0855 |       0.0855 |       0.1118 |       0.1118 |       0.0856 |       0.0856 |       0.1128 |       0.1128 |       0.0858 |       0.0858 |       0.1135 |       0.1135 |       0.0856 |       0.0856 |       0.1198 |       0.1198 |       0.0857 |       0.0857 |       0.1267 |       0.1267 |       0.0857 |       0.0857 |       0.1289 |       0.1289 |       0.0857 |       0.0857 |       0.1246 |       0.1246 |       0.0857 |       0.0857 |       0.1194 |       0.1194 |       0.0857 |       0.0857 |       0.1164 |       0.1164 |       0.0857 |       0.0857 |
dl1.wb_rate                                 0.0728 |       0.0728 |       0.0528 |       0.0528 |       0.0765 |       0.0765 |       0.0525 |       0.0525 |       0.0774 |       0.0774 |       0.0521 |       0.0521 |       0.0780 |       0.0780 |       0.0519 |       0.0519 |       0.0785 |       0.0785 |       0.0517 |       0.0517 |       0.0848 |       0.0848 |       0.0517 |       0.0517 |       0.0916 |       0.0916 |       0.0517 |       0.0517 |       0.0939 |       0.0939 |       0.0516 |       0.0516 |       0.0895 |       0.0895 |       0.0516 |       0.0516 |       0.0843 |       0.0843 |       0.0516 |       0.0516 |       0.0814 |       0.0814 |       0.0516 |       0.0516 |
dl1.inv_rate                                0.0000 |       0.0000 |       0.0000 |       0.0000 |       0.0000 |       0.0000 |       0.0000 |       0.0000 |       0.0000 |       0.0000 |       0.0000 |       0.0000 |       0.0000 |       0.0000 |       0.0000 |       0.0000 |       0.0000 |       0.0000 |       0.0000 |       0.0000 |       0.0000 |       0.0000 |       0.0000 |       0.0000 |       0.0000 |       0.0000 |       0.0000 |       0.0000 |       0.0000 |       0.0000 |       0.0000 |       0.0000 |       0.0000 |       0.0000 |       0.0000 |       0.0000 |       0.0000 |       0.0000 |       0.0000 |       0.0000 |       0.0000 |       0.0000 |       0.0000 |       0.0000 |
dl2.accesses                                 34136 |        34136 |        26434 |        26434 |        69556 |        69556 |        51481 |        51481 |       138628 |       138628 |       100962 |       100962 |       277337 |       277337 |       200232 |       200232 |       555766 |       555766 |       397627 |       397627 |      1182465 |      1182465 |       793815 |       793815 |      2520273 |      2520273 |      1586564 |      1586564 |      5141255 |      5141255 |      3169182 |      3169182 |      9881208 |      9881208 |      6340816 |      6340816 |     18801088 |     18801088 |     12676124 |     12676124 |     36516747 |     36516747 |     25351258 |     25351258 |
dl2.hits                                     32288 |        32288 |        24595 |        24595 |        66691 |        66691 |        48628 |        48628 |       133704 |       133704 |        96056 |        96056 |       268326 |       268326 |       191234 |       191234 |       538562 |       538562 |       380437 |       380437 |      1148879 |      1148879 |       760242 |       760242 |      2453919 |      2428312 |      1520223 |      1515744 |      4983874 |      4272177 |      3031906 |      1827208 |      8158488 |      7141659 |      3657383 |      3602391 |     13315811 |     13236393 |      7201252 |      7175392 |     25424891 |     25261504 |     14352204 |     14339363 |
dl2.misses                                    1848 |         1848 |         1839 |         1839 |         2865 |         2865 |         2853 |         2853 |         4924 |         4924 |         4906 |         4906 |         9011 |         9011 |         8998 |         8998 |        17204 |        17204 |        17190 |        17190 |        33586 |        33586 |        33573 |        33573 |        66354 |        91961 |        66341 |        70820 |       157381 |       869078 |       137276 |      1341974 |      1722720 |      2739549 |      2683433 |      2738425 |      5485277 |      5564695 |      5474872 |      5500732 |     11091856 |     11255243 |     10999054 |     11011895 |
dl2.replacements                               206 |          206 |            0 |            0 |          225 |          225 |            0 |            0 |          256 |          256 |            0 |            0 |          247 |          247 |            0 |            0 |          248 |          248 |            0 |            0 |          247 |          247 |            0 |            0 |          247 |        27557 |            0 |         5284 |        27441 |       803542 |         6204 |      1276438 |      1591648 |      2674013 |      2552361 |      2672889 |      5354205 |      5499159 |      5343800 |      5435196 |     10960784 |     11189707 |     10867982 |     10946359 |
dl2.writebacks                                 135 |          135 |            0 |            0 |          141 |          141 |            0 |            0 |          166 |          166 |            0 |            0 |          162 |          162 |            0 |            0 |          162 |          162 |            0 |            0 |          162 |          162 |            0 |            0 |          162 |        17289 |            0 |         4918 |        17215 |       530469 |         5847 |       558565 |      1055536 |      1133520 |      1116380 |      1149242 |      2256976 |      2367768 |      2296890 |      2329847 |      4690678 |      4901820 |      4657833 |      4691036 |
dl2.invalidations                                0 |            0 |            0 |            0 |            0 |            0 |            0 |            0 |            0 |            0 |            0 |            0 |            0 |            0 |            0 |            0 |            0 |            0 |            0 |            0 |            0 |            0 |            0 |            0 |            0 |            0 |            0 |            0 |            0 |            0 |            0 |            0 |            0 |            0 |            0 |            0 |            0 |            0 |            0 |            0 |            0 |            0 |            0 |            0 |
dl2.miss_rate                               0.0541 |       0.0541 |       0.0696 |       0.0696 |       0.0412 |       0.0412 |       0.0554 |       0.0554 |       0.0355 |       0.0355 |       0.0486 |       0.0486 |       0.0325 |       0.0325 |       0.0449 |       0.0449 |       0.0310 |       0.0310 |       0.0432 |       0.0432 |       0.0284 |       0.0284 |       0.0423 |       0.0423 |       0.0263 |       0.0365 |       0.0418 |       0.0446 |       0.0306 |       0.1690 |       0.0433 |       0.4234 |       0.1743 |       0.2772 |       0.4232 |       0.4319 |       0.2918 |       0.2960 |       0.4319 |       0.4339 |       0.3037 |       0.3082 |       0.4339 |       0.4344 |
dl2.repl_rate                               0.0060 |       0.0060 |       0.0000 |       0.0000 |       0.0032 |       0.0032 |       0.0000 |       0.0000 |       0.0018 |       0.0018 |       0.0000 |       0.0000 |       0.0009 |       0.0009 |       0.0000 |       0.0000 |       0.0004 |       0.0004 |       0.0000 |       0.0000 |       0.0002 |       0.0002 |       0.0000 |       0.0000 |       0.0001 |       0.0109 |       0.0000 |       0.0033 |       0.0053 |       0.1563 |       0.0020 |       0.4028 |       0.1611 |       0.2706 |       0.4025 |       0.4215 |       0.2848 |       0.2925 |       0.4216 |       0.4288 |       0.3002 |       0.3064 |       0.4287 |       0.4318 |
dl2.wb_rate                                 0.0040 |       0.0040 |       0.0000 |       0.0000 |       0.0020 |       0.0020 |       0.0000 |       0.0000 |       0.0012 |       0.0012 |       0.0000 |       0.0000 |       0.0006 |       0.0006 |       0.0000 |       0.0000 |       0.0003 |       0.0003 |       0.0000 |       0.0000 |       0.0001 |       0.0001 |       0.0000 |       0.0000 |       0.0001 |       0.0069 |       0.0000 |       0.0031 |       0.0033 |       0.1032 |       0.0018 |       0.1762 |       0.1068 |       0.1147 |       0.1761 |       0.1812 |       0.1200 |       0.1259 |       0.1812 |       0.1838 |       0.1285 |       0.1342 |       0.1837 |       0.1850 |
dl2.inv_rate                                0.0000 |       0.0000 |       0.0000 |       0.0000 |       0.0000 |       0.0000 |       0.0000 |       0.0000 |       0.0000 |       0.0000 |       0.0000 |       0.0000 |       0.0000 |       0.0000 |       0.0000 |       0.0000 |       0.0000 |       0.0000 |       0.0000 |       0.0000 |       0.0000 |       0.0000 |       0.0000 |       0.0000 |       0.0000 |       0.0000 |       0.0000 |       0.0000 |       0.0000 |       0.0000 |       0.0000 |       0.0000 |       0.0000 |       0.0000 |       0.0000 |       0.0000 |       0.0000 |       0.0000 |       0.0000 |       0.0000 |       0.0000 |       0.0000 |       0.0000 |       0.0000 |
itlb.accesses                               431102 |       431102 |       431102 |       431102 |       849036 |       849036 |       849036 |       849036 |      1684622 |      1684622 |      1684622 |      1684622 |      3355791 |      3355791 |      3355791 |      3355791 |      6698127 |      6698127 |      6698127 |      6698127 |     13382800 |     13382800 |     13382800 |     13382800 |     26752144 |     26752144 |     26752144 |     26752144 |     53490832 |     53490832 |     53490832 |     53490832 |    106980684 |    106980684 |    106980684 |    106980684 |    213944660 |    213944660 |    213944660 |    213944660 |    427872604 |    427872604 |    427872604 |    427872604 |
itlb.hits                                   431091 |       431091 |       431091 |       431091 |       849026 |       849026 |       849026 |       849026 |      1684612 |      1684612 |      1684612 |      1684612 |      3355781 |      3355781 |      3355781 |      3355781 |      6698117 |      6698117 |      6698117 |      6698117 |     13382790 |     13382790 |     13382790 |     13382790 |     26752134 |     26752134 |     26752134 |     26752134 |     53490822 |     53490822 |     53490822 |     53490822 |    106980674 |    106980674 |    106980674 |    106980674 |    213944650 |    213944650 |    213944650 |    213944650 |    427872594 |    427872594 |    427872594 |    427872594 |
itlb.misses                                     11 |           11 |           11 |           11 |           10 |           10 |           10 |           10 |           10 |           10 |           10 |           10 |           10 |           10 |           10 |           10 |           10 |           10 |           10 |           10 |           10 |           10 |           10 |           10 |           10 |           10 |           10 |           10 |           10 |           10 |           10 |           10 |           10 |           10 |           10 |           10 |           10 |           10 |           10 |           10 |           10 |           10 |           10 |           10 |
itlb.replacements                                0 |            0 |            0 |            0 |            0 |            0 |            0 |            0 |            0 |            0 |            0 |            0 |            0 |            0 |            0 |            0 |            0 |            0 |            0 |            0 |            0 |            0 |            0 |            0 |            0 |            0 |            0 |            0 |            0 |            0 |            0 |            0 |            0 |            0 |            0 |            0 |            0 |            0 |            0 |            0 |            0 |            0 |            0 |            0 |
itlb.writebacks                                  0 |            0 |            0 |            0 |            0 |            0 |            0 |            0 |            0 |            0 |            0 |            0 |            0 |            0 |            0 |            0 |            0 |            0 |            0 |            0 |            0 |            0 |            0 |            0 |            0 |            0 |            0 |            0 |            0 |            0 |            0 |            0 |            0 |            0 |            0 |            0 |            0 |            0 |            0 |            0 |            0 |            0 |            0 |            0 |
itlb.invalidations                               0 |            0 |            0 |            0 |            0 |            0 |            0 |            0 |            0 |            0 |            0 |            0 |            0 |            0 |            0 |            0 |            0 |            0 |            0 |            0 |            0 |            0 |            0 |            0 |            0 |            0 |            0 |            0 |            0 |            0 |            0 |            0 |            0 |            0 |            0 |            0 |            0 |            0 |            0 |            0 |            0 |            0 |            0 |            0 |
itlb.miss_rate                              0.0000 |       0.0000 |       0.0000 |       0.0000 |       0.0000 |       0.0000 |       0.0000 |       0.0000 |       0.0000 |       0.0000 |       0.0000 |       0.0000 |       0.0000 |       0.0000 |       0.0000 |       0.0000 |       0.0000 |       0.0000 |       0.0000 |       0.0000 |       0.0000 |       0.0000 |       0.0000 |       0.0000 |       0.0000 |       0.0000 |       0.0000 |       0.0000 |       0.0000 |       0.0000 |       0.0000 |       0.0000 |       0.0000 |       0.0000 |       0.0000 |       0.0000 |       0.0000 |       0.0000 |       0.0000 |       0.0000 |       0.0000 |       0.0000 |       0.0000 |       0.0000 |
itlb.repl_rate                              0.0000 |       0.0000 |       0.0000 |       0.0000 |       0.0000 |       0.0000 |       0.0000 |       0.0000 |       0.0000 |       0.0000 |       0.0000 |       0.0000 |       0.0000 |       0.0000 |       0.0000 |       0.0000 |       0.0000 |       0.0000 |       0.0000 |       0.0000 |       0.0000 |       0.0000 |       0.0000 |       0.0000 |       0.0000 |       0.0000 |       0.0000 |       0.0000 |       0.0000 |       0.0000 |       0.0000 |       0.0000 |       0.0000 |       0.0000 |       0.0000 |       0.0000 |       0.0000 |       0.0000 |       0.0000 |       0.0000 |       0.0000 |       0.0000 |       0.0000 |       0.0000 |
itlb.wb_rate                                0.0000 |       0.0000 |       0.0000 |       0.0000 |       0.0000 |       0.0000 |       0.0000 |       0.0000 |       0.0000 |       0.0000 |       0.0000 |       0.0000 |       0.0000 |       0.0000 |       0.0000 |       0.0000 |       0.0000 |       0.0000 |       0.0000 |       0.0000 |       0.0000 |       0.0000 |       0.0000 |       0.0000 |       0.0000 |       0.0000 |       0.0000 |       0.0000 |       0.0000 |       0.0000 |       0.0000 |       0.0000 |       0.0000 |       0.0000 |       0.0000 |       0.0000 |       0.0000 |       0.0000 |       0.0000 |       0.0000 |       0.0000 |       0.0000 |       0.0000 |       0.0000 |
itlb.inv_rate                               0.0000 |       0.0000 |       0.0000 |       0.0000 |       0.0000 |       0.0000 |       0.0000 |       0.0000 |       0.0000 |       0.0000 |       0.0000 |       0.0000 |       0.0000 |       0.0000 |       0.0000 |       0.0000 |       0.0000 |       0.0000 |       0.0000 |       0.0000 |       0.0000 |       0.0000 |       0.0000 |       0.0000 |       0.0000 |       0.0000 |       0.0000 |       0.0000 |       0.0000 |       0.0000 |       0.0000 |       0.0000 |       0.0000 |       0.0000 |       0.0000 |       0.0000 |       0.0000 |       0.0000 |       0.0000 |       0.0000 |       0.0000 |       0.0000 |       0.0000 |       0.0000 |
dtlb.accesses                               188136 |       188136 |       188136 |       188136 |       368404 |       368404 |       368404 |       368404 |       728852 |       728852 |       728852 |       728852 |      1449748 |      1449748 |      1449748 |      1449748 |      2891540 |      2891540 |      2891540 |      2891540 |      5775124 |      5775124 |      5775124 |      5775124 |     11542292 |     11542292 |     11542292 |     11542292 |     23076628 |     23076628 |     23076628 |     23076628 |     46154562 |     46154562 |     46154562 |     46154562 |     92298050 |     92298050 |     92298050 |     92298050 |    184585026 |    184585026 |    184585026 |    184585026 |
dtlb.hits                                   188121 |       188121 |       188121 |       188121 |       368381 |       368381 |       368381 |       368381 |       728813 |       728813 |       728813 |       728813 |      1449677 |      1449677 |      1449677 |      1449677 |      2891373 |      2891373 |      2891373 |      2891373 |      5763555 |      5763555 |      5763555 |      5763555 |     11014426 |     11014426 |     11014426 |     11014426 |     21746974 |     21746974 |     21746974 |     21746974 |     42897716 |     42897716 |     42897716 |     42897716 |     85101704 |     85101704 |     85101704 |     85101704 |    169401923 |    169401923 |    169401923 |    169401923 |
dtlb.misses                                     15 |           15 |           15 |           15 |           23 |           23 |           23 |           23 |           39 |           39 |           39 |           39 |           71 |           71 |           71 |           71 |          167 |          167 |          167 |          167 |        11569 |        11569 |        11569 |        11569 |       527866 |       527866 |       527866 |       527866 |      1329654 |      1329654 |      1329654 |      1329654 |      3256846 |      3256846 |      3256846 |      3256846 |      7196346 |      7196346 |      7196346 |      7196346 |     15183103 |     15183103 |     15183103 |     15183103 |
dtlb.replacements                                0 |            0 |            0 |            0 |            0 |            0 |            0 |            0 |            0 |            0 |            0 |            0 |            0 |            0 |            0 |            0 |           39 |           39 |           39 |           39 |        11441 |        11441 |        11441 |        11441 |       527738 |       527738 |       527738 |       527738 |      1329526 |      1329526 |      1329526 |      1329526 |      3256718 |      3256718 |      3256718 |      3256718 |      7196218 |      7196218 |      7196218 |      7196218 |     15182975 |     15182975 |     15182975 |     15182975 |
dtlb.writebacks                                  0 |            0 |            0 |            0 |            0 |            0 |            0 |            0 |            0 |            0 |            0 |            0 |            0 |            0 |            0 |            0 |           27 |           27 |           27 |           27 |        10310 |        10310 |        10310 |        10310 |       524816 |       524816 |       524816 |       524816 |      1323491 |      1323491 |      1323491 |      1323491 |      3244499 |      3244499 |      3244499 |      3244499 |      7171701 |      7171701 |      7171701 |      7171701 |     15133884 |     15133884 |     15133884 |     15133884 |
dtlb.invalidations                               0 |            0 |            0 |            0 |            0 |            0 |            0 |            0 |            0 |            0 |            0 |            0 |            0 |            0 |            0 |            0 |            0 |            0 |            0 |            0 |            0 |            0 |            0 |            0 |            0 |            0 |            0 |            0 |            0 |            0 |            0 |            0 |            0 |            0 |            0 |            0 |            0 |            0 |            0 |            0 |            0 |            0 |            0 |            0 |
dtlb.miss_rate                              0.0001 |       0.0001 |       0.0001 |       0.0001 |       0.0001 |       0.0001 |       0.0001 |       0.0001 |       0.0001 |       0.0001 |       0.0001 |       0.0001 |       0.0000 |       0.0000 |       0.0000 |       0.0000 |       0.0001 |       0.0001 |       0.0001 |       0.0001 |       0.0020 |       0.0020 |       0.0020 |       0.0020 |       0.0457 |       0.0457 |       0.0457 |       0.0457 |       0.0576 |       0.0576 |       0.0576 |       0.0576 |       0.0706 |       0.0706 |       0.0706 |       0.0706 |       0.0780 |       0.0780 |       0.0780 |       0.0780 |       0.0823 |       0.0823 |       0.0823 |       0.0823 |
dtlb.repl_rate                              0.0000 |       0.0000 |       0.0000 |       0.0000 |       0.0000 |       0.0000 |       0.0000 |       0.0000 |       0.0000 |       0.0000 |       0.0000 |       0.0000 |       0.0000 |       0.0000 |       0.0000 |       0.0000 |       0.0000 |       0.0000 |       0.0000 |       0.0000 |       0.0020 |       0.0020 |       0.0020 |       0.0020 |       0.0457 |       0.0457 |       0.0457 |       0.0457 |       0.0576 |       0.0576 |       0.0576 |       0.0576 |       0.0706 |       0.0706 |       0.0706 |       0.0706 |       0.0780 |       0.0780 |       0.0780 |       0.0780 |       0.0823 |       0.0823 |       0.0823 |       0.0823 |
dtlb.wb_rate                                0.0000 |       0.0000 |       0.0000 |       0.0000 |       0.0000 |       0.0000 |       0.0000 |       0.0000 |       0.0000 |       0.0000 |       0.0000 |       0.0000 |       0.0000 |       0.0000 |       0.0000 |       0.0000 |       0.0000 |       0.0000 |       0.0000 |       0.0000 |       0.0018 |       0.0018 |       0.0018 |       0.0018 |       0.0455 |       0.0455 |       0.0455 |       0.0455 |       0.0574 |       0.0574 |       0.0574 |       0.0574 |       0.0703 |       0.0703 |       0.0703 |       0.0703 |       0.0777 |       0.0777 |       0.0777 |       0.0777 |       0.0820 |       0.0820 |       0.0820 |       0.0820 |
dtlb.inv_rate                               0.0000 |       0.0000 |       0.0000 |       0.0000 |       0.0000 |       0.0000 |       0.0000 |       0.0000 |       0.0000 |       0.0000 |       0.0000 |       0.0000 |       0.0000 |       0.0000 |       0.0000 |       0.0000 |       0.0000 |       0.0000 |       0.0000 |       0.0000 |       0.0000 |       0.0000 |       0.0000 |       0.0000 |       0.0000 |       0.0000 |       0.0000 |       0.0000 |       0.0000 |       0.0000 |       0.0000 |       0.0000 |       0.0000 |       0.0000 |       0.0000 |       0.0000 |       0.0000 |       0.0000 |       0.0000 |       0.0000 |       0.0000 |       0.0000 |       0.0000 |       0.0000 |
ld_text_base                            0x00400000 |   0x00400000 |   0x00400000 |   0x00400000 |   0x00400000 |   0x00400000 |   0x00400000 |   0x00400000 |   0x00400000 |   0x00400000 |   0x00400000 |   0x00400000 |   0x00400000 |   0x00400000 |   0x00400000 |   0x00400000 |   0x00400000 |   0x00400000 |   0x00400000 |   0x00400000 |   0x00400000 |   0x00400000 |   0x00400000 |   0x00400000 |   0x00400000 |   0x00400000 |   0x00400000 |   0x00400000 |   0x00400000 |   0x00400000 |   0x00400000 |   0x00400000 |   0x00400000 |   0x00400000 |   0x00400000 |   0x00400000 |   0x00400000 |   0x00400000 |   0x00400000 |   0x00400000 |   0x00400000 |   0x00400000 |   0x00400000 |   0x00400000 |
ld_text_size                                 73136 |        73136 |        73136 |        73136 |        73168 |        73168 |        73168 |        73168 |        73184 |        73184 |        73184 |        73184 |        73200 |        73200 |        73200 |        73200 |        73200 |        73200 |        73200 |        73200 |        73200 |        73200 |        73200 |        73200 |        73200 |        73200 |        73200 |        73200 |        73200 |        73200 |        73200 |        73200 |        73200 |        73200 |        73200 |        73200 |        73200 |        73200 |        73200 |        73200 |        73200 |        73200 |        73200 |        73200 |
ld_data_base                            0x10000000 |   0x10000000 |   0x10000000 |   0x10000000 |   0x10000000 |   0x10000000 |   0x10000000 |   0x10000000 |   0x10000000 |   0x10000000 |   0x10000000 |   0x10000000 |   0x10000000 |   0x10000000 |   0x10000000 |   0x10000000 |   0x10000000 |   0x10000000 |   0x10000000 |   0x10000000 |   0x10000000 |   0x10000000 |   0x10000000 |   0x10000000 |   0x10000000 |   0x10000000 |   0x10000000 |   0x10000000 |   0x10000000 |   0x10000000 |   0x10000000 |   0x10000000 |   0x10000000 |   0x10000000 |   0x10000000 |   0x10000000 |   0x10000000 |   0x10000000 |   0x10000000 |   0x10000000 |   0x10000000 |   0x10000000 |   0x10000000 |   0x10000000 |
ld_data_size                                  8192 |         8192 |         8192 |         8192 |         8192 |         8192 |         8192 |         8192 |         8192 |         8192 |         8192 |         8192 |         8192 |         8192 |         8192 |         8192 |         8192 |         8192 |         8192 |         8192 |         8192 |         8192 |         8192 |         8192 |         8192 |         8192 |         8192 |         8192 |         8192 |         8192 |         8192 |         8192 |         8192 |         8192 |         8192 |         8192 |         8192 |         8192 |         8192 |         8192 |         8192 |         8192 |         8192 |         8192 |
ld_stack_base                           0x7fffc000 |   0x7fffc000 |   0x7fffc000 |   0x7fffc000 |   0x7fffc000 |   0x7fffc000 |   0x7fffc000 |   0x7fffc000 |   0x7fffc000 |   0x7fffc000 |   0x7fffc000 |   0x7fffc000 |   0x7fffc000 |   0x7fffc000 |   0x7fffc000 |   0x7fffc000 |   0x7fffc000 |   0x7fffc000 |   0x7fffc000 |   0x7fffc000 |   0x7fffc000 |   0x7fffc000 |   0x7fffc000 |   0x7fffc000 |   0x7fffc000 |   0x7fffc000 |   0x7fffc000 |   0x7fffc000 |   0x7fffc000 |   0x7fffc000 |   0x7fffc000 |   0x7fffc000 |   0x7fffc000 |   0x7fffc000 |   0x7fffc000 |   0x7fffc000 |   0x7fffc000 |   0x7fffc000 |   0x7fffc000 |   0x7fffc000 |   0x7fffc000 |   0x7fffc000 |   0x7fffc000 |   0x7fffc000 |
ld_stack_size                                16384 |        16384 |        16384 |        16384 |        16384 |        16384 |        16384 |        16384 |        16384 |        16384 |        16384 |        16384 |        16384 |        16384 |        16384 |        16384 |        16384 |        16384 |        16384 |        16384 |        16384 |        16384 |        16384 |        16384 |        16384 |        16384 |        16384 |        16384 |        16384 |        16384 |        16384 |        16384 |        16384 |        16384 |        16384 |        16384 |        16384 |        16384 |        16384 |        16384 |        16384 |        16384 |        16384 |        16384 |
ld_prog_entry                           0x00400140 |   0x00400140 |   0x00400140 |   0x00400140 |   0x00400140 |   0x00400140 |   0x00400140 |   0x00400140 |   0x00400140 |   0x00400140 |   0x00400140 |   0x00400140 |   0x00400140 |   0x00400140 |   0x00400140 |   0x00400140 |   0x00400140 |   0x00400140 |   0x00400140 |   0x00400140 |   0x00400140 |   0x00400140 |   0x00400140 |   0x00400140 |   0x00400140 |   0x00400140 |   0x00400140 |   0x00400140 |   0x00400140 |   0x00400140 |   0x00400140 |   0x00400140 |   0x00400140 |   0x00400140 |   0x00400140 |   0x00400140 |   0x00400140 |   0x00400140 |   0x00400140 |   0x00400140 |   0x00400140 |   0x00400140 |   0x00400140 |   0x00400140 |
ld_environ_base                         0x7fff8000 |   0x7fff8000 |   0x7fff8000 |   0x7fff8000 |   0x7fff8000 |   0x7fff8000 |   0x7fff8000 |   0x7fff8000 |   0x7fff8000 |   0x7fff8000 |   0x7fff8000 |   0x7fff8000 |   0x7fff8000 |   0x7fff8000 |   0x7fff8000 |   0x7fff8000 |   0x7fff8000 |   0x7fff8000 |   0x7fff8000 |   0x7fff8000 |   0x7fff8000 |   0x7fff8000 |   0x7fff8000 |   0x7fff8000 |   0x7fff8000 |   0x7fff8000 |   0x7fff8000 |   0x7fff8000 |   0x7fff8000 |   0x7fff8000 |   0x7fff8000 |   0x7fff8000 |   0x7fff8000 |   0x7fff8000 |   0x7fff8000 |   0x7fff8000 |   0x7fff8000 |   0x7fff8000 |   0x7fff8000 |   0x7fff8000 |   0x7fff8000 |   0x7fff8000 |   0x7fff8000 |   0x7fff8000 |
ld_target_big_endian                             0 |            0 |            0 |            0 |            0 |            0 |            0 |            0 |            0 |            0 |            0 |            0 |            0 |            0 |            0 |            0 |            0 |            0 |            0 |            0 |            0 |            0 |            0 |            0 |            0 |            0 |            0 |            0 |            0 |            0 |            0 |            0 |            0 |            0 |            0 |            0 |            0 |            0 |            0 |            0 |            0 |            0 |            0 |            0 |
mem.page_count                                  33 |           33 |           33 |           33 |           41 |           41 |           41 |           41 |           57 |           57 |           57 |           57 |           89 |           89 |           89 |           89 |          153 |          153 |          153 |          153 |          281 |          281 |          281 |          281 |          537 |          537 |          537 |          537 |         1049 |         1049 |         1049 |         1049 |         2079 |         2079 |         2079 |         2079 |         4133 |         4133 |         4133 |         4133 |         8241 |         8241 |         8241 |         8241 |
mem.page_mem                                  132k |         132k |         132k |         132k |         164k |         164k |         164k |         164k |         228k |         228k |         228k |         228k |         356k |         356k |         356k |         356k |         612k |         612k |         612k |         612k |        1124k |        1124k |        1124k |        1124k |        2148k |        2148k |        2148k |        2148k |        4196k |        4196k |        4196k |        4196k |        8316k |        8316k |        8316k |        8316k |       16532k |       16532k |       16532k |       16532k |       32964k |       32964k |       32964k |       32964k |
mem.ptab_misses                                 33 |           33 |           33 |           33 |           41 |           41 |           41 |           41 |           57 |           57 |           57 |           57 |           89 |           89 |           89 |           89 |          153 |          153 |          153 |          153 |          281 |          281 |          281 |          281 |          537 |          537 |          537 |          537 |         1049 |         1049 |         1049 |         1049 |        20514 |        20514 |        20514 |        20514 |        20524 |        20524 |        20524 |        20524 |        24632 |        24632 |        24632 |        24632 |
mem.ptab_accesses                          2554082 |      2554082 |      2554082 |      2554082 |      4586546 |      4586546 |      4586546 |      4586546 |      8649882 |      8649882 |      8649882 |      8649882 |     16776446 |     16776446 |     16776446 |     16776446 |     33029374 |     33029374 |     33029374 |     33029374 |     65535234 |     65535234 |     65535234 |     65535234 |    130546946 |    130546946 |    130546946 |    130546946 |    260570370 |    260570370 |    260570370 |    260570370 |    520685646 |    520685646 |    520685646 |    520685646 |   1040828526 |   1040828526 |   1040828526 |   1040828526 |   2081114254 |   2081114254 |   2081114254 |   2081114254 |
mem.ptab_miss_rate                          0.0000 |       0.0000 |       0.0000 |       0.0000 |       0.0000 |       0.0000 |       0.0000 |       0.0000 |       0.0000 |       0.0000 |       0.0000 |       0.0000 |       0.0000 |       0.0000 |       0.0000 |       0.0000 |       0.0000 |       0.0000 |       0.0000 |       0.0000 |       0.0000 |       0.0000 |       0.0000 |       0.0000 |       0.0000 |       0.0000 |       0.0000 |       0.0000 |       0.0000 |       0.0000 |       0.0000 |       0.0000 |       0.0000 |       0.0000 |       0.0000 |       0.0000 |       0.0000 |       0.0000 |       0.0000 |       0.0000 |       0.0000 |       0.0000 |       0.0000 |       0.0000 |
-------------------------------------------------------------------------------------------------
sim-bpred                                     4096 |         4096 |         4096 |         4096 |         4096 |         4096 |         4096 |         8192 |         8192 |         8192 |         8192 |         8192 |         8192 |         8192 |        16384 |        16384 |        16384 |        16384 |        16384 |        16384 |        16384 |        32768 |        32768 |        32768 |        32768 |        32768 |        32768 |        32768 |        65536 |        65536 |        65536 |        65536 |        65536 |        65536 |        65536 |       131072 |       131072 |       131072 |       131072 |       131072 |       131072 |       131072 |       262144 |       262144 |       262144 |       262144 |       262144 |       262144 |       262144 |       524288 |       524288 |       524288 |       524288 |       524288 |       524288 |       524288 |      1048576 |      1048576 |      1048576 |      1048576 |      1048576 |      1048576 |      1048576 |      2097152 |      2097152 |      2097152 |      2097152 |      2097152 |      2097152 |      2097152 |      4194304 |      4194304 |      4194304 |      4194304 |      4194304 |      4194304 |      4194304 |
-bpred bimod -bpred:bimod 512
-bpred bimod -bpred:bimod 1024
-bpred bimod -bpred:bimod 2048
-bpred 2lev -bpred:2lev 1 512 10 1
-bpred 2lev -bpred:2lev 1 1024 10 1
-bpred 2lev -bpred:2lev 1 2048 10 1
-bpred 2lev -bpred:2lev 1 4096 10 1
-------------------------------------------------------------------------------------------------
sim_num_insn                                431102 |       431102 |       431102 |       431102 |       431102 |       431102 |       431102 |       849036 |       849036 |       849036 |       849036 |       849036 |       849036 |       849036 |      1684622 |      1684622 |      1684622 |      1684622 |      1684622 |      1684622 |      1684622 |      3355791 |      3355791 |      3355791 |      3355791 |      3355791 |      3355791 |      3355791 |      6698127 |      6698127 |      6698127 |      6698127 |      6698127 |      6698127 |      6698127 |     13382800 |     13382800 |     13382800 |     13382800 |     13382800 |     13382800 |     13382800 |     26752144 |     26752144 |     26752144 |     26752144 |     26752144 |     26752144 |     26752144 |     53490832 |     53490832 |     53490832 |     53490832 |     53490832 |     53490832 |     53490832 |    106980684 |    106980684 |    106980684 |    106980684 |    106980684 |    106980684 |    106980684 |    213944660 |    213944660 |    213944660 |    213944660 |    213944660 |    213944660 |    213944660 |    427872604 |    427872604 |    427872604 |    427872604 |    427872604 |    427872604 |    427872604 |
sim_num_refs                                171670 |       171670 |       171670 |       171670 |       171670 |       171670 |       171670 |       335554 |       335554 |       335554 |       335554 |       335554 |       335554 |       335554 |       663234 |       663234 |       663234 |       663234 |       663234 |       663234 |       663234 |      1318594 |      1318594 |      1318594 |      1318594 |      1318594 |      1318594 |      1318594 |      2629314 |      2629314 |      2629314 |      2629314 |      2629314 |      2629314 |      2629314 |      5250754 |      5250754 |      5250754 |      5250754 |      5250754 |      5250754 |      5250754 |     10493634 |     10493634 |     10493634 |     10493634 |     10493634 |     10493634 |     10493634 |     20979394 |     20979394 |     20979394 |     20979394 |     20979394 |     20979394 |     20979394 |     41960176 |     41960176 |     41960176 |     41960176 |     41960176 |     41960176 |     41960176 |     83909360 |     83909360 |     83909360 |     83909360 |     83909360 |     83909360 |     83909360 |    167807728 |    167807728 |    167807728 |    167807728 |    167807728 |    167807728 |    167807728 |
sim_elapsed_time                                 1 |            1 |            1 |            1 |            1 |            1 |            1 |            1 |            1 |            1 |            1 |            1 |            1 |            1 |            1 |            1 |            1 |            1 |            1 |            1 |            1 |            1 |            1 |            1 |            1 |            1 |            1 |            1 |            1 |            1 |            1 |            1 |            1 |            1 |            1 |            2 |            1 |            1 |            2 |            1 |            2 |            1 |            3 |            2 |            3 |            3 |            3 |            2 |            3 |            6 |            5 |            5 |            5 |            6 |            5 |            6 |           11 |           11 |           11 |           11 |           11 |           11 |           11 |           22 |           22 |           21 |           22 |           22 |           22 |           23 |           44 |           44 |           44 |           44 |           44 |           44 |           45 |
sim_inst_rate                          431102.0000 |  431102.0000 |  431102.0000 |  431102.0000 |  431102.0000 |  431102.0000 |  431102.0000 |  849036.0000 |  849036.0000 |  849036.0000 |  849036.0000 |  849036.0000 |  849036.0000 |  849036.0000 | 1684622.0000 | 1684622.0000 | 1684622.0000 | 1684622.0000 | 1684622.0000 | 1684622.0000 | 1684622.0000 | 3355791.0000 | 3355791.0000 | 3355791.0000 | 3355791.0000 | 3355791.0000 | 3355791.0000 | 3355791.0000 | 6698127.0000 | 6698127.0000 | 6698127.0000 | 6698127.0000 | 6698127.0000 | 6698127.0000 | 6698127.0000 | 6691400.0000 |13382800.0000 |13382800.0000 | 6691400.0000 |13382800.0000 | 6691400.0000 |13382800.0000 | 8917381.3333 |13376072.0000 | 8917381.3333 | 8917381.3333 | 8917381.3333 |13376072.0000 | 8917381.3333 | 8915138.6667 |10698166.4000 |10698166.4000 |10698166.4000 | 8915138.6667 |10698166.4000 | 8915138.6667 | 9725516.7273 | 9725516.7273 | 9725516.7273 | 9725516.7273 | 9725516.7273 | 9725516.7273 | 9725516.7273 | 9724757.2727 | 9724757.2727 |10187840.9524 | 9724757.2727 | 9724757.2727 | 9724757.2727 | 9301941.7391 | 9724377.3636 | 9724377.3636 | 9724377.3636 | 9724377.3636 | 9724377.3636 | 9724377.3636 | 9508280.0889 |
sim_num_branches                             13416 |        13416 |        13416 |        13416 |        13416 |        13416 |        13416 |        25744 |        25744 |        25744 |        25744 |        25744 |        25744 |        25744 |        50320 |        50320 |        50320 |        50320 |        50320 |        50320 |        50320 |        99472 |        99472 |        99472 |        99472 |        99472 |        99472 |        99472 |       197776 |       197776 |       197776 |       197776 |       197776 |       197776 |       197776 |       394384 |       394384 |       394384 |       394384 |       394384 |       394384 |       394384 |       787600 |       787600 |       787600 |       787600 |       787600 |       787600 |       787600 |      1574032 |      1574032 |      1574032 |      1574032 |      1574032 |      1574032 |      1574032 |      3147689 |      3147689 |      3147689 |      3147689 |      3147689 |      3147689 |      3147689 |      6294188 |      6294188 |      6294188 |      6294188 |      6294188 |      6294188 |      6294188 |     12587183 |     12587183 |     12587183 |     12587183 |     12587183 |     12587183 |     12587183 |
sim_IPB                                    32.1334 |      32.1334 |      32.1334 |      32.1334 |      32.1334 |      32.1334 |      32.1334 |      32.9800 |      32.9800 |      32.9800 |      32.9800 |      32.9800 |      32.9800 |      32.9800 |      33.4782 |      33.4782 |      33.4782 |      33.4782 |      33.4782 |      33.4782 |      33.4782 |      33.7360 |      33.7360 |      33.7360 |      33.7360 |      33.7360 |      33.7360 |      33.7360 |      33.8672 |      33.8672 |      33.8672 |      33.8672 |      33.8672 |      33.8672 |      33.8672 |      33.9334 |      33.9334 |      33.9334 |      33.9334 |      33.9334 |      33.9334 |      33.9334 |      33.9667 |      33.9667 |      33.9667 |      33.9667 |      33.9667 |      33.9667 |      33.9667 |      33.9833 |      33.9833 |      33.9833 |      33.9833 |      33.9833 |      33.9833 |      33.9833 |      33.9871 |      33.9871 |      33.9871 |      33.9871 |      33.9871 |      33.9871 |      33.9871 |      33.9908 |      33.9908 |      33.9908 |      33.9908 |      33.9908 |      33.9908 |      33.9908 |      33.9927 |      33.9927 |      33.9927 |      33.9927 |      33.9927 |      33.9927 |      33.9927 |
bpred_bimod.lookups                          13416 |        13416 |        13416 |xxxxxxxxxxxxx |xxxxxxxxxxxxx |xxxxxxxxxxxxx |xxxxxxxxxxxxx |        25744 |        25744 |        25744 |xxxxxxxxxxxxx |xxxxxxxxxxxxx |xxxxxxxxxxxxx |xxxxxxxxxxxxx |        50320 |        50320 |        50320 |xxxxxxxxxxxxx |xxxxxxxxxxxxx |xxxxxxxxxxxxx |xxxxxxxxxxxxx |        99472 |        99472 |        99472 |xxxxxxxxxxxxx |xxxxxxxxxxxxx |xxxxxxxxxxxxx |xxxxxxxxxxxxx |       197776 |       197776 |       197776 |xxxxxxxxxxxxx |xxxxxxxxxxxxx |xxxxxxxxxxxxx |xxxxxxxxxxxxx |       394384 |       394384 |       394384 |xxxxxxxxxxxxx |xxxxxxxxxxxxx |xxxxxxxxxxxxx |xxxxxxxxxxxxx |       787600 |       787600 |       787600 |xxxxxxxxxxxxx |xxxxxxxxxxxxx |xxxxxxxxxxxxx |xxxxxxxxxxxxx |      1574032 |      1574032 |      1574032 |xxxxxxxxxxxxx |xxxxxxxxxxxxx |xxxxxxxxxxxxx |xxxxxxxxxxxxx |      3147689 |      3147689 |      3147689 |xxxxxxxxxxxxx |xxxxxxxxxxxxx |xxxxxxxxxxxxx |xxxxxxxxxxxxx |      6294188 |      6294188 |      6294188 |xxxxxxxxxxxxx |xxxxxxxxxxxxx |xxxxxxxxxxxxx |xxxxxxxxxxxxx |     12587183 |     12587183 |     12587183 |
bpred_bimod.updates                          13416 |        13416 |        13416 |xxxxxxxxxxxxx |xxxxxxxxxxxxx |xxxxxxxxxxxxx |xxxxxxxxxxxxx |        25744 |        25744 |        25744 |xxxxxxxxxxxxx |xxxxxxxxxxxxx |xxxxxxxxxxxxx |xxxxxxxxxxxxx |        50320 |        50320 |        50320 |xxxxxxxxxxxxx |xxxxxxxxxxxxx |xxxxxxxxxxxxx |xxxxxxxxxxxxx |        99472 |        99472 |        99472 |xxxxxxxxxxxxx |xxxxxxxxxxxxx |xxxxxxxxxxxxx |xxxxxxxxxxxxx |       197776 |       197776 |       197776 |xxxxxxxxxxxxx |xxxxxxxxxxxxx |xxxxxxxxxxxxx |xxxxxxxxxxxxx |       394384 |       394384 |       394384 |xxxxxxxxxxxxx |xxxxxxxxxxxxx |xxxxxxxxxxxxx |xxxxxxxxxxxxx |       787600 |       787600 |       787600 |xxxxxxxxxxxxx |xxxxxxxxxxxxx |xxxxxxxxxxxxx |xxxxxxxxxxxxx |      1574032 |      1574032 |      1574032 |xxxxxxxxxxxxx |xxxxxxxxxxxxx |xxxxxxxxxxxxx |xxxxxxxxxxxxx |      3147689 |      3147689 |      3147689 |xxxxxxxxxxxxx |xxxxxxxxxxxxx |xxxxxxxxxxxxx |xxxxxxxxxxxxx |      6294188 |      6294188 |      6294188 |xxxxxxxxxxxxx |xxxxxxxxxxxxx |xxxxxxxxxxxxx |xxxxxxxxxxxxx |     12587183 |     12587183 |     12587183 |
bpred_bimod.addr_hits                        13208 |        13209 |        13209 |xxxxxxxxxxxxx |xxxxxxxxxxxxx |xxxxxxxxxxxxx |xxxxxxxxxxxxx |        25528 |        25530 |        25530 |xxxxxxxxxxxxx |xxxxxxxxxxxxx |xxxxxxxxxxxxx |xxxxxxxxxxxxx |        50100 |        50104 |        50107 |xxxxxxxxxxxxx |xxxxxxxxxxxxx |xxxxxxxxxxxxx |xxxxxxxxxxxxx |        99257 |        99259 |        99259 |xxxxxxxxxxxxx |xxxxxxxxxxxxx |xxxxxxxxxxxxx |xxxxxxxxxxxxx |       197561 |       197563 |       197563 |xxxxxxxxxxxxx |xxxxxxxxxxxxx |xxxxxxxxxxxxx |xxxxxxxxxxxxx |       394169 |       394171 |       394171 |xxxxxxxxxxxxx |xxxxxxxxxxxxx |xxxxxxxxxxxxx |xxxxxxxxxxxxx |       787385 |       787387 |       787387 |xxxxxxxxxxxxx |xxxxxxxxxxxxx |xxxxxxxxxxxxx |xxxxxxxxxxxxx |      1573817 |      1573819 |      1573819 |xxxxxxxxxxxxx |xxxxxxxxxxxxx |xxxxxxxxxxxxx |xxxxxxxxxxxxx |      3147451 |      3147452 |      3147451 |xxxxxxxxxxxxx |xxxxxxxxxxxxx |xxxxxxxxxxxxx |xxxxxxxxxxxxx |      6293950 |      6293951 |      6293950 |xxxxxxxxxxxxx |xxxxxxxxxxxxx |xxxxxxxxxxxxx |xxxxxxxxxxxxx |     12586945 |     12586946 |     12586945 |
bpred_bimod.dir_hits                         13302 |        13305 |        13306 |xxxxxxxxxxxxx |xxxxxxxxxxxxx |xxxxxxxxxxxxx |xxxxxxxxxxxxx |        25625 |        25630 |        25631 |xxxxxxxxxxxxx |xxxxxxxxxxxxx |xxxxxxxxxxxxx |xxxxxxxxxxxxx |        50199 |        50204 |        50208 |xxxxxxxxxxxxx |xxxxxxxxxxxxx |xxxxxxxxxxxxx |xxxxxxxxxxxxx |        99355 |        99358 |        99359 |xxxxxxxxxxxxx |xxxxxxxxxxxxx |xxxxxxxxxxxxx |xxxxxxxxxxxxx |       197659 |       197662 |       197663 |xxxxxxxxxxxxx |xxxxxxxxxxxxx |xxxxxxxxxxxxx |xxxxxxxxxxxxx |       394268 |       394271 |       394272 |xxxxxxxxxxxxx |xxxxxxxxxxxxx |xxxxxxxxxxxxx |xxxxxxxxxxxxx |       787484 |       787487 |       787488 |xxxxxxxxxxxxx |xxxxxxxxxxxxx |xxxxxxxxxxxxx |xxxxxxxxxxxxx |      1573916 |      1573919 |      1573920 |xxxxxxxxxxxxx |xxxxxxxxxxxxx |xxxxxxxxxxxxx |xxxxxxxxxxxxx |      3147561 |      3147562 |      3147563 |xxxxxxxxxxxxx |xxxxxxxxxxxxx |xxxxxxxxxxxxx |xxxxxxxxxxxxx |      6294060 |      6294061 |      6294062 |xxxxxxxxxxxxx |xxxxxxxxxxxxx |xxxxxxxxxxxxx |xxxxxxxxxxxxx |     12587055 |     12587056 |     12587057 |
bpred_bimod.misses                             114 |          111 |          110 |xxxxxxxxxxxxx |xxxxxxxxxxxxx |xxxxxxxxxxxxx |xxxxxxxxxxxxx |          119 |          114 |          113 |xxxxxxxxxxxxx |xxxxxxxxxxxxx |xxxxxxxxxxxxx |xxxxxxxxxxxxx |          121 |          116 |          112 |xxxxxxxxxxxxx |xxxxxxxxxxxxx |xxxxxxxxxxxxx |xxxxxxxxxxxxx |          117 |          114 |          113 |xxxxxxxxxxxxx |xxxxxxxxxxxxx |xxxxxxxxxxxxx |xxxxxxxxxxxxx |          117 |          114 |          113 |xxxxxxxxxxxxx |xxxxxxxxxxxxx |xxxxxxxxxxxxx |xxxxxxxxxxxxx |          116 |          113 |          112 |xxxxxxxxxxxxx |xxxxxxxxxxxxx |xxxxxxxxxxxxx |xxxxxxxxxxxxx |          116 |          113 |          112 |xxxxxxxxxxxxx |xxxxxxxxxxxxx |xxxxxxxxxxxxx |xxxxxxxxxxxxx |          116 |          113 |          112 |xxxxxxxxxxxxx |xxxxxxxxxxxxx |xxxxxxxxxxxxx |xxxxxxxxxxxxx |          128 |          127 |          126 |xxxxxxxxxxxxx |xxxxxxxxxxxxx |xxxxxxxxxxxxx |xxxxxxxxxxxxx |          128 |          127 |          126 |xxxxxxxxxxxxx |xxxxxxxxxxxxx |xxxxxxxxxxxxx |xxxxxxxxxxxxx |          128 |          127 |          126 |
bpred_bimod.jr_hits                             61 |           61 |           61 |xxxxxxxxxxxxx |xxxxxxxxxxxxx |xxxxxxxxxxxxx |xxxxxxxxxxxxx |           69 |           69 |           69 |xxxxxxxxxxxxx |xxxxxxxxxxxxx |xxxxxxxxxxxxx |xxxxxxxxxxxxx |           69 |           69 |           69 |xxxxxxxxxxxxx |xxxxxxxxxxxxx |xxxxxxxxxxxxx |xxxxxxxxxxxxx |           69 |           69 |           69 |xxxxxxxxxxxxx |xxxxxxxxxxxxx |xxxxxxxxxxxxx |xxxxxxxxxxxxx |           69 |           69 |           69 |xxxxxxxxxxxxx |xxxxxxxxxxxxx |xxxxxxxxxxxxx |xxxxxxxxxxxxx |           69 |           69 |           69 |xxxxxxxxxxxxx |xxxxxxxxxxxxx |xxxxxxxxxxxxx |xxxxxxxxxxxxx |           69 |           69 |           69 |xxxxxxxxxxxxx |xxxxxxxxxxxxx |xxxxxxxxxxxxx |xxxxxxxxxxxxx |           69 |           69 |           69 |xxxxxxxxxxxxx |xxxxxxxxxxxxx |xxxxxxxxxxxxx |xxxxxxxxxxxxx |           72 |           72 |           72 |xxxxxxxxxxxxx |xxxxxxxxxxxxx |xxxxxxxxxxxxx |xxxxxxxxxxxxx |           72 |           72 |           72 |xxxxxxxxxxxxx |xxxxxxxxxxxxx |xxxxxxxxxxxxx |xxxxxxxxxxxxx |           72 |           72 |           72 |
bpred_bimod.jr_seen                             61 |           61 |           61 |xxxxxxxxxxxxx |xxxxxxxxxxxxx |xxxxxxxxxxxxx |xxxxxxxxxxxxx |           70 |           70 |           70 |xxxxxxxxxxxxx |xxxxxxxxxxxxx |xxxxxxxxxxxxx |xxxxxxxxxxxxx |           70 |           70 |           70 |xxxxxxxxxxxxx |xxxxxxxxxxxxx |xxxxxxxxxxxxx |xxxxxxxxxxxxx |           70 |           70 |           70 |xxxxxxxxxxxxx |xxxxxxxxxxxxx |xxxxxxxxxxxxx |xxxxxxxxxxxxx |           70 |           70 |           70 |xxxxxxxxxxxxx |xxxxxxxxxxxxx |xxxxxxxxxxxxx |xxxxxxxxxxxxx |           70 |           70 |           70 |xxxxxxxxxxxxx |xxxxxxxxxxxxx |xxxxxxxxxxxxx |xxxxxxxxxxxxx |           70 |           70 |           70 |xxxxxxxxxxxxx |xxxxxxxxxxxxx |xxxxxxxxxxxxx |xxxxxxxxxxxxx |           70 |           70 |           70 |xxxxxxxxxxxxx |xxxxxxxxxxxxx |xxxxxxxxxxxxx |xxxxxxxxxxxxx |           73 |           73 |           73 |xxxxxxxxxxxxx |xxxxxxxxxxxxx |xxxxxxxxxxxxx |xxxxxxxxxxxxx |           73 |           73 |           73 |xxxxxxxxxxxxx |xxxxxxxxxxxxx |xxxxxxxxxxxxx |xxxxxxxxxxxxx |           73 |           73 |           73 |
bpred_bimod.jr_non_ras_hits.PP                   0 |            0 |            0 |xxxxxxxxxxxxx |xxxxxxxxxxxxx |xxxxxxxxxxxxx |xxxxxxxxxxxxx |            0 |            0 |            0 |xxxxxxxxxxxxx |xxxxxxxxxxxxx |xxxxxxxxxxxxx |xxxxxxxxxxxxx |            0 |            0 |            0 |xxxxxxxxxxxxx |xxxxxxxxxxxxx |xxxxxxxxxxxxx |xxxxxxxxxxxxx |            0 |            0 |            0 |xxxxxxxxxxxxx |xxxxxxxxxxxxx |xxxxxxxxxxxxx |xxxxxxxxxxxxx |            0 |            0 |            0 |xxxxxxxxxxxxx |xxxxxxxxxxxxx |xxxxxxxxxxxxx |xxxxxxxxxxxxx |            0 |            0 |            0 |xxxxxxxxxxxxx |xxxxxxxxxxxxx |xxxxxxxxxxxxx |xxxxxxxxxxxxx |            0 |            0 |            0 |xxxxxxxxxxxxx |xxxxxxxxxxxxx |xxxxxxxxxxxxx |xxxxxxxxxxxxx |            0 |            0 |            0 |xxxxxxxxxxxxx |xxxxxxxxxxxxx |xxxxxxxxxxxxx |xxxxxxxxxxxxx |            0 |            0 |            0 |xxxxxxxxxxxxx |xxxxxxxxxxxxx |xxxxxxxxxxxxx |xxxxxxxxxxxxx |            0 |            0 |            0 |xxxxxxxxxxxxx |xxxxxxxxxxxxx |xxxxxxxxxxxxx |xxxxxxxxxxxxx |            0 |            0 |            0 |
bpred_bimod.jr_non_ras_seen.PP                   0 |            0 |            0 |xxxxxxxxxxxxx |xxxxxxxxxxxxx |xxxxxxxxxxxxx |xxxxxxxxxxxxx |            0 |            0 |            0 |xxxxxxxxxxxxx |xxxxxxxxxxxxx |xxxxxxxxxxxxx |xxxxxxxxxxxxx |            0 |            0 |            0 |xxxxxxxxxxxxx |xxxxxxxxxxxxx |xxxxxxxxxxxxx |xxxxxxxxxxxxx |            0 |            0 |            0 |xxxxxxxxxxxxx |xxxxxxxxxxxxx |xxxxxxxxxxxxx |xxxxxxxxxxxxx |            0 |            0 |            0 |xxxxxxxxxxxxx |xxxxxxxxxxxxx |xxxxxxxxxxxxx |xxxxxxxxxxxxx |            0 |            0 |            0 |xxxxxxxxxxxxx |xxxxxxxxxxxxx |xxxxxxxxxxxxx |xxxxxxxxxxxxx |            0 |            0 |            0 |xxxxxxxxxxxxx |xxxxxxxxxxxxx |xxxxxxxxxxxxx |xxxxxxxxxxxxx |            0 |            0 |            0 |xxxxxxxxxxxxx |xxxxxxxxxxxxx |xxxxxxxxxxxxx |xxxxxxxxxxxxx |            1 |            1 |            1 |xxxxxxxxxxxxx |xxxxxxxxxxxxx |xxxxxxxxxxxxx |xxxxxxxxxxxxx |            1 |            1 |            1 |xxxxxxxxxxxxx |xxxxxxxxxxxxx |xxxxxxxxxxxxx |xxxxxxxxxxxxx |            1 |            1 |            1 |
bpred_bimod.bpred_addr_rate                 0.9845 |       0.9846 |       0.9846 |xxxxxxxxxxxxx |xxxxxxxxxxxxx |xxxxxxxxxxxxx |xxxxxxxxxxxxx |       0.9916 |       0.9917 |       0.9917 |xxxxxxxxxxxxx |xxxxxxxxxxxxx |xxxxxxxxxxxxx |xxxxxxxxxxxxx |       0.9956 |       0.9957 |       0.9958 |xxxxxxxxxxxxx |xxxxxxxxxxxxx |xxxxxxxxxxxxx |xxxxxxxxxxxxx |       0.9978 |       0.9979 |       0.9979 |xxxxxxxxxxxxx |xxxxxxxxxxxxx |xxxxxxxxxxxxx |xxxxxxxxxxxxx |       0.9989 |       0.9989 |       0.9989 |xxxxxxxxxxxxx |xxxxxxxxxxxxx |xxxxxxxxxxxxx |xxxxxxxxxxxxx |       0.9995 |       0.9995 |       0.9995 |xxxxxxxxxxxxx |xxxxxxxxxxxxx |xxxxxxxxxxxxx |xxxxxxxxxxxxx |       0.9997 |       0.9997 |       0.9997 |xxxxxxxxxxxxx |xxxxxxxxxxxxx |xxxxxxxxxxxxx |xxxxxxxxxxxxx |       0.9999 |       0.9999 |       0.9999 |xxxxxxxxxxxxx |xxxxxxxxxxxxx |xxxxxxxxxxxxx |xxxxxxxxxxxxx |       0.9999 |       0.9999 |       0.9999 |xxxxxxxxxxxxx |xxxxxxxxxxxxx |xxxxxxxxxxxxx |xxxxxxxxxxxxx |       1.0000 |       1.0000 |       1.0000 |xxxxxxxxxxxxx |xxxxxxxxxxxxx |xxxxxxxxxxxxx |xxxxxxxxxxxxx |       1.0000 |       1.0000 |       1.0000 |
bpred_bimod.bpred_dir_rate                  0.9915 |       0.9917 |       0.9918 |xxxxxxxxxxxxx |xxxxxxxxxxxxx |xxxxxxxxxxxxx |xxxxxxxxxxxxx |       0.9954 |       0.9956 |       0.9956 |xxxxxxxxxxxxx |xxxxxxxxxxxxx |xxxxxxxxxxxxx |xxxxxxxxxxxxx |       0.9976 |       0.9977 |       0.9978 |xxxxxxxxxxxxx |xxxxxxxxxxxxx |xxxxxxxxxxxxx |xxxxxxxxxxxxx |       0.9988 |       0.9989 |       0.9989 |xxxxxxxxxxxxx |xxxxxxxxxxxxx |xxxxxxxxxxxxx |xxxxxxxxxxxxx |       0.9994 |       0.9994 |       0.9994 |xxxxxxxxxxxxx |xxxxxxxxxxxxx |xxxxxxxxxxxxx |xxxxxxxxxxxxx |       0.9997 |       0.9997 |       0.9997 |xxxxxxxxxxxxx |xxxxxxxxxxxxx |xxxxxxxxxxxxx |xxxxxxxxxxxxx |       0.9999 |       0.9999 |       0.9999 |xxxxxxxxxxxxx |xxxxxxxxxxxxx |xxxxxxxxxxxxx |xxxxxxxxxxxxx |       0.9999 |       0.9999 |       0.9999 |xxxxxxxxxxxxx |xxxxxxxxxxxxx |xxxxxxxxxxxxx |xxxxxxxxxxxxx |       1.0000 |       1.0000 |       1.0000 |xxxxxxxxxxxxx |xxxxxxxxxxxxx |xxxxxxxxxxxxx |xxxxxxxxxxxxx |       1.0000 |       1.0000 |       1.0000 |xxxxxxxxxxxxx |xxxxxxxxxxxxx |xxxxxxxxxxxxx |xxxxxxxxxxxxx |       1.0000 |       1.0000 |       1.0000 |
bpred_bimod.bpred_jr_rate                   1.0000 |       1.0000 |       1.0000 |xxxxxxxxxxxxx |xxxxxxxxxxxxx |xxxxxxxxxxxxx |xxxxxxxxxxxxx |       0.9857 |       0.9857 |       0.9857 |xxxxxxxxxxxxx |xxxxxxxxxxxxx |xxxxxxxxxxxxx |xxxxxxxxxxxxx |       0.9857 |       0.9857 |       0.9857 |xxxxxxxxxxxxx |xxxxxxxxxxxxx |xxxxxxxxxxxxx |xxxxxxxxxxxxx |       0.9857 |       0.9857 |       0.9857 |xxxxxxxxxxxxx |xxxxxxxxxxxxx |xxxxxxxxxxxxx |xxxxxxxxxxxxx |       0.9857 |       0.9857 |       0.9857 |xxxxxxxxxxxxx |xxxxxxxxxxxxx |xxxxxxxxxxxxx |xxxxxxxxxxxxx |       0.9857 |       0.9857 |       0.9857 |xxxxxxxxxxxxx |xxxxxxxxxxxxx |xxxxxxxxxxxxx |xxxxxxxxxxxxx |       0.9857 |       0.9857 |       0.9857 |xxxxxxxxxxxxx |xxxxxxxxxxxxx |xxxxxxxxxxxxx |xxxxxxxxxxxxx |       0.9857 |       0.9857 |       0.9857 |xxxxxxxxxxxxx |xxxxxxxxxxxxx |xxxxxxxxxxxxx |xxxxxxxxxxxxx |       0.9863 |       0.9863 |       0.9863 |xxxxxxxxxxxxx |xxxxxxxxxxxxx |xxxxxxxxxxxxx |xxxxxxxxxxxxx |       0.9863 |       0.9863 |       0.9863 |xxxxxxxxxxxxx |xxxxxxxxxxxxx |xxxxxxxxxxxxx |xxxxxxxxxxxxx |       0.9863 |       0.9863 |       0.9863 |
bpred_bimod.bpred_jr_non_ras_rate.PP       <error: |      <error: |      <error: |xxxxxxxxxxxxx |xxxxxxxxxxxxx |xxxxxxxxxxxxx |xxxxxxxxxxxxx |      <error: |      <error: |      <error: |xxxxxxxxxxxxx |xxxxxxxxxxxxx |xxxxxxxxxxxxx |xxxxxxxxxxxxx |      <error: |      <error: |      <error: |xxxxxxxxxxxxx |xxxxxxxxxxxxx |xxxxxxxxxxxxx |xxxxxxxxxxxxx |      <error: |      <error: |      <error: |xxxxxxxxxxxxx |xxxxxxxxxxxxx |xxxxxxxxxxxxx |xxxxxxxxxxxxx |      <error: |      <error: |      <error: |xxxxxxxxxxxxx |xxxxxxxxxxxxx |xxxxxxxxxxxxx |xxxxxxxxxxxxx |      <error: |      <error: |      <error: |xxxxxxxxxxxxx |xxxxxxxxxxxxx |xxxxxxxxxxxxx |xxxxxxxxxxxxx |      <error: |      <error: |      <error: |xxxxxxxxxxxxx |xxxxxxxxxxxxx |xxxxxxxxxxxxx |xxxxxxxxxxxxx |      <error: |      <error: |      <error: |xxxxxxxxxxxxx |xxxxxxxxxxxxx |xxxxxxxxxxxxx |xxxxxxxxxxxxx |       0.0000 |       0.0000 |       0.0000 |xxxxxxxxxxxxx |xxxxxxxxxxxxx |xxxxxxxxxxxxx |xxxxxxxxxxxxx |       0.0000 |       0.0000 |       0.0000 |xxxxxxxxxxxxx |xxxxxxxxxxxxx |xxxxxxxxxxxxx |xxxxxxxxxxxxx |       0.0000 |       0.0000 |       0.0000 |
bpred_bimod.retstack_pushes                     63 |           63 |           63 |xxxxxxxxxxxxx |xxxxxxxxxxxxx |xxxxxxxxxxxxx |xxxxxxxxxxxxx |           72 |           72 |           72 |xxxxxxxxxxxxx |xxxxxxxxxxxxx |xxxxxxxxxxxxx |xxxxxxxxxxxxx |           72 |           72 |           72 |xxxxxxxxxxxxx |xxxxxxxxxxxxx |xxxxxxxxxxxxx |xxxxxxxxxxxxx |           72 |           72 |           72 |xxxxxxxxxxxxx |xxxxxxxxxxxxx |xxxxxxxxxxxxx |xxxxxxxxxxxxx |           72 |           72 |           72 |xxxxxxxxxxxxx |xxxxxxxxxxxxx |xxxxxxxxxxxxx |xxxxxxxxxxxxx |           72 |           72 |           72 |xxxxxxxxxxxxx |xxxxxxxxxxxxx |xxxxxxxxxxxxx |xxxxxxxxxxxxx |           72 |           72 |           72 |xxxxxxxxxxxxx |xxxxxxxxxxxxx |xxxxxxxxxxxxx |xxxxxxxxxxxxx |           72 |           72 |           72 |xxxxxxxxxxxxx |xxxxxxxxxxxxx |xxxxxxxxxxxxx |xxxxxxxxxxxxx |           74 |           74 |           74 |xxxxxxxxxxxxx |xxxxxxxxxxxxx |xxxxxxxxxxxxx |xxxxxxxxxxxxx |           74 |           74 |           74 |xxxxxxxxxxxxx |xxxxxxxxxxxxx |xxxxxxxxxxxxx |xxxxxxxxxxxxx |           74 |           74 |           74 |
bpred_bimod.retstack_pops                       61 |           61 |           61 |xxxxxxxxxxxxx |xxxxxxxxxxxxx |xxxxxxxxxxxxx |xxxxxxxxxxxxx |           70 |           70 |           70 |xxxxxxxxxxxxx |xxxxxxxxxxxxx |xxxxxxxxxxxxx |xxxxxxxxxxxxx |           70 |           70 |           70 |xxxxxxxxxxxxx |xxxxxxxxxxxxx |xxxxxxxxxxxxx |xxxxxxxxxxxxx |           70 |           70 |           70 |xxxxxxxxxxxxx |xxxxxxxxxxxxx |xxxxxxxxxxxxx |xxxxxxxxxxxxx |           70 |           70 |           70 |xxxxxxxxxxxxx |xxxxxxxxxxxxx |xxxxxxxxxxxxx |xxxxxxxxxxxxx |           70 |           70 |           70 |xxxxxxxxxxxxx |xxxxxxxxxxxxx |xxxxxxxxxxxxx |xxxxxxxxxxxxx |           70 |           70 |           70 |xxxxxxxxxxxxx |xxxxxxxxxxxxx |xxxxxxxxxxxxx |xxxxxxxxxxxxx |           70 |           70 |           70 |xxxxxxxxxxxxx |xxxxxxxxxxxxx |xxxxxxxxxxxxx |xxxxxxxxxxxxx |           72 |           72 |           72 |xxxxxxxxxxxxx |xxxxxxxxxxxxx |xxxxxxxxxxxxx |xxxxxxxxxxxxx |           72 |           72 |           72 |xxxxxxxxxxxxx |xxxxxxxxxxxxx |xxxxxxxxxxxxx |xxxxxxxxxxxxx |           72 |           72 |           72 |
bpred_bimod.used_ras.PP                         61 |           61 |           61 |xxxxxxxxxxxxx |xxxxxxxxxxxxx |xxxxxxxxxxxxx |xxxxxxxxxxxxx |           70 |           70 |           70 |xxxxxxxxxxxxx |xxxxxxxxxxxxx |xxxxxxxxxxxxx |xxxxxxxxxxxxx |           70 |           70 |           70 |xxxxxxxxxxxxx |xxxxxxxxxxxxx |xxxxxxxxxxxxx |xxxxxxxxxxxxx |           70 |           70 |           70 |xxxxxxxxxxxxx |xxxxxxxxxxxxx |xxxxxxxxxxxxx |xxxxxxxxxxxxx |           70 |           70 |           70 |xxxxxxxxxxxxx |xxxxxxxxxxxxx |xxxxxxxxxxxxx |xxxxxxxxxxxxx |           70 |           70 |           70 |xxxxxxxxxxxxx |xxxxxxxxxxxxx |xxxxxxxxxxxxx |xxxxxxxxxxxxx |           70 |           70 |           70 |xxxxxxxxxxxxx |xxxxxxxxxxxxx |xxxxxxxxxxxxx |xxxxxxxxxxxxx |           70 |           70 |           70 |xxxxxxxxxxxxx |xxxxxxxxxxxxx |xxxxxxxxxxxxx |xxxxxxxxxxxxx |           72 |           72 |           72 |xxxxxxxxxxxxx |xxxxxxxxxxxxx |xxxxxxxxxxxxx |xxxxxxxxxxxxx |           72 |           72 |           72 |xxxxxxxxxxxxx |xxxxxxxxxxxxx |xxxxxxxxxxxxx |xxxxxxxxxxxxx |           72 |           72 |           72 |
bpred_bimod.ras_hits.PP                         61 |           61 |           61 |xxxxxxxxxxxxx |xxxxxxxxxxxxx |xxxxxxxxxxxxx |xxxxxxxxxxxxx |           69 |           69 |           69 |xxxxxxxxxxxxx |xxxxxxxxxxxxx |xxxxxxxxxxxxx |xxxxxxxxxxxxx |           69 |           69 |           69 |xxxxxxxxxxxxx |xxxxxxxxxxxxx |xxxxxxxxxxxxx |xxxxxxxxxxxxx |           69 |           69 |           69 |xxxxxxxxxxxxx |xxxxxxxxxxxxx |xxxxxxxxxxxxx |xxxxxxxxxxxxx |           69 |           69 |           69 |xxxxxxxxxxxxx |xxxxxxxxxxxxx |xxxxxxxxxxxxx |xxxxxxxxxxxxx |           69 |           69 |           69 |xxxxxxxxxxxxx |xxxxxxxxxxxxx |xxxxxxxxxxxxx |xxxxxxxxxxxxx |           69 |           69 |           69 |xxxxxxxxxxxxx |xxxxxxxxxxxxx |xxxxxxxxxxxxx |xxxxxxxxxxxxx |           69 |           69 |           69 |xxxxxxxxxxxxx |xxxxxxxxxxxxx |xxxxxxxxxxxxx |xxxxxxxxxxxxx |           72 |           72 |           72 |xxxxxxxxxxxxx |xxxxxxxxxxxxx |xxxxxxxxxxxxx |xxxxxxxxxxxxx |           72 |           72 |           72 |xxxxxxxxxxxxx |xxxxxxxxxxxxx |xxxxxxxxxxxxx |xxxxxxxxxxxxx |           72 |           72 |           72 |
bpred_bimod.ras_rate.PP                     1.0000 |       1.0000 |       1.0000 |xxxxxxxxxxxxx |xxxxxxxxxxxxx |xxxxxxxxxxxxx |xxxxxxxxxxxxx |       0.9857 |       0.9857 |       0.9857 |xxxxxxxxxxxxx |xxxxxxxxxxxxx |xxxxxxxxxxxxx |xxxxxxxxxxxxx |       0.9857 |       0.9857 |       0.9857 |xxxxxxxxxxxxx |xxxxxxxxxxxxx |xxxxxxxxxxxxx |xxxxxxxxxxxxx |       0.9857 |       0.9857 |       0.9857 |xxxxxxxxxxxxx |xxxxxxxxxxxxx |xxxxxxxxxxxxx |xxxxxxxxxxxxx |       0.9857 |       0.9857 |       0.9857 |xxxxxxxxxxxxx |xxxxxxxxxxxxx |xxxxxxxxxxxxx |xxxxxxxxxxxxx |       0.9857 |       0.9857 |       0.9857 |xxxxxxxxxxxxx |xxxxxxxxxxxxx |xxxxxxxxxxxxx |xxxxxxxxxxxxx |       0.9857 |       0.9857 |       0.9857 |xxxxxxxxxxxxx |xxxxxxxxxxxxx |xxxxxxxxxxxxx |xxxxxxxxxxxxx |       0.9857 |       0.9857 |       0.9857 |xxxxxxxxxxxxx |xxxxxxxxxxxxx |xxxxxxxxxxxxx |xxxxxxxxxxxxx |       1.0000 |       1.0000 |       1.0000 |xxxxxxxxxxxxx |xxxxxxxxxxxxx |xxxxxxxxxxxxx |xxxxxxxxxxxxx |       1.0000 |       1.0000 |       1.0000 |xxxxxxxxxxxxx |xxxxxxxxxxxxx |xxxxxxxxxxxxx |xxxxxxxxxxxxx |       1.0000 |       1.0000 |       1.0000 |
bpred_2lev.lookups                   xxxxxxxxxxxxx |xxxxxxxxxxxxx |xxxxxxxxxxxxx |        13416 |        13416 |        13416 |        13416 |xxxxxxxxxxxxx |xxxxxxxxxxxxx |xxxxxxxxxxxxx |        25744 |        25744 |        25744 |        25744 |xxxxxxxxxxxxx |xxxxxxxxxxxxx |xxxxxxxxxxxxx |        50320 |        50320 |        50320 |        50320 |xxxxxxxxxxxxx |xxxxxxxxxxxxx |xxxxxxxxxxxxx |        99472 |        99472 |        99472 |        99472 |xxxxxxxxxxxxx |xxxxxxxxxxxxx |xxxxxxxxxxxxx |       197776 |       197776 |       197776 |       197776 |xxxxxxxxxxxxx |xxxxxxxxxxxxx |xxxxxxxxxxxxx |       394384 |       394384 |       394384 |       394384 |xxxxxxxxxxxxx |xxxxxxxxxxxxx |xxxxxxxxxxxxx |       787600 |       787600 |       787600 |       787600 |xxxxxxxxxxxxx |xxxxxxxxxxxxx |xxxxxxxxxxxxx |      1574032 |      1574032 |      1574032 |      1574032 |xxxxxxxxxxxxx |xxxxxxxxxxxxx |xxxxxxxxxxxxx |      3147689 |      3147689 |      3147689 |      3147689 |xxxxxxxxxxxxx |xxxxxxxxxxxxx |xxxxxxxxxxxxx |      6294188 |      6294188 |      6294188 |      6294188 |xxxxxxxxxxxxx |xxxxxxxxxxxxx |xxxxxxxxxxxxx |     12587183 |     12587183 |     12587183 |     12587183 |
[...]
bpred_2lev.retstack_pushes           xxxxxxxxxxxxx |xxxxxxxxxxxxx |xxxxxxxxxxxxx |           63 |           63 |           63 |           63 |xxxxxxxxxxxxx |xxxxxxxxxxxxx |xxxxxxxxxxxxx |           72 |           72 |           72 |           72 |xxxxxxxxxxxxx |xxxxxxxxxxxxx |xxxxxxxxxxxxx |           72 |           72 |           72 |           72 |xxxxxxxxxxxxx |xxxxxxxxxxxxx |xxxxxxxxxxxxx |           72 |           72 |           72 |           72 |xxxxxxxxxxxxx |xxxxxxxxxxxxx |xxxxxxxxxxxxx |           72 |           72 |           72 |           72 |xxxxxxxxxxxxx |xxxxxxxxxxxxx |xxxxxxxxxxxxx |           72 |           72 |           72 |           72 |xxxxxxxxxxxxx |xxxxxxxxxxxxx |xxxxxxxxxxxxx |           72 |           72 |           72 |           72 |xxxxxxxxxxxxx |xxxxxxxxxxxxx |xxxxxxxxxxxxx |           72 |           72 |           72 |           72 |xxxxxxxxxxxxx |xxxxxxxxxxxxx |xxxxxxxxxxxxx |           74 |           74 |           74 |           74 |xxxxxxxxxxxxx |xxxxxxxxxxxxx |xxxxxxxxxxxxx |           74 |           74 |           74 |           74 |xxxxxxxxxxxxx |xxxxxxxxxxxxx |xxxxxxxxxxxxx |           74 |           74 |           74 |           74 |
bpred_2lev.retstack_pops             xxxxxxxxxxxxx |xxxxxxxxxxxxx |xxxxxxxxxxxxx |           61 |           61 |           61 |           61 |xxxxxxxxxxxxx |xxxxxxxxxxxxx |xxxxxxxxxxxxx |           70 |           70 |           70 |           70 |xxxxxxxxxxxxx |xxxxxxxxxxxxx |xxxxxxxxxxxxx |           70 |           70 |           70 |           70 |xxxxxxxxxxxxx |xxxxxxxxxxxxx |xxxxxxxxxxxxx |           70 |           70 |           70 |           70 |xxxxxxxxxxxxx |xxxxxxxxxxxxx |xxxxxxxxxxxxx |           70 |           70 |           70 |           70 |xxxxxxxxxxxxx |xxxxxxxxxxxxx |xxxxxxxxxxxxx |           70 |           70 |           70 |           70 |xxxxxxxxxxxxx |xxxxxxxxxxxxx |xxxxxxxxxxxxx |           70 |           70 |           70 |           70 |xxxxxxxxxxxxx |xxxxxxxxxxxxx |xxxxxxxxxxxxx |           70 |           70 |           70 |           70 |xxxxxxxxxxxxx |xxxxxxxxxxxxx |xxxxxxxxxxxxx |           72 |           72 |           72 |           72 |xxxxxxxxxxxxx |xxxxxxxxxxxxx |xxxxxxxxxxxxx |           72 |           72 |           72 |           72 |xxxxxxxxxxxxx |xxxxxxxxxxxxx |xxxxxxxxxxxxx |           72 |           72 |           72 |           72 |
bpred_2lev.used_ras.PP               xxxxxxxxxxxxx |xxxxxxxxxxxxx |xxxxxxxxxxxxx |           61 |           61 |           61 |           61 |xxxxxxxxxxxxx |xxxxxxxxxxxxx |xxxxxxxxxxxxx |           70 |           70 |           70 |           70 |xxxxxxxxxxxxx |xxxxxxxxxxxxx |xxxxxxxxxxxxx |           70 |           70 |           70 |           70 |xxxxxxxxxxxxx |xxxxxxxxxxxxx |xxxxxxxxxxxxx |           70 |           70 |           70 |           70 |xxxxxxxxxxxxx |xxxxxxxxxxxxx |xxxxxxxxxxxxx |           70 |           70 |           70 |           70 |xxxxxxxxxxxxx |xxxxxxxxxxxxx |xxxxxxxxxxxxx |           70 |           70 |           70 |           70 |xxxxxxxxxxxxx |xxxxxxxxxxxxx |xxxxxxxxxxxxx |           70 |           70 |           70 |           70 |xxxxxxxxxxxxx |xxxxxxxxxxxxx |xxxxxxxxxxxxx |           70 |           70 |           70 |           70 |xxxxxxxxxxxxx |xxxxxxxxxxxxx |xxxxxxxxxxxxx |           72 |           72 |           72 |           72 |xxxxxxxxxxxxx |xxxxxxxxxxxxx |xxxxxxxxxxxxx |           72 |           72 |           72 |           72 |xxxxxxxxxxxxx |xxxxxxxxxxxxx |xxxxxxxxxxxxx |           72 |           72 |           72 |           72 |
bpred_2lev.ras_hits.PP               xxxxxxxxxxxxx |xxxxxxxxxxxxx |xxxxxxxxxxxxx |           61 |           61 |           61 |           61 |xxxxxxxxxxxxx |xxxxxxxxxxxxx |xxxxxxxxxxxxx |           69 |           69 |           69 |           69 |xxxxxxxxxxxxx |xxxxxxxxxxxxx |xxxxxxxxxxxxx |           69 |           69 |           69 |           69 |xxxxxxxxxxxxx |xxxxxxxxxxxxx |xxxxxxxxxxxxx |           69 |           69 |           69 |           69 |xxxxxxxxxxxxx |xxxxxxxxxxxxx |xxxxxxxxxxxxx |           69 |           69 |           69 |           69 |xxxxxxxxxxxxx |xxxxxxxxxxxxx |xxxxxxxxxxxxx |           69 |           69 |           69 |           69 |xxxxxxxxxxxxx |xxxxxxxxxxxxx |xxxxxxxxxxxxx |           69 |           69 |           69 |           69 |xxxxxxxxxxxxx |xxxxxxxxxxxxx |xxxxxxxxxxxxx |           69 |           69 |           69 |           69 |xxxxxxxxxxxxx |xxxxxxxxxxxxx |xxxxxxxxxxxxx |           72 |           72 |           72 |           72 |xxxxxxxxxxxxx |xxxxxxxxxxxxx |xxxxxxxxxxxxx |           72 |           72 |           72 |           72 |xxxxxxxxxxxxx |xxxxxxxxxxxxx |xxxxxxxxxxxxx |           72 |           72 |           72 |           72 |
bpred_2lev.ras_rate.PP               xxxxxxxxxxxxx |xxxxxxxxxxxxx |xxxxxxxxxxxxx |       1.0000 |       1.0000 |       1.0000 |       1.0000 |xxxxxxxxxxxxx |xxxxxxxxxxxxx |xxxxxxxxxxxxx |       0.9857 |       0.9857 |       0.9857 |       0.9857 |xxxxxxxxxxxxx |xxxxxxxxxxxxx |xxxxxxxxxxxxx |       0.9857 |       0.9857 |       0.9857 |       0.9857 |xxxxxxxxxxxxx |xxxxxxxxxxxxx |xxxxxxxxxxxxx |       0.9857 |       0.9857 |       0.9857 |       0.9857 |xxxxxxxxxxxxx |xxxxxxxxxxxxx |xxxxxxxxxxxxx |       0.9857 |       0.9857 |       0.9857 |       0.9857 |xxxxxxxxxxxxx |xxxxxxxxxxxxx |xxxxxxxxxxxxx |       0.9857 |       0.9857 |       0.9857 |       0.9857 |xxxxxxxxxxxxx |xxxxxxxxxxxxx |xxxxxxxxxxxxx |       0.9857 |       0.9857 |       0.9857 |       0.9857 |xxxxxxxxxxxxx |xxxxxxxxxxxxx |xxxxxxxxxxxxx |       0.9857 |       0.9857 |       0.9857 |       0.9857 |xxxxxxxxxxxxx |xxxxxxxxxxxxx |xxxxxxxxxxxxx |       1.0000 |       1.0000 |       1.0000 |       1.0000 |xxxxxxxxxxxxx |xxxxxxxxxxxxx |xxxxxxxxxxxxx |       1.0000 |       1.0000 |       1.0000 |       1.0000 |xxxxxxxxxxxxx |xxxxxxxxxxxxx |xxxxxxxxxxxxx |       1.0000 |       1.0000 |       1.0000 |       1.0000 |

Command list: 
	sslittle-na-sstrix-gcc -Wall -O3 -funroll-loops -finline-functions  -DRANDOM_SIZE=4096 -DOFFSET=4 -DSORT=base_radixsort sorts/base_radixsort663313802.c simpleMain.c -o base_radixsort66890979
	sim-cache -cache:dl1 dl1:256:32:1:l -cache:dl2 dl2:131072:32:1:l -cache:il1 il1:256:32:1:l -cache:il2 dl2 base_radixsort66890979
	sim-cache -cache:dl1 dl1:256:32:1:l -cache:dl2 dl2:65536:32:1:l -cache:il1 il1:256:32:1:l -cache:il2 dl2 base_radixsort66890979
	sim-cache -cache:dl1 dl1:1:32:256:l -cache:dl2 dl2:1:32:131072:l -cache:il1 il1:1:32:256:l -cache:il2 dl2 base_radixsort66890979
	sim-cache -cache:dl1 dl1:1:32:256:l -cache:dl2 dl2:1:32:65536:l -cache:il1 il1:1:32:256:l -cache:il2 dl2 base_radixsort66890979
	sim-bpred -bpred bimod -bpred:bimod 512 base_radixsort66890979
	sim-bpred -bpred bimod -bpred:bimod 1024 base_radixsort66890979
	sim-bpred -bpred bimod -bpred:bimod 2048 base_radixsort66890979
	sim-bpred -bpred 2lev -bpred:2lev 1 512 10 1 base_radixsort66890979
	sim-bpred -bpred 2lev -bpred:2lev 1 1024 10 1 base_radixsort66890979
	sim-bpred -bpred 2lev -bpred:2lev 1 2048 10 1 base_radixsort66890979
	sim-bpred -bpred 2lev -bpred:2lev 1 4096 10 1 base_radixsort66890979
	sslittle-na-sstrix-gcc -Wall -O3 -funroll-loops -finline-functions  -DRANDOM_SIZE=8192 -DOFFSET=4 -DSORT=base_radixsort sorts/base_radixsort663313802.c simpleMain.c -o base_radixsort66890979
	sim-cache -cache:dl1 dl1:256:32:1:l -cache:dl2 dl2:131072:32:1:l -cache:il1 il1:256:32:1:l -cache:il2 dl2 base_radixsort66890979
	sim-cache -cache:dl1 dl1:256:32:1:l -cache:dl2 dl2:65536:32:1:l -cache:il1 il1:256:32:1:l -cache:il2 dl2 base_radixsort66890979
	sim-cache -cache:dl1 dl1:1:32:256:l -cache:dl2 dl2:1:32:131072:l -cache:il1 il1:1:32:256:l -cache:il2 dl2 base_radixsort66890979
	sim-cache -cache:dl1 dl1:1:32:256:l -cache:dl2 dl2:1:32:65536:l -cache:il1 il1:1:32:256:l -cache:il2 dl2 base_radixsort66890979
	sim-bpred -bpred bimod -bpred:bimod 512 base_radixsort66890979
	sim-bpred -bpred bimod -bpred:bimod 1024 base_radixsort66890979
	sim-bpred -bpred bimod -bpred:bimod 2048 base_radixsort66890979
	sim-bpred -bpred 2lev -bpred:2lev 1 512 10 1 base_radixsort66890979
	sim-bpred -bpred 2lev -bpred:2lev 1 1024 10 1 base_radixsort66890979
	sim-bpred -bpred 2lev -bpred:2lev 1 2048 10 1 base_radixsort66890979
	sim-bpred -bpred 2lev -bpred:2lev 1 4096 10 1 base_radixsort66890979
	sslittle-na-sstrix-gcc -Wall -O3 -funroll-loops -finline-functions  -DRANDOM_SIZE=16384 -DOFFSET=4 -DSORT=base_radixsort sorts/base_radixsort663313802.c simpleMain.c -o base_radixsort66890979
	sim-cache -cache:dl1 dl1:256:32:1:l -cache:dl2 dl2:131072:32:1:l -cache:il1 il1:256:32:1:l -cache:il2 dl2 base_radixsort66890979
	sim-cache -cache:dl1 dl1:256:32:1:l -cache:dl2 dl2:65536:32:1:l -cache:il1 il1:256:32:1:l -cache:il2 dl2 base_radixsort66890979
	sim-cache -cache:dl1 dl1:1:32:256:l -cache:dl2 dl2:1:32:131072:l -cache:il1 il1:1:32:256:l -cache:il2 dl2 base_radixsort66890979
	sim-cache -cache:dl1 dl1:1:32:256:l -cache:dl2 dl2:1:32:65536:l -cache:il1 il1:1:32:256:l -cache:il2 dl2 base_radixsort66890979
	sim-bpred -bpred bimod -bpred:bimod 512 base_radixsort66890979
	sim-bpred -bpred bimod -bpred:bimod 1024 base_radixsort66890979
	sim-bpred -bpred bimod -bpred:bimod 2048 base_radixsort66890979
	sim-bpred -bpred 2lev -bpred:2lev 1 512 10 1 base_radixsort66890979
	sim-bpred -bpred 2lev -bpred:2lev 1 1024 10 1 base_radixsort66890979
	sim-bpred -bpred 2lev -bpred:2lev 1 2048 10 1 base_radixsort66890979
	sim-bpred -bpred 2lev -bpred:2lev 1 4096 10 1 base_radixsort66890979
	sslittle-na-sstrix-gcc -Wall -O3 -funroll-loops -finline-functions  -DRANDOM_SIZE=32768 -DOFFSET=4 -DSORT=base_radixsort sorts/base_radixsort663313802.c simpleMain.c -o base_radixsort66890979
	sim-cache -cache:dl1 dl1:256:32:1:l -cache:dl2 dl2:131072:32:1:l -cache:il1 il1:256:32:1:l -cache:il2 dl2 base_radixsort66890979
	sim-cache -cache:dl1 dl1:256:32:1:l -cache:dl2 dl2:65536:32:1:l -cache:il1 il1:256:32:1:l -cache:il2 dl2 base_radixsort66890979
	sim-cache -cache:dl1 dl1:1:32:256:l -cache:dl2 dl2:1:32:131072:l -cache:il1 il1:1:32:256:l -cache:il2 dl2 base_radixsort66890979
	sim-cache -cache:dl1 dl1:1:32:256:l -cache:dl2 dl2:1:32:65536:l -cache:il1 il1:1:32:256:l -cache:il2 dl2 base_radixsort66890979
	sim-bpred -bpred bimod -bpred:bimod 512 base_radixsort66890979
	sim-bpred -bpred bimod -bpred:bimod 1024 base_radixsort66890979
	sim-bpred -bpred bimod -bpred:bimod 2048 base_radixsort66890979
	sim-bpred -bpred 2lev -bpred:2lev 1 512 10 1 base_radixsort66890979
	sim-bpred -bpred 2lev -bpred:2lev 1 1024 10 1 base_radixsort66890979
	sim-bpred -bpred 2lev -bpred:2lev 1 2048 10 1 base_radixsort66890979
	sim-bpred -bpred 2lev -bpred:2lev 1 4096 10 1 base_radixsort66890979
	sslittle-na-sstrix-gcc -Wall -O3 -funroll-loops -finline-functions  -DRANDOM_SIZE=65536 -DOFFSET=4 -DSORT=base_radixsort sorts/base_radixsort663313802.c simpleMain.c -o base_radixsort66890979
	sim-cache -cache:dl1 dl1:256:32:1:l -cache:dl2 dl2:131072:32:1:l -cache:il1 il1:256:32:1:l -cache:il2 dl2 base_radixsort66890979
	sim-cache -cache:dl1 dl1:256:32:1:l -cache:dl2 dl2:65536:32:1:l -cache:il1 il1:256:32:1:l -cache:il2 dl2 base_radixsort66890979
	sim-cache -cache:dl1 dl1:1:32:256:l -cache:dl2 dl2:1:32:131072:l -cache:il1 il1:1:32:256:l -cache:il2 dl2 base_radixsort66890979
	sim-cache -cache:dl1 dl1:1:32:256:l -cache:dl2 dl2:1:32:65536:l -cache:il1 il1:1:32:256:l -cache:il2 dl2 base_radixsort66890979
	sim-bpred -bpred bimod -bpred:bimod 512 base_radixsort66890979
	sim-bpred -bpred bimod -bpred:bimod 1024 base_radixsort66890979
	sim-bpred -bpred bimod -bpred:bimod 2048 base_radixsort66890979
	sim-bpred -bpred 2lev -bpred:2lev 1 512 10 1 base_radixsort66890979
	sim-bpred -bpred 2lev -bpred:2lev 1 1024 10 1 base_radixsort66890979
	sim-bpred -bpred 2lev -bpred:2lev 1 2048 10 1 base_radixsort66890979
	sim-bpred -bpred 2lev -bpred:2lev 1 4096 10 1 base_radixsort66890979
	sslittle-na-sstrix-gcc -Wall -O3 -funroll-loops -finline-functions  -DRANDOM_SIZE=131072 -DOFFSET=4 -DSORT=base_radixsort sorts/base_radixsort663313802.c simpleMain.c -o base_radixsort66890979
	sim-cache -cache:dl1 dl1:256:32:1:l -cache:dl2 dl2:131072:32:1:l -cache:il1 il1:256:32:1:l -cache:il2 dl2 base_radixsort66890979
	sim-cache -cache:dl1 dl1:256:32:1:l -cache:dl2 dl2:65536:32:1:l -cache:il1 il1:256:32:1:l -cache:il2 dl2 base_radixsort66890979
	sim-cache -cache:dl1 dl1:1:32:256:l -cache:dl2 dl2:1:32:131072:l -cache:il1 il1:1:32:256:l -cache:il2 dl2 base_radixsort66890979
	sim-cache -cache:dl1 dl1:1:32:256:l -cache:dl2 dl2:1:32:65536:l -cache:il1 il1:1:32:256:l -cache:il2 dl2 base_radixsort66890979
	sim-bpred -bpred bimod -bpred:bimod 512 base_radixsort66890979
	sim-bpred -bpred bimod -bpred:bimod 1024 base_radixsort66890979
	sim-bpred -bpred bimod -bpred:bimod 2048 base_radixsort66890979
	sim-bpred -bpred 2lev -bpred:2lev 1 512 10 1 base_radixsort66890979
	sim-bpred -bpred 2lev -bpred:2lev 1 1024 10 1 base_radixsort66890979
	sim-bpred -bpred 2lev -bpred:2lev 1 2048 10 1 base_radixsort66890979
	sim-bpred -bpred 2lev -bpred:2lev 1 4096 10 1 base_radixsort66890979
	sslittle-na-sstrix-gcc -Wall -O3 -funroll-loops -finline-functions  -DRANDOM_SIZE=262144 -DOFFSET=4 -DSORT=base_radixsort sorts/base_radixsort663313802.c simpleMain.c -o base_radixsort66890979
	sim-cache -cache:dl1 dl1:256:32:1:l -cache:dl2 dl2:131072:32:1:l -cache:il1 il1:256:32:1:l -cache:il2 dl2 base_radixsort66890979
	sim-cache -cache:dl1 dl1:256:32:1:l -cache:dl2 dl2:65536:32:1:l -cache:il1 il1:256:32:1:l -cache:il2 dl2 base_radixsort66890979
	sim-cache -cache:dl1 dl1:1:32:256:l -cache:dl2 dl2:1:32:131072:l -cache:il1 il1:1:32:256:l -cache:il2 dl2 base_radixsort66890979
	sim-cache -cache:dl1 dl1:1:32:256:l -cache:dl2 dl2:1:32:65536:l -cache:il1 il1:1:32:256:l -cache:il2 dl2 base_radixsort66890979
	sim-bpred -bpred bimod -bpred:bimod 512 base_radixsort66890979
	sim-bpred -bpred bimod -bpred:bimod 1024 base_radixsort66890979
	sim-bpred -bpred bimod -bpred:bimod 2048 base_radixsort66890979
	sim-bpred -bpred 2lev -bpred:2lev 1 512 10 1 base_radixsort66890979
	sim-bpred -bpred 2lev -bpred:2lev 1 1024 10 1 base_radixsort66890979
	sim-bpred -bpred 2lev -bpred:2lev 1 2048 10 1 base_radixsort66890979
	sim-bpred -bpred 2lev -bpred:2lev 1 4096 10 1 base_radixsort66890979
	sslittle-na-sstrix-gcc -Wall -O3 -funroll-loops -finline-functions  -DRANDOM_SIZE=524288 -DOFFSET=4 -DSORT=base_radixsort sorts/base_radixsort663313802.c simpleMain.c -o base_radixsort66890979
	sim-cache -cache:dl1 dl1:256:32:1:l -cache:dl2 dl2:131072:32:1:l -cache:il1 il1:256:32:1:l -cache:il2 dl2 base_radixsort66890979
	sim-cache -cache:dl1 dl1:256:32:1:l -cache:dl2 dl2:65536:32:1:l -cache:il1 il1:256:32:1:l -cache:il2 dl2 base_radixsort66890979
	sim-cache -cache:dl1 dl1:1:32:256:l -cache:dl2 dl2:1:32:131072:l -cache:il1 il1:1:32:256:l -cache:il2 dl2 base_radixsort66890979
	sim-cache -cache:dl1 dl1:1:32:256:l -cache:dl2 dl2:1:32:65536:l -cache:il1 il1:1:32:256:l -cache:il2 dl2 base_radixsort66890979
	sim-bpred -bpred bimod -bpred:bimod 512 base_radixsort66890979
	sim-bpred -bpred bimod -bpred:bimod 1024 base_radixsort66890979
	sim-bpred -bpred bimod -bpred:bimod 2048 base_radixsort66890979
	sim-bpred -bpred 2lev -bpred:2lev 1 512 10 1 base_radixsort66890979
	sim-bpred -bpred 2lev -bpred:2lev 1 1024 10 1 base_radixsort66890979
	sim-bpred -bpred 2lev -bpred:2lev 1 2048 10 1 base_radixsort66890979
	sim-bpred -bpred 2lev -bpred:2lev 1 4096 10 1 base_radixsort66890979
	sslittle-na-sstrix-gcc -Wall -O3 -funroll-loops -finline-functions  -DRANDOM_SIZE=1048576 -DOFFSET=4 -DSORT=base_radixsort sorts/base_radixsort663313802.c simpleMain.c -o base_radixsort66890979
	sim-cache -cache:dl1 dl1:256:32:1:l -cache:dl2 dl2:131072:32:1:l -cache:il1 il1:256:32:1:l -cache:il2 dl2 base_radixsort66890979
	sim-cache -cache:dl1 dl1:256:32:1:l -cache:dl2 dl2:65536:32:1:l -cache:il1 il1:256:32:1:l -cache:il2 dl2 base_radixsort66890979
	sim-cache -cache:dl1 dl1:1:32:256:l -cache:dl2 dl2:1:32:131072:l -cache:il1 il1:1:32:256:l -cache:il2 dl2 base_radixsort66890979
	sim-cache -cache:dl1 dl1:1:32:256:l -cache:dl2 dl2:1:32:65536:l -cache:il1 il1:1:32:256:l -cache:il2 dl2 base_radixsort66890979
	sim-bpred -bpred bimod -bpred:bimod 512 base_radixsort66890979
	sim-bpred -bpred bimod -bpred:bimod 1024 base_radixsort66890979
	sim-bpred -bpred bimod -bpred:bimod 2048 base_radixsort66890979
	sim-bpred -bpred 2lev -bpred:2lev 1 512 10 1 base_radixsort66890979
	sim-bpred -bpred 2lev -bpred:2lev 1 1024 10 1 base_radixsort66890979
	sim-bpred -bpred 2lev -bpred:2lev 1 2048 10 1 base_radixsort66890979
	sim-bpred -bpred 2lev -bpred:2lev 1 4096 10 1 base_radixsort66890979
	sslittle-na-sstrix-gcc -Wall -O3 -funroll-loops -finline-functions  -DRANDOM_SIZE=2097152 -DOFFSET=4 -DSORT=base_radixsort sorts/base_radixsort663313802.c simpleMain.c -o base_radixsort66890979
	sim-cache -cache:dl1 dl1:256:32:1:l -cache:dl2 dl2:131072:32:1:l -cache:il1 il1:256:32:1:l -cache:il2 dl2 base_radixsort66890979
	sim-cache -cache:dl1 dl1:256:32:1:l -cache:dl2 dl2:65536:32:1:l -cache:il1 il1:256:32:1:l -cache:il2 dl2 base_radixsort66890979
	sim-cache -cache:dl1 dl1:1:32:256:l -cache:dl2 dl2:1:32:131072:l -cache:il1 il1:1:32:256:l -cache:il2 dl2 base_radixsort66890979
	sim-cache -cache:dl1 dl1:1:32:256:l -cache:dl2 dl2:1:32:65536:l -cache:il1 il1:1:32:256:l -cache:il2 dl2 base_radixsort66890979
	sim-bpred -bpred bimod -bpred:bimod 512 base_radixsort66890979
	sim-bpred -bpred bimod -bpred:bimod 1024 base_radixsort66890979
	sim-bpred -bpred bimod -bpred:bimod 2048 base_radixsort66890979
	sim-bpred -bpred 2lev -bpred:2lev 1 512 10 1 base_radixsort66890979
	sim-bpred -bpred 2lev -bpred:2lev 1 1024 10 1 base_radixsort66890979
	sim-bpred -bpred 2lev -bpred:2lev 1 2048 10 1 base_radixsort66890979
	sim-bpred -bpred 2lev -bpred:2lev 1 4096 10 1 base_radixsort66890979
	sslittle-na-sstrix-gcc -Wall -O3 -funroll-loops -finline-functions  -DRANDOM_SIZE=4194304 -DOFFSET=4 -DSORT=base_radixsort sorts/base_radixsort663313802.c simpleMain.c -o base_radixsort66890979
	sim-cache -cache:dl1 dl1:256:32:1:l -cache:dl2 dl2:131072:32:1:l -cache:il1 il1:256:32:1:l -cache:il2 dl2 base_radixsort66890979
	sim-cache -cache:dl1 dl1:256:32:1:l -cache:dl2 dl2:65536:32:1:l -cache:il1 il1:256:32:1:l -cache:il2 dl2 base_radixsort66890979
	sim-cache -cache:dl1 dl1:1:32:256:l -cache:dl2 dl2:1:32:131072:l -cache:il1 il1:1:32:256:l -cache:il2 dl2 base_radixsort66890979
	sim-cache -cache:dl1 dl1:1:32:256:l -cache:dl2 dl2:1:32:65536:l -cache:il1 il1:1:32:256:l -cache:il2 dl2 base_radixsort66890979
	sim-bpred -bpred bimod -bpred:bimod 512 base_radixsort66890979
	sim-bpred -bpred bimod -bpred:bimod 1024 base_radixsort66890979
	sim-bpred -bpred bimod -bpred:bimod 2048 base_radixsort66890979
	sim-bpred -bpred 2lev -bpred:2lev 1 512 10 1 base_radixsort66890979
	sim-bpred -bpred 2lev -bpred:2lev 1 1024 10 1 base_radixsort66890979
	sim-bpred -bpred 2lev -bpred:2lev 1 2048 10 1 base_radixsort66890979
	sim-bpred -bpred 2lev -bpred:2lev 1 4096 10 1 base_radixsort66890979
