Sat Jul 30 06:29:23 2005
Run as: "./do_simple -c random.org8 -o 8 base_quicksort7"
-------------------------------------------------------------------------------------------------
sim-cache                                     4096 |         4096 |         4096 |         4096 |         8192 |         8192 |         8192 |         8192 |        16384 |        16384 |        16384 |        16384 |        32768 |        32768 |        32768 |        32768 |        65536 |        65536 |        65536 |        65536 |       131072 |       131072 |       131072 |       131072 |       262144 |       262144 |       262144 |       262144 |       524288 |       524288 |       524288 |       524288 |      1048576 |      1048576 |      1048576 |      1048576 |      2097152 |      2097152 |      2097152 |      2097152 |      4194304 |      4194304 |      4194304 |      4194304 |
-cache:dl1 dl1:256:32:1:l -cache:dl2 dl2:131072:32:1:l -cache:il1 il1:256:32:1:l -cache:il2 dl2
-cache:dl1 dl1:256:32:1:l -cache:dl2 dl2:65536:32:1:l -cache:il1 il1:256:32:1:l -cache:il2 dl2
-cache:dl1 dl1:1:32:256:l -cache:dl2 dl2:1:32:131072:l -cache:il1 il1:1:32:256:l -cache:il2 dl2
-cache:dl1 dl1:1:32:256:l -cache:dl2 dl2:1:32:65536:l -cache:il1 il1:1:32:256:l -cache:il2 dl2
-------------------------------------------------------------------------------------------------
sim_num_insn                                483309 |       483309 |       483309 |       483309 |      1042141 |      1042141 |      1042141 |      1042141 |      2173810 |      2173810 |      2173810 |      2173810 |      4699846 |      4699846 |      4699846 |      4699846 |      9815694 |      9815694 |      9815694 |      9815694 |     20710091 |     20710091 |     20710091 |     20710091 |     44037292 |     44037292 |     44037292 |     44037292 |     93067164 |     93067164 |     93067164 |     93067164 |    195160736 |    195160736 |    195160736 |    195160736 |    404169610 |    404169610 |    404169610 |    404169610 |    855378441 |    855378441 |    855378441 |    855378441 |
sim_num_refs                                127193 |       127193 |       127193 |       127193 |       268805 |       268805 |       268805 |       268805 |       560830 |       560830 |       560830 |       560830 |      1194802 |      1194802 |      1194802 |      1194802 |      2499787 |      2499787 |      2499787 |      2499787 |      5258878 |      5258878 |      5258878 |      5258878 |     11094680 |     11094680 |     11094680 |     11094680 |     23340188 |     23340188 |     23340188 |     23340188 |     48815455 |     48815455 |     48815455 |     48815455 |    101337357 |    101337357 |    101337357 |    101337357 |    212753375 |    212753375 |    212753375 |    212753375 |
sim_elapsed_time                                 1 |            1 |            7 |            4 |            1 |            1 |           10 |            6 |            1 |            1 |           16 |            8 |            1 |            1 |           27 |           14 |            3 |            2 |           48 |           25 |            5 |            6 |           89 |           44 |           12 |           12 |          164 |           76 |           25 |           25 |          281 |          110 |           52 |           52 |          391 |          138 |          108 |          109 |          451 |          198 |          229 |          229 |          578 |          326 |
sim_inst_rate                          483309.0000 |  483309.0000 |   69044.1429 |  120827.2500 | 1042141.0000 | 1042141.0000 |  104214.1000 |  173690.1667 | 2173810.0000 | 2173810.0000 |  135863.1250 |  271726.2500 | 4699846.0000 | 4699846.0000 |  174068.3704 |  335703.2857 | 3271898.0000 | 4907847.0000 |  204493.6250 |  392627.7600 | 4142018.2000 | 3451681.8333 |  232697.6517 |  470683.8864 | 3669774.3333 | 3669774.3333 |  268520.0732 |  579438.0526 | 3722686.5600 | 3722686.5600 |  331199.8719 |  846065.1273 | 3753091.0769 | 3753091.0769 |  499132.3171 | 1414208.2319 | 3742311.2037 | 3707978.0734 |  896163.2151 | 2041260.6566 | 3735277.0349 | 3735277.0349 | 1479893.4965 | 2623860.2485 |
il1.accesses                                483309 |       483309 |       483309 |       483309 |      1042141 |      1042141 |      1042141 |      1042141 |      2173810 |      2173810 |      2173810 |      2173810 |      4699846 |      4699846 |      4699846 |      4699846 |      9815694 |      9815694 |      9815694 |      9815694 |     20710091 |     20710091 |     20710091 |     20710091 |     44037292 |     44037292 |     44037292 |     44037292 |     93067164 |     93067164 |     93067164 |     93067164 |    195160736 |    195160736 |    195160736 |    195160736 |    404169610 |    404169610 |    404169610 |    404169610 |    855378441 |    855378441 |    855378441 |    855378441 |
il1.hits                                    482842 |       482842 |       482871 |       482871 |      1041673 |      1041673 |      1041701 |      1041701 |      2173330 |      2173330 |      2173366 |      2173366 |      4699377 |      4699377 |      4699405 |      4699405 |      9815225 |      9815225 |      9815253 |      9815253 |     20709623 |     20709623 |     20709651 |     20709651 |     44036824 |     44036824 |     44036852 |     44036852 |     93066696 |     93066696 |     93066724 |     93066724 |    195160268 |    195160268 |    195160296 |    195160296 |    404169142 |    404169142 |    404169170 |    404169170 |    855377973 |    855377973 |    855378001 |    855378001 |
il1.misses                                     467 |          467 |          438 |          438 |          468 |          468 |          440 |          440 |          480 |          480 |          444 |          444 |          469 |          469 |          441 |          441 |          469 |          469 |          441 |          441 |          468 |          468 |          440 |          440 |          468 |          468 |          440 |          440 |          468 |          468 |          440 |          440 |          468 |          468 |          440 |          440 |          468 |          468 |          440 |          440 |          468 |          468 |          440 |          440 |
il1.replacements                               225 |          225 |          182 |          182 |          226 |          226 |          184 |          184 |          240 |          240 |          188 |          188 |          228 |          228 |          185 |          185 |          228 |          228 |          185 |          185 |          228 |          228 |          184 |          184 |          228 |          228 |          184 |          184 |          228 |          228 |          184 |          184 |          228 |          228 |          184 |          184 |          228 |          228 |          184 |          184 |          228 |          228 |          184 |          184 |
il1.writebacks                                   0 |            0 |            0 |            0 |            0 |            0 |            0 |            0 |            0 |            0 |            0 |            0 |            0 |            0 |            0 |            0 |            0 |            0 |            0 |            0 |            0 |            0 |            0 |            0 |            0 |            0 |            0 |            0 |            0 |            0 |            0 |            0 |            0 |            0 |            0 |            0 |            0 |            0 |            0 |            0 |            0 |            0 |            0 |            0 |
il1.invalidations                                0 |            0 |            0 |            0 |            0 |            0 |            0 |            0 |            0 |            0 |            0 |            0 |            0 |            0 |            0 |            0 |            0 |            0 |            0 |            0 |            0 |            0 |            0 |            0 |            0 |            0 |            0 |            0 |            0 |            0 |            0 |            0 |            0 |            0 |            0 |            0 |            0 |            0 |            0 |            0 |            0 |            0 |            0 |            0 |
il1.miss_rate                               0.0010 |       0.0010 |       0.0009 |       0.0009 |       0.0004 |       0.0004 |       0.0004 |       0.0004 |       0.0002 |       0.0002 |       0.0002 |       0.0002 |       0.0001 |       0.0001 |       0.0001 |       0.0001 |       0.0000 |       0.0000 |       0.0000 |       0.0000 |       0.0000 |       0.0000 |       0.0000 |       0.0000 |       0.0000 |       0.0000 |       0.0000 |       0.0000 |       0.0000 |       0.0000 |       0.0000 |       0.0000 |       0.0000 |       0.0000 |       0.0000 |       0.0000 |       0.0000 |       0.0000 |       0.0000 |       0.0000 |       0.0000 |       0.0000 |       0.0000 |       0.0000 |
il1.repl_rate                               0.0005 |       0.0005 |       0.0004 |       0.0004 |       0.0002 |       0.0002 |       0.0002 |       0.0002 |       0.0001 |       0.0001 |       0.0001 |       0.0001 |       0.0000 |       0.0000 |       0.0000 |       0.0000 |       0.0000 |       0.0000 |       0.0000 |       0.0000 |       0.0000 |       0.0000 |       0.0000 |       0.0000 |       0.0000 |       0.0000 |       0.0000 |       0.0000 |       0.0000 |       0.0000 |       0.0000 |       0.0000 |       0.0000 |       0.0000 |       0.0000 |       0.0000 |       0.0000 |       0.0000 |       0.0000 |       0.0000 |       0.0000 |       0.0000 |       0.0000 |       0.0000 |
il1.wb_rate                                 0.0000 |       0.0000 |       0.0000 |       0.0000 |       0.0000 |       0.0000 |       0.0000 |       0.0000 |       0.0000 |       0.0000 |       0.0000 |       0.0000 |       0.0000 |       0.0000 |       0.0000 |       0.0000 |       0.0000 |       0.0000 |       0.0000 |       0.0000 |       0.0000 |       0.0000 |       0.0000 |       0.0000 |       0.0000 |       0.0000 |       0.0000 |       0.0000 |       0.0000 |       0.0000 |       0.0000 |       0.0000 |       0.0000 |       0.0000 |       0.0000 |       0.0000 |       0.0000 |       0.0000 |       0.0000 |       0.0000 |       0.0000 |       0.0000 |       0.0000 |       0.0000 |
il1.inv_rate                                0.0000 |       0.0000 |       0.0000 |       0.0000 |       0.0000 |       0.0000 |       0.0000 |       0.0000 |       0.0000 |       0.0000 |       0.0000 |       0.0000 |       0.0000 |       0.0000 |       0.0000 |       0.0000 |       0.0000 |       0.0000 |       0.0000 |       0.0000 |       0.0000 |       0.0000 |       0.0000 |       0.0000 |       0.0000 |       0.0000 |       0.0000 |       0.0000 |       0.0000 |       0.0000 |       0.0000 |       0.0000 |       0.0000 |       0.0000 |       0.0000 |       0.0000 |       0.0000 |       0.0000 |       0.0000 |       0.0000 |       0.0000 |       0.0000 |       0.0000 |       0.0000 |
dl1.accesses                                143659 |       143659 |       143659 |       143659 |       301655 |       301655 |       301655 |       301655 |       626448 |       626448 |       626448 |       626448 |      1325956 |      1325956 |      1325956 |      1325956 |      2762013 |      2762013 |      2762013 |      2762013 |      5783248 |      5783248 |      5783248 |      5783248 |     12143338 |     12143338 |     12143338 |     12143338 |     25437422 |     25437422 |     25437422 |     25437422 |     53009841 |     53009841 |     53009841 |     53009841 |    109726047 |    109726047 |    109726047 |    109726047 |    229530673 |    229530673 |    229530673 |    229530673 |
dl1.hits                                    140888 |       140888 |       140922 |       140922 |       295312 |       295312 |       295141 |       295141 |       613363 |       613363 |       613259 |       613259 |      1294026 |      1294026 |      1293984 |      1293984 |      2692641 |      2692641 |      2692844 |      2692844 |      5627343 |      5627343 |      5627733 |      5627733 |     11787634 |     11787634 |     11790525 |     11790525 |     24640516 |     24640516 |     24646854 |     24646854 |     51280137 |     51280137 |     51295758 |     51295758 |    106074097 |    106074097 |    106116550 |    106116550 |    221379145 |    221379145 |    221477964 |    221477964 |
dl1.misses                                    2771 |         2771 |         2737 |         2737 |         6343 |         6343 |         6514 |         6514 |        13085 |        13085 |        13189 |        13189 |        31930 |        31930 |        31972 |        31972 |        69372 |        69372 |        69169 |        69169 |       155905 |       155905 |       155515 |       155515 |       355704 |       355704 |       352813 |       352813 |       796906 |       796906 |       790568 |       790568 |      1729704 |      1729704 |      1714083 |      1714083 |      3651950 |      3651950 |      3609497 |      3609497 |      8151528 |      8151528 |      8052709 |      8052709 |
dl1.replacements                              2515 |         2515 |         2481 |         2481 |         6087 |         6087 |         6258 |         6258 |        12829 |        12829 |        12933 |        12933 |        31674 |        31674 |        31716 |        31716 |        69116 |        69116 |        68913 |        68913 |       155649 |       155649 |       155259 |       155259 |       355448 |       355448 |       352557 |       352557 |       796650 |       796650 |       790312 |       790312 |      1729448 |      1729448 |      1713827 |      1713827 |      3651694 |      3651694 |      3609241 |      3609241 |      8151272 |      8151272 |      8052453 |      8052453 |
dl1.writebacks                                2416 |         2416 |         2403 |         2403 |         5792 |         5792 |         5959 |         5959 |        12557 |        12557 |        12745 |        12745 |        30189 |        30189 |        30489 |        30489 |        67319 |        67319 |        67751 |        67751 |       151190 |       151190 |       152273 |       152273 |       340990 |       340990 |       341711 |       341711 |       755385 |       755385 |       757404 |       757404 |      1642057 |      1642057 |      1644998 |      1644998 |      3518674 |      3518674 |      3517702 |      3517702 |      7728808 |      7728808 |      7722253 |      7722253 |
dl1.invalidations                                0 |            0 |            0 |            0 |            0 |            0 |            0 |            0 |            0 |            0 |            0 |            0 |            0 |            0 |            0 |            0 |            0 |            0 |            0 |            0 |            0 |            0 |            0 |            0 |            0 |            0 |            0 |            0 |            0 |            0 |            0 |            0 |            0 |            0 |            0 |            0 |            0 |            0 |            0 |            0 |            0 |            0 |            0 |            0 |
dl1.miss_rate                               0.0193 |       0.0193 |       0.0191 |       0.0191 |       0.0210 |       0.0210 |       0.0216 |       0.0216 |       0.0209 |       0.0209 |       0.0211 |       0.0211 |       0.0241 |       0.0241 |       0.0241 |       0.0241 |       0.0251 |       0.0251 |       0.0250 |       0.0250 |       0.0270 |       0.0270 |       0.0269 |       0.0269 |       0.0293 |       0.0293 |       0.0291 |       0.0291 |       0.0313 |       0.0313 |       0.0311 |       0.0311 |       0.0326 |       0.0326 |       0.0323 |       0.0323 |       0.0333 |       0.0333 |       0.0329 |       0.0329 |       0.0355 |       0.0355 |       0.0351 |       0.0351 |
dl1.repl_rate                               0.0175 |       0.0175 |       0.0173 |       0.0173 |       0.0202 |       0.0202 |       0.0207 |       0.0207 |       0.0205 |       0.0205 |       0.0206 |       0.0206 |       0.0239 |       0.0239 |       0.0239 |       0.0239 |       0.0250 |       0.0250 |       0.0250 |       0.0250 |       0.0269 |       0.0269 |       0.0268 |       0.0268 |       0.0293 |       0.0293 |       0.0290 |       0.0290 |       0.0313 |       0.0313 |       0.0311 |       0.0311 |       0.0326 |       0.0326 |       0.0323 |       0.0323 |       0.0333 |       0.0333 |       0.0329 |       0.0329 |       0.0355 |       0.0355 |       0.0351 |       0.0351 |
dl1.wb_rate                                 0.0168 |       0.0168 |       0.0167 |       0.0167 |       0.0192 |       0.0192 |       0.0198 |       0.0198 |       0.0200 |       0.0200 |       0.0203 |       0.0203 |       0.0228 |       0.0228 |       0.0230 |       0.0230 |       0.0244 |       0.0244 |       0.0245 |       0.0245 |       0.0261 |       0.0261 |       0.0263 |       0.0263 |       0.0281 |       0.0281 |       0.0281 |       0.0281 |       0.0297 |       0.0297 |       0.0298 |       0.0298 |       0.0310 |       0.0310 |       0.0310 |       0.0310 |       0.0321 |       0.0321 |       0.0321 |       0.0321 |       0.0337 |       0.0337 |       0.0336 |       0.0336 |
dl1.inv_rate                                0.0000 |       0.0000 |       0.0000 |       0.0000 |       0.0000 |       0.0000 |       0.0000 |       0.0000 |       0.0000 |       0.0000 |       0.0000 |       0.0000 |       0.0000 |       0.0000 |       0.0000 |       0.0000 |       0.0000 |       0.0000 |       0.0000 |       0.0000 |       0.0000 |       0.0000 |       0.0000 |       0.0000 |       0.0000 |       0.0000 |       0.0000 |       0.0000 |       0.0000 |       0.0000 |       0.0000 |       0.0000 |       0.0000 |       0.0000 |       0.0000 |       0.0000 |       0.0000 |       0.0000 |       0.0000 |       0.0000 |       0.0000 |       0.0000 |       0.0000 |       0.0000 |
dl2.accesses                                  5654 |         5654 |         5578 |         5578 |        12603 |        12603 |        12913 |        12913 |        26122 |        26122 |        26378 |        26378 |        62588 |        62588 |        62902 |        62902 |       137160 |       137160 |       137361 |       137361 |       307563 |       307563 |       308228 |       308228 |       697162 |       697162 |       694964 |       694964 |      1552759 |      1552759 |      1548412 |      1548412 |      3372229 |      3372229 |      3359521 |      3359521 |      7171092 |      7171092 |      7127639 |      7127639 |     15880804 |     15880804 |     15775402 |     15775402 |
dl2.hits                                      4269 |         4269 |         4207 |         4207 |        10704 |        10704 |        11028 |        11028 |        23202 |        23202 |        23475 |        23475 |        57623 |        57623 |        57951 |        57951 |       128099 |       128099 |       128314 |       128314 |       290311 |       290311 |       290990 |       290990 |       663526 |       663526 |       661342 |       661342 |      1486355 |      1485578 |      1482022 |      1413503 |      3239502 |      2912719 |      3130905 |      2850499 |      6254390 |      5965442 |      6145463 |      5872737 |     13359636 |     12652891 |     13091949 |     12423825 |
dl2.misses                                    1385 |         1385 |         1371 |         1371 |         1899 |         1899 |         1885 |         1885 |         2920 |         2920 |         2903 |         2903 |         4965 |         4965 |         4951 |         4951 |         9061 |         9061 |         9047 |         9047 |        17252 |        17252 |        17238 |        17238 |        33636 |        33636 |        33622 |        33622 |        66404 |        67181 |        66390 |       134909 |       132727 |       459510 |       228616 |       509022 |       916702 |      1205650 |       982176 |      1254902 |      2521168 |      3227913 |      2683453 |      3351577 |
dl2.replacements                               171 |          171 |            0 |            0 |          170 |          170 |            0 |            0 |          171 |          171 |            0 |            0 |          169 |          169 |            0 |            0 |          169 |          169 |            0 |            0 |          169 |          169 |            0 |            0 |          169 |          169 |            0 |            0 |          169 |         1645 |            0 |        69373 |         1655 |       393974 |        97544 |       443486 |       785630 |      1140114 |       851104 |      1189366 |      2390096 |      3162377 |      2552381 |      3286041 |
dl2.writebacks                                 104 |          104 |            0 |            0 |          104 |          104 |            0 |            0 |          105 |          105 |            0 |            0 |          104 |          104 |            0 |            0 |          104 |          104 |            0 |            0 |          104 |          104 |            0 |            0 |          104 |          104 |            0 |            0 |          104 |         1320 |            0 |        69062 |         1331 |       393309 |        97233 |       442629 |       784635 |      1136976 |       849290 |      1186014 |      2351951 |      3071212 |      2504321 |      3189033 |
dl2.invalidations                                0 |            0 |            0 |            0 |            0 |            0 |            0 |            0 |            0 |            0 |            0 |            0 |            0 |            0 |            0 |            0 |            0 |            0 |            0 |            0 |            0 |            0 |            0 |            0 |            0 |            0 |            0 |            0 |            0 |            0 |            0 |            0 |            0 |            0 |            0 |            0 |            0 |            0 |            0 |            0 |            0 |            0 |            0 |            0 |
dl2.miss_rate                               0.2450 |       0.2450 |       0.2458 |       0.2458 |       0.1507 |       0.1507 |       0.1460 |       0.1460 |       0.1118 |       0.1118 |       0.1101 |       0.1101 |       0.0793 |       0.0793 |       0.0787 |       0.0787 |       0.0661 |       0.0661 |       0.0659 |       0.0659 |       0.0561 |       0.0561 |       0.0559 |       0.0559 |       0.0482 |       0.0482 |       0.0484 |       0.0484 |       0.0428 |       0.0433 |       0.0429 |       0.0871 |       0.0394 |       0.1363 |       0.0681 |       0.1515 |       0.1278 |       0.1681 |       0.1378 |       0.1761 |       0.1588 |       0.2033 |       0.1701 |       0.2125 |
dl2.repl_rate                               0.0302 |       0.0302 |       0.0000 |       0.0000 |       0.0135 |       0.0135 |       0.0000 |       0.0000 |       0.0065 |       0.0065 |       0.0000 |       0.0000 |       0.0027 |       0.0027 |       0.0000 |       0.0000 |       0.0012 |       0.0012 |       0.0000 |       0.0000 |       0.0005 |       0.0005 |       0.0000 |       0.0000 |       0.0002 |       0.0002 |       0.0000 |       0.0000 |       0.0001 |       0.0011 |       0.0000 |       0.0448 |       0.0005 |       0.1168 |       0.0290 |       0.1320 |       0.1096 |       0.1590 |       0.1194 |       0.1669 |       0.1505 |       0.1991 |       0.1618 |       0.2083 |
dl2.wb_rate                                 0.0184 |       0.0184 |       0.0000 |       0.0000 |       0.0083 |       0.0083 |       0.0000 |       0.0000 |       0.0040 |       0.0040 |       0.0000 |       0.0000 |       0.0017 |       0.0017 |       0.0000 |       0.0000 |       0.0008 |       0.0008 |       0.0000 |       0.0000 |       0.0003 |       0.0003 |       0.0000 |       0.0000 |       0.0001 |       0.0001 |       0.0000 |       0.0000 |       0.0001 |       0.0009 |       0.0000 |       0.0446 |       0.0004 |       0.1166 |       0.0289 |       0.1318 |       0.1094 |       0.1585 |       0.1192 |       0.1664 |       0.1481 |       0.1934 |       0.1587 |       0.2022 |
dl2.inv_rate                                0.0000 |       0.0000 |       0.0000 |       0.0000 |       0.0000 |       0.0000 |       0.0000 |       0.0000 |       0.0000 |       0.0000 |       0.0000 |       0.0000 |       0.0000 |       0.0000 |       0.0000 |       0.0000 |       0.0000 |       0.0000 |       0.0000 |       0.0000 |       0.0000 |       0.0000 |       0.0000 |       0.0000 |       0.0000 |       0.0000 |       0.0000 |       0.0000 |       0.0000 |       0.0000 |       0.0000 |       0.0000 |       0.0000 |       0.0000 |       0.0000 |       0.0000 |       0.0000 |       0.0000 |       0.0000 |       0.0000 |       0.0000 |       0.0000 |       0.0000 |       0.0000 |
itlb.accesses                               483309 |       483309 |       483309 |       483309 |      1042141 |      1042141 |      1042141 |      1042141 |      2173810 |      2173810 |      2173810 |      2173810 |      4699846 |      4699846 |      4699846 |      4699846 |      9815694 |      9815694 |      9815694 |      9815694 |     20710091 |     20710091 |     20710091 |     20710091 |     44037292 |     44037292 |     44037292 |     44037292 |     93067164 |     93067164 |     93067164 |     93067164 |    195160736 |    195160736 |    195160736 |    195160736 |    404169610 |    404169610 |    404169610 |    404169610 |    855378441 |    855378441 |    855378441 |    855378441 |
itlb.hits                                   483299 |       483299 |       483299 |       483299 |      1042131 |      1042131 |      1042131 |      1042131 |      2173800 |      2173800 |      2173800 |      2173800 |      4699836 |      4699836 |      4699836 |      4699836 |      9815684 |      9815684 |      9815684 |      9815684 |     20710081 |     20710081 |     20710081 |     20710081 |     44037282 |     44037282 |     44037282 |     44037282 |     93067154 |     93067154 |     93067154 |     93067154 |    195160726 |    195160726 |    195160726 |    195160726 |    404169600 |    404169600 |    404169600 |    404169600 |    855378431 |    855378431 |    855378431 |    855378431 |
itlb.misses                                     10 |           10 |           10 |           10 |           10 |           10 |           10 |           10 |           10 |           10 |           10 |           10 |           10 |           10 |           10 |           10 |           10 |           10 |           10 |           10 |           10 |           10 |           10 |           10 |           10 |           10 |           10 |           10 |           10 |           10 |           10 |           10 |           10 |           10 |           10 |           10 |           10 |           10 |           10 |           10 |           10 |           10 |           10 |           10 |
itlb.replacements                                0 |            0 |            0 |            0 |            0 |            0 |            0 |            0 |            0 |            0 |            0 |            0 |            0 |            0 |            0 |            0 |            0 |            0 |            0 |            0 |            0 |            0 |            0 |            0 |            0 |            0 |            0 |            0 |            0 |            0 |            0 |            0 |            0 |            0 |            0 |            0 |            0 |            0 |            0 |            0 |            0 |            0 |            0 |            0 |
itlb.writebacks                                  0 |            0 |            0 |            0 |            0 |            0 |            0 |            0 |            0 |            0 |            0 |            0 |            0 |            0 |            0 |            0 |            0 |            0 |            0 |            0 |            0 |            0 |            0 |            0 |            0 |            0 |            0 |            0 |            0 |            0 |            0 |            0 |            0 |            0 |            0 |            0 |            0 |            0 |            0 |            0 |            0 |            0 |            0 |            0 |
itlb.invalidations                               0 |            0 |            0 |            0 |            0 |            0 |            0 |            0 |            0 |            0 |            0 |            0 |            0 |            0 |            0 |            0 |            0 |            0 |            0 |            0 |            0 |            0 |            0 |            0 |            0 |            0 |            0 |            0 |            0 |            0 |            0 |            0 |            0 |            0 |            0 |            0 |            0 |            0 |            0 |            0 |            0 |            0 |            0 |            0 |
itlb.miss_rate                              0.0000 |       0.0000 |       0.0000 |       0.0000 |       0.0000 |       0.0000 |       0.0000 |       0.0000 |       0.0000 |       0.0000 |       0.0000 |       0.0000 |       0.0000 |       0.0000 |       0.0000 |       0.0000 |       0.0000 |       0.0000 |       0.0000 |       0.0000 |       0.0000 |       0.0000 |       0.0000 |       0.0000 |       0.0000 |       0.0000 |       0.0000 |       0.0000 |       0.0000 |       0.0000 |       0.0000 |       0.0000 |       0.0000 |       0.0000 |       0.0000 |       0.0000 |       0.0000 |       0.0000 |       0.0000 |       0.0000 |       0.0000 |       0.0000 |       0.0000 |       0.0000 |
itlb.repl_rate                              0.0000 |       0.0000 |       0.0000 |       0.0000 |       0.0000 |       0.0000 |       0.0000 |       0.0000 |       0.0000 |       0.0000 |       0.0000 |       0.0000 |       0.0000 |       0.0000 |       0.0000 |       0.0000 |       0.0000 |       0.0000 |       0.0000 |       0.0000 |       0.0000 |       0.0000 |       0.0000 |       0.0000 |       0.0000 |       0.0000 |       0.0000 |       0.0000 |       0.0000 |       0.0000 |       0.0000 |       0.0000 |       0.0000 |       0.0000 |       0.0000 |       0.0000 |       0.0000 |       0.0000 |       0.0000 |       0.0000 |       0.0000 |       0.0000 |       0.0000 |       0.0000 |
itlb.wb_rate                                0.0000 |       0.0000 |       0.0000 |       0.0000 |       0.0000 |       0.0000 |       0.0000 |       0.0000 |       0.0000 |       0.0000 |       0.0000 |       0.0000 |       0.0000 |       0.0000 |       0.0000 |       0.0000 |       0.0000 |       0.0000 |       0.0000 |       0.0000 |       0.0000 |       0.0000 |       0.0000 |       0.0000 |       0.0000 |       0.0000 |       0.0000 |       0.0000 |       0.0000 |       0.0000 |       0.0000 |       0.0000 |       0.0000 |       0.0000 |       0.0000 |       0.0000 |       0.0000 |       0.0000 |       0.0000 |       0.0000 |       0.0000 |       0.0000 |       0.0000 |       0.0000 |
itlb.inv_rate                               0.0000 |       0.0000 |       0.0000 |       0.0000 |       0.0000 |       0.0000 |       0.0000 |       0.0000 |       0.0000 |       0.0000 |       0.0000 |       0.0000 |       0.0000 |       0.0000 |       0.0000 |       0.0000 |       0.0000 |       0.0000 |       0.0000 |       0.0000 |       0.0000 |       0.0000 |       0.0000 |       0.0000 |       0.0000 |       0.0000 |       0.0000 |       0.0000 |       0.0000 |       0.0000 |       0.0000 |       0.0000 |       0.0000 |       0.0000 |       0.0000 |       0.0000 |       0.0000 |       0.0000 |       0.0000 |       0.0000 |       0.0000 |       0.0000 |       0.0000 |       0.0000 |
dtlb.accesses                               143659 |       143659 |       143659 |       143659 |       301655 |       301655 |       301655 |       301655 |       626448 |       626448 |       626448 |       626448 |      1325956 |      1325956 |      1325956 |      1325956 |      2762013 |      2762013 |      2762013 |      2762013 |      5783248 |      5783248 |      5783248 |      5783248 |     12143338 |     12143338 |     12143338 |     12143338 |     25437422 |     25437422 |     25437422 |     25437422 |     53009841 |     53009841 |     53009841 |     53009841 |    109726047 |    109726047 |    109726047 |    109726047 |    229530673 |    229530673 |    229530673 |    229530673 |
dtlb.hits                                   143647 |       143647 |       143647 |       143647 |       301639 |       301639 |       301639 |       301639 |       626424 |       626424 |       626424 |       626424 |      1325916 |      1325916 |      1325916 |      1325916 |      2761941 |      2761941 |      2761941 |      2761941 |      5783075 |      5783075 |      5783075 |      5783075 |     12142406 |     12142406 |     12142406 |     12142406 |     25434749 |     25434749 |     25434749 |     25434749 |     53003239 |     53003239 |     53003239 |     53003239 |    109711550 |    109711550 |    109711550 |    109711550 |    229494967 |    229494967 |    229494967 |    229494967 |
dtlb.misses                                     12 |           12 |           12 |           12 |           16 |           16 |           16 |           16 |           24 |           24 |           24 |           24 |           40 |           40 |           40 |           40 |           72 |           72 |           72 |           72 |          173 |          173 |          173 |          173 |          932 |          932 |          932 |          932 |         2673 |         2673 |         2673 |         2673 |         6602 |         6602 |         6602 |         6602 |        14497 |        14497 |        14497 |        14497 |        35706 |        35706 |        35706 |        35706 |
dtlb.replacements                                0 |            0 |            0 |            0 |            0 |            0 |            0 |            0 |            0 |            0 |            0 |            0 |            0 |            0 |            0 |            0 |            0 |            0 |            0 |            0 |           45 |           45 |           45 |           45 |          804 |          804 |          804 |          804 |         2545 |         2545 |         2545 |         2545 |         6474 |         6474 |         6474 |         6474 |        14369 |        14369 |        14369 |        14369 |        35578 |        35578 |        35578 |        35578 |
dtlb.writebacks                                  0 |            0 |            0 |            0 |            0 |            0 |            0 |            0 |            0 |            0 |            0 |            0 |            0 |            0 |            0 |            0 |            0 |            0 |            0 |            0 |           43 |           43 |           43 |           43 |          800 |          800 |          800 |          800 |         2537 |         2537 |         2537 |         2537 |         6453 |         6453 |         6453 |         6453 |        14331 |        14331 |        14331 |        14331 |        35501 |        35501 |        35501 |        35501 |
dtlb.invalidations                               0 |            0 |            0 |            0 |            0 |            0 |            0 |            0 |            0 |            0 |            0 |            0 |            0 |            0 |            0 |            0 |            0 |            0 |            0 |            0 |            0 |            0 |            0 |            0 |            0 |            0 |            0 |            0 |            0 |            0 |            0 |            0 |            0 |            0 |            0 |            0 |            0 |            0 |            0 |            0 |            0 |            0 |            0 |            0 |
dtlb.miss_rate                              0.0001 |       0.0001 |       0.0001 |       0.0001 |       0.0001 |       0.0001 |       0.0001 |       0.0001 |       0.0000 |       0.0000 |       0.0000 |       0.0000 |       0.0000 |       0.0000 |       0.0000 |       0.0000 |       0.0000 |       0.0000 |       0.0000 |       0.0000 |       0.0000 |       0.0000 |       0.0000 |       0.0000 |       0.0001 |       0.0001 |       0.0001 |       0.0001 |       0.0001 |       0.0001 |       0.0001 |       0.0001 |       0.0001 |       0.0001 |       0.0001 |       0.0001 |       0.0001 |       0.0001 |       0.0001 |       0.0001 |       0.0002 |       0.0002 |       0.0002 |       0.0002 |
dtlb.repl_rate                              0.0000 |       0.0000 |       0.0000 |       0.0000 |       0.0000 |       0.0000 |       0.0000 |       0.0000 |       0.0000 |       0.0000 |       0.0000 |       0.0000 |       0.0000 |       0.0000 |       0.0000 |       0.0000 |       0.0000 |       0.0000 |       0.0000 |       0.0000 |       0.0000 |       0.0000 |       0.0000 |       0.0000 |       0.0001 |       0.0001 |       0.0001 |       0.0001 |       0.0001 |       0.0001 |       0.0001 |       0.0001 |       0.0001 |       0.0001 |       0.0001 |       0.0001 |       0.0001 |       0.0001 |       0.0001 |       0.0001 |       0.0002 |       0.0002 |       0.0002 |       0.0002 |
dtlb.wb_rate                                0.0000 |       0.0000 |       0.0000 |       0.0000 |       0.0000 |       0.0000 |       0.0000 |       0.0000 |       0.0000 |       0.0000 |       0.0000 |       0.0000 |       0.0000 |       0.0000 |       0.0000 |       0.0000 |       0.0000 |       0.0000 |       0.0000 |       0.0000 |       0.0000 |       0.0000 |       0.0000 |       0.0000 |       0.0001 |       0.0001 |       0.0001 |       0.0001 |       0.0001 |       0.0001 |       0.0001 |       0.0001 |       0.0001 |       0.0001 |       0.0001 |       0.0001 |       0.0001 |       0.0001 |       0.0001 |       0.0001 |       0.0002 |       0.0002 |       0.0002 |       0.0002 |
dtlb.inv_rate                               0.0000 |       0.0000 |       0.0000 |       0.0000 |       0.0000 |       0.0000 |       0.0000 |       0.0000 |       0.0000 |       0.0000 |       0.0000 |       0.0000 |       0.0000 |       0.0000 |       0.0000 |       0.0000 |       0.0000 |       0.0000 |       0.0000 |       0.0000 |       0.0000 |       0.0000 |       0.0000 |       0.0000 |       0.0000 |       0.0000 |       0.0000 |       0.0000 |       0.0000 |       0.0000 |       0.0000 |       0.0000 |       0.0000 |       0.0000 |       0.0000 |       0.0000 |       0.0000 |       0.0000 |       0.0000 |       0.0000 |       0.0000 |       0.0000 |       0.0000 |       0.0000 |
ld_text_base                            0x00400000 |   0x00400000 |   0x00400000 |   0x00400000 |   0x00400000 |   0x00400000 |   0x00400000 |   0x00400000 |   0x00400000 |   0x00400000 |   0x00400000 |   0x00400000 |   0x00400000 |   0x00400000 |   0x00400000 |   0x00400000 |   0x00400000 |   0x00400000 |   0x00400000 |   0x00400000 |   0x00400000 |   0x00400000 |   0x00400000 |   0x00400000 |   0x00400000 |   0x00400000 |   0x00400000 |   0x00400000 |   0x00400000 |   0x00400000 |   0x00400000 |   0x00400000 |   0x00400000 |   0x00400000 |   0x00400000 |   0x00400000 |   0x00400000 |   0x00400000 |   0x00400000 |   0x00400000 |   0x00400000 |   0x00400000 |   0x00400000 |   0x00400000 |
ld_text_size                                 74064 |        74064 |        74064 |        74064 |        74096 |        74096 |        74096 |        74096 |        74112 |        74112 |        74112 |        74112 |        74128 |        74128 |        74128 |        74128 |        74128 |        74128 |        74128 |        74128 |        74128 |        74128 |        74128 |        74128 |        74128 |        74128 |        74128 |        74128 |        74128 |        74128 |        74128 |        74128 |        74128 |        74128 |        74128 |        74128 |        74128 |        74128 |        74128 |        74128 |        74128 |        74128 |        74128 |        74128 |
ld_data_base                            0x10000000 |   0x10000000 |   0x10000000 |   0x10000000 |   0x10000000 |   0x10000000 |   0x10000000 |   0x10000000 |   0x10000000 |   0x10000000 |   0x10000000 |   0x10000000 |   0x10000000 |   0x10000000 |   0x10000000 |   0x10000000 |   0x10000000 |   0x10000000 |   0x10000000 |   0x10000000 |   0x10000000 |   0x10000000 |   0x10000000 |   0x10000000 |   0x10000000 |   0x10000000 |   0x10000000 |   0x10000000 |   0x10000000 |   0x10000000 |   0x10000000 |   0x10000000 |   0x10000000 |   0x10000000 |   0x10000000 |   0x10000000 |   0x10000000 |   0x10000000 |   0x10000000 |   0x10000000 |   0x10000000 |   0x10000000 |   0x10000000 |   0x10000000 |
ld_data_size                                  8192 |         8192 |         8192 |         8192 |         8192 |         8192 |         8192 |         8192 |         8192 |         8192 |         8192 |         8192 |         8192 |         8192 |         8192 |         8192 |         8192 |         8192 |         8192 |         8192 |         8192 |         8192 |         8192 |         8192 |         8192 |         8192 |         8192 |         8192 |         8192 |         8192 |         8192 |         8192 |         8192 |         8192 |         8192 |         8192 |         8192 |         8192 |         8192 |         8192 |         8192 |         8192 |         8192 |         8192 |
ld_stack_base                           0x7fffc000 |   0x7fffc000 |   0x7fffc000 |   0x7fffc000 |   0x7fffc000 |   0x7fffc000 |   0x7fffc000 |   0x7fffc000 |   0x7fffc000 |   0x7fffc000 |   0x7fffc000 |   0x7fffc000 |   0x7fffc000 |   0x7fffc000 |   0x7fffc000 |   0x7fffc000 |   0x7fffc000 |   0x7fffc000 |   0x7fffc000 |   0x7fffc000 |   0x7fffc000 |   0x7fffc000 |   0x7fffc000 |   0x7fffc000 |   0x7fffc000 |   0x7fffc000 |   0x7fffc000 |   0x7fffc000 |   0x7fffc000 |   0x7fffc000 |   0x7fffc000 |   0x7fffc000 |   0x7fffc000 |   0x7fffc000 |   0x7fffc000 |   0x7fffc000 |   0x7fffc000 |   0x7fffc000 |   0x7fffc000 |   0x7fffc000 |   0x7fffc000 |   0x7fffc000 |   0x7fffc000 |   0x7fffc000 |
ld_stack_size                                16384 |        16384 |        16384 |        16384 |        16384 |        16384 |        16384 |        16384 |        16384 |        16384 |        16384 |        16384 |        16384 |        16384 |        16384 |        16384 |        16384 |        16384 |        16384 |        16384 |        16384 |        16384 |        16384 |        16384 |        16384 |        16384 |        16384 |        16384 |        16384 |        16384 |        16384 |        16384 |        16384 |        16384 |        16384 |        16384 |        16384 |        16384 |        16384 |        16384 |        16384 |        16384 |        16384 |        16384 |
ld_prog_entry                           0x00400140 |   0x00400140 |   0x00400140 |   0x00400140 |   0x00400140 |   0x00400140 |   0x00400140 |   0x00400140 |   0x00400140 |   0x00400140 |   0x00400140 |   0x00400140 |   0x00400140 |   0x00400140 |   0x00400140 |   0x00400140 |   0x00400140 |   0x00400140 |   0x00400140 |   0x00400140 |   0x00400140 |   0x00400140 |   0x00400140 |   0x00400140 |   0x00400140 |   0x00400140 |   0x00400140 |   0x00400140 |   0x00400140 |   0x00400140 |   0x00400140 |   0x00400140 |   0x00400140 |   0x00400140 |   0x00400140 |   0x00400140 |   0x00400140 |   0x00400140 |   0x00400140 |   0x00400140 |   0x00400140 |   0x00400140 |   0x00400140 |   0x00400140 |
ld_environ_base                         0x7fff8000 |   0x7fff8000 |   0x7fff8000 |   0x7fff8000 |   0x7fff8000 |   0x7fff8000 |   0x7fff8000 |   0x7fff8000 |   0x7fff8000 |   0x7fff8000 |   0x7fff8000 |   0x7fff8000 |   0x7fff8000 |   0x7fff8000 |   0x7fff8000 |   0x7fff8000 |   0x7fff8000 |   0x7fff8000 |   0x7fff8000 |   0x7fff8000 |   0x7fff8000 |   0x7fff8000 |   0x7fff8000 |   0x7fff8000 |   0x7fff8000 |   0x7fff8000 |   0x7fff8000 |   0x7fff8000 |   0x7fff8000 |   0x7fff8000 |   0x7fff8000 |   0x7fff8000 |   0x7fff8000 |   0x7fff8000 |   0x7fff8000 |   0x7fff8000 |   0x7fff8000 |   0x7fff8000 |   0x7fff8000 |   0x7fff8000 |   0x7fff8000 |   0x7fff8000 |   0x7fff8000 |   0x7fff8000 |
ld_target_big_endian                             0 |            0 |            0 |            0 |            0 |            0 |            0 |            0 |            0 |            0 |            0 |            0 |            0 |            0 |            0 |            0 |            0 |            0 |            0 |            0 |            0 |            0 |            0 |            0 |            0 |            0 |            0 |            0 |            0 |            0 |            0 |            0 |            0 |            0 |            0 |            0 |            0 |            0 |            0 |            0 |            0 |            0 |            0 |            0 |
mem.page_count                                  31 |           31 |           31 |           31 |           35 |           35 |           35 |           35 |           43 |           43 |           43 |           43 |           59 |           59 |           59 |           59 |           91 |           91 |           91 |           91 |          155 |          155 |          155 |          155 |          283 |          283 |          283 |          283 |          539 |          539 |          539 |          539 |         1051 |         1051 |         1051 |         1051 |         2075 |         2075 |         2075 |         2075 |         4123 |         4123 |         4123 |         4123 |
mem.page_mem                                  124k |         124k |         124k |         124k |         140k |         140k |         140k |         140k |         172k |         172k |         172k |         172k |         236k |         236k |         236k |         236k |         364k |         364k |         364k |         364k |         620k |         620k |         620k |         620k |        1132k |        1132k |        1132k |        1132k |        2156k |        2156k |        2156k |        2156k |        4204k |        4204k |        4204k |        4204k |        8300k |        8300k |        8300k |        8300k |       16492k |       16492k |       16492k |       16492k |
mem.ptab_misses                                 31 |           31 |           31 |           31 |           35 |           35 |           35 |           35 |           43 |           43 |           43 |           43 |           59 |           59 |           59 |           59 |           91 |           91 |           91 |           91 |          155 |          155 |          155 |          155 |          283 |          283 |          283 |          283 |          539 |          539 |          539 |          539 |         1051 |         1051 |         1051 |         1051 |         2075 |         2075 |         2075 |         2075 |         4123 |         4123 |         4123 |         4123 |
mem.ptab_accesses                          2679548 |      2679548 |      2679548 |      2679548 |      5231060 |      5231060 |      5231060 |      5231060 |     10407418 |     10407418 |     10407418 |     10407418 |     21910674 |     21910674 |     21910674 |     21910674 |     45246180 |     45246180 |     45246180 |     45246180 |     94866238 |     94866238 |     94866238 |     94866238 |    200895222 |    200895222 |    200895222 |    200895222 |    423602878 |    423602878 |    423602878 |    423602878 |    887122004 |    887122004 |    887122004 |    887122004 |   1836589912 |   1836589912 |   1836589912 |   1836589912 |   3881034488 |   3881034488 |   3881034488 |   3881034488 |
mem.ptab_miss_rate                          0.0000 |       0.0000 |       0.0000 |       0.0000 |       0.0000 |       0.0000 |       0.0000 |       0.0000 |       0.0000 |       0.0000 |       0.0000 |       0.0000 |       0.0000 |       0.0000 |       0.0000 |       0.0000 |       0.0000 |       0.0000 |       0.0000 |       0.0000 |       0.0000 |       0.0000 |       0.0000 |       0.0000 |       0.0000 |       0.0000 |       0.0000 |       0.0000 |       0.0000 |       0.0000 |       0.0000 |       0.0000 |       0.0000 |       0.0000 |       0.0000 |       0.0000 |       0.0000 |       0.0000 |       0.0000 |       0.0000 |       0.0000 |       0.0000 |       0.0000 |       0.0000 |
-------------------------------------------------------------------------------------------------
sim-bpred                                     4096 |         4096 |         4096 |         4096 |         4096 |         4096 |         4096 |         8192 |         8192 |         8192 |         8192 |         8192 |         8192 |         8192 |        16384 |        16384 |        16384 |        16384 |        16384 |        16384 |        16384 |        32768 |        32768 |        32768 |        32768 |        32768 |        32768 |        32768 |        65536 |        65536 |        65536 |        65536 |        65536 |        65536 |        65536 |       131072 |       131072 |       131072 |       131072 |       131072 |       131072 |       131072 |       262144 |       262144 |       262144 |       262144 |       262144 |       262144 |       262144 |       524288 |       524288 |       524288 |       524288 |       524288 |       524288 |       524288 |      1048576 |      1048576 |      1048576 |      1048576 |      1048576 |      1048576 |      1048576 |      2097152 |      2097152 |      2097152 |      2097152 |      2097152 |      2097152 |      2097152 |      4194304 |      4194304 |      4194304 |      4194304 |      4194304 |      4194304 |      4194304 |
-bpred bimod -bpred:bimod 512
-bpred bimod -bpred:bimod 1024
-bpred bimod -bpred:bimod 2048
-bpred 2lev -bpred:2lev 1 512 10 1
-bpred 2lev -bpred:2lev 1 1024 10 1
-bpred 2lev -bpred:2lev 1 2048 10 1
-bpred 2lev -bpred:2lev 1 4096 10 1
-------------------------------------------------------------------------------------------------
sim_num_insn                                483309 |       483309 |       483309 |       483309 |       483309 |       483309 |       483309 |      1042141 |      1042141 |      1042141 |      1042141 |      1042141 |      1042141 |      1042141 |      2173810 |      2173810 |      2173810 |      2173810 |      2173810 |      2173810 |      2173810 |      4699846 |      4699846 |      4699846 |      4699846 |      4699846 |      4699846 |      4699846 |      9815694 |      9815694 |      9815694 |      9815694 |      9815694 |      9815694 |      9815694 |     20710091 |     20710091 |     20710091 |     20710091 |     20710091 |     20710091 |     20710091 |     44037292 |     44037292 |     44037292 |     44037292 |     44037292 |     44037292 |     44037292 |     93067164 |     93067164 |     93067164 |     93067164 |     93067164 |     93067164 |     93067164 |    195160736 |    195160736 |    195160736 |    195160736 |    195160736 |    195160736 |    195160736 |    404169610 |    404169610 |    404169610 |    404169610 |    404169610 |    404169610 |    404169610 |    855378441 |    855378441 |    855378441 |    855378441 |    855378441 |    855378441 |    855378441 |
sim_num_refs                                127193 |       127193 |       127193 |       127193 |       127193 |       127193 |       127193 |       268805 |       268805 |       268805 |       268805 |       268805 |       268805 |       268805 |       560830 |       560830 |       560830 |       560830 |       560830 |       560830 |       560830 |      1194802 |      1194802 |      1194802 |      1194802 |      1194802 |      1194802 |      1194802 |      2499787 |      2499787 |      2499787 |      2499787 |      2499787 |      2499787 |      2499787 |      5258878 |      5258878 |      5258878 |      5258878 |      5258878 |      5258878 |      5258878 |     11094680 |     11094680 |     11094680 |     11094680 |     11094680 |     11094680 |     11094680 |     23340188 |     23340188 |     23340188 |     23340188 |     23340188 |     23340188 |     23340188 |     48815455 |     48815455 |     48815455 |     48815455 |     48815455 |     48815455 |     48815455 |    101337357 |    101337357 |    101337357 |    101337357 |    101337357 |    101337357 |    101337357 |    212753375 |    212753375 |    212753375 |    212753375 |    212753375 |    212753375 |    212753375 |
sim_elapsed_time                                 1 |            1 |            1 |            1 |            1 |            1 |            1 |            1 |            1 |            1 |            1 |            1 |            1 |            1 |            1 |            1 |            1 |            1 |            1 |            1 |            1 |            1 |            1 |            1 |            1 |            1 |            1 |            1 |            1 |            1 |            1 |            2 |            1 |            1 |            1 |            3 |            2 |            3 |            2 |            3 |            3 |            2 |            6 |            5 |            6 |            5 |            6 |            5 |            6 |           11 |           12 |           11 |           12 |           11 |           12 |           12 |           24 |           24 |           24 |           25 |           24 |           25 |           25 |           50 |           50 |           50 |           50 |           51 |           50 |           52 |          105 |          105 |          105 |          107 |          106 |          106 |          109 |
sim_inst_rate                          483309.0000 |  483309.0000 |  483309.0000 |  483309.0000 |  483309.0000 |  483309.0000 |  483309.0000 | 1042141.0000 | 1042141.0000 | 1042141.0000 | 1042141.0000 | 1042141.0000 | 1042141.0000 | 1042141.0000 | 2173810.0000 | 2173810.0000 | 2173810.0000 | 2173810.0000 | 2173810.0000 | 2173810.0000 | 2173810.0000 | 4699846.0000 | 4699846.0000 | 4699846.0000 | 4699846.0000 | 4699846.0000 | 4699846.0000 | 4699846.0000 | 9815694.0000 | 9815694.0000 | 9815694.0000 | 4907847.0000 | 9815694.0000 | 9815694.0000 | 9815694.0000 | 6903363.6667 |10355045.5000 | 6903363.6667 |10355045.5000 | 6903363.6667 | 6903363.6667 |10355045.5000 | 7339548.6667 | 8807458.4000 | 7339548.6667 | 8807458.4000 | 7339548.6667 | 8807458.4000 | 7339548.6667 | 8460651.2727 | 7755597.0000 | 8460651.2727 | 7755597.0000 | 8460651.2727 | 7755597.0000 | 7755597.0000 | 8131697.3333 | 8131697.3333 | 8131697.3333 | 7806429.4400 | 8131697.3333 | 7806429.4400 | 7806429.4400 | 8083392.2000 | 8083392.2000 | 8083392.2000 | 8083392.2000 | 7924894.3137 | 8083392.2000 | 7772492.5000 | 8146461.3429 | 8146461.3429 | 8146461.3429 | 7994191.0374 | 8069607.9340 | 8069607.9340 | 7847508.6330 |
sim_num_branches                             76266 |        76266 |        76266 |        76266 |        76266 |        76266 |        76266 |       166592 |       166592 |       166592 |       166592 |       166592 |       166592 |       166592 |       350199 |       350199 |       350199 |       350199 |       350199 |       350199 |       350199 |       762337 |       762337 |       762337 |       762337 |       762337 |       762337 |       762337 |      1604500 |      1604500 |      1604500 |      1604500 |      1604500 |      1604500 |      1604500 |      3404840 |      3404840 |      3404840 |      3404840 |      3404840 |      3404840 |      3404840 |      7272533 |      7272533 |      7272533 |      7272533 |      7272533 |      7272533 |      7272533 |     15458988 |     15458988 |     15458988 |     15458988 |     15458988 |     15458988 |     15458988 |     32516753 |     32516753 |     32516753 |     32516753 |     32516753 |     32516753 |     32516753 |     67641765 |     67641765 |     67641765 |     67641765 |     67641765 |     67641765 |     67641765 |    143613346 |    143613346 |    143613346 |    143613346 |    143613346 |    143613346 |    143613346 |
sim_IPB                                     6.3371 |       6.3371 |       6.3371 |       6.3371 |       6.3371 |       6.3371 |       6.3371 |       6.2556 |       6.2556 |       6.2556 |       6.2556 |       6.2556 |       6.2556 |       6.2556 |       6.2074 |       6.2074 |       6.2074 |       6.2074 |       6.2074 |       6.2074 |       6.2074 |       6.1651 |       6.1651 |       6.1651 |       6.1651 |       6.1651 |       6.1651 |       6.1651 |       6.1176 |       6.1176 |       6.1176 |       6.1176 |       6.1176 |       6.1176 |       6.1176 |       6.0825 |       6.0825 |       6.0825 |       6.0825 |       6.0825 |       6.0825 |       6.0825 |       6.0553 |       6.0553 |       6.0553 |       6.0553 |       6.0553 |       6.0553 |       6.0553 |       6.0203 |       6.0203 |       6.0203 |       6.0203 |       6.0203 |       6.0203 |       6.0203 |       6.0019 |       6.0019 |       6.0019 |       6.0019 |       6.0019 |       6.0019 |       6.0019 |       5.9751 |       5.9751 |       5.9751 |       5.9751 |       5.9751 |       5.9751 |       5.9751 |       5.9561 |       5.9561 |       5.9561 |       5.9561 |       5.9561 |       5.9561 |       5.9561 |
bpred_bimod.lookups                          76266 |        76266 |        76266 |xxxxxxxxxxxxx |xxxxxxxxxxxxx |xxxxxxxxxxxxx |xxxxxxxxxxxxx |       166592 |       166592 |       166592 |xxxxxxxxxxxxx |xxxxxxxxxxxxx |xxxxxxxxxxxxx |xxxxxxxxxxxxx |       350199 |       350199 |       350199 |xxxxxxxxxxxxx |xxxxxxxxxxxxx |xxxxxxxxxxxxx |xxxxxxxxxxxxx |       762337 |       762337 |       762337 |xxxxxxxxxxxxx |xxxxxxxxxxxxx |xxxxxxxxxxxxx |xxxxxxxxxxxxx |      1604500 |      1604500 |      1604500 |xxxxxxxxxxxxx |xxxxxxxxxxxxx |xxxxxxxxxxxxx |xxxxxxxxxxxxx |      3404840 |      3404840 |      3404840 |xxxxxxxxxxxxx |xxxxxxxxxxxxx |xxxxxxxxxxxxx |xxxxxxxxxxxxx |      7272533 |      7272533 |      7272533 |xxxxxxxxxxxxx |xxxxxxxxxxxxx |xxxxxxxxxxxxx |xxxxxxxxxxxxx |     15458988 |     15458988 |     15458988 |xxxxxxxxxxxxx |xxxxxxxxxxxxx |xxxxxxxxxxxxx |xxxxxxxxxxxxx |     32516753 |     32516753 |     32516753 |xxxxxxxxxxxxx |xxxxxxxxxxxxx |xxxxxxxxxxxxx |xxxxxxxxxxxxx |     67641765 |     67641765 |     67641765 |xxxxxxxxxxxxx |xxxxxxxxxxxxx |xxxxxxxxxxxxx |xxxxxxxxxxxxx |    143613346 |    143613346 |    143613346 |
bpred_bimod.updates                          76266 |        76266 |        76266 |xxxxxxxxxxxxx |xxxxxxxxxxxxx |xxxxxxxxxxxxx |xxxxxxxxxxxxx |       166592 |       166592 |       166592 |xxxxxxxxxxxxx |xxxxxxxxxxxxx |xxxxxxxxxxxxx |xxxxxxxxxxxxx |       350199 |       350199 |       350199 |xxxxxxxxxxxxx |xxxxxxxxxxxxx |xxxxxxxxxxxxx |xxxxxxxxxxxxx |       762337 |       762337 |       762337 |xxxxxxxxxxxxx |xxxxxxxxxxxxx |xxxxxxxxxxxxx |xxxxxxxxxxxxx |      1604500 |      1604500 |      1604500 |xxxxxxxxxxxxx |xxxxxxxxxxxxx |xxxxxxxxxxxxx |xxxxxxxxxxxxx |      3404840 |      3404840 |      3404840 |xxxxxxxxxxxxx |xxxxxxxxxxxxx |xxxxxxxxxxxxx |xxxxxxxxxxxxx |      7272533 |      7272533 |      7272533 |xxxxxxxxxxxxx |xxxxxxxxxxxxx |xxxxxxxxxxxxx |xxxxxxxxxxxxx |     15458988 |     15458988 |     15458988 |xxxxxxxxxxxxx |xxxxxxxxxxxxx |xxxxxxxxxxxxx |xxxxxxxxxxxxx |     32516753 |     32516753 |     32516753 |xxxxxxxxxxxxx |xxxxxxxxxxxxx |xxxxxxxxxxxxx |xxxxxxxxxxxxx |     67641765 |     67641765 |     67641765 |xxxxxxxxxxxxx |xxxxxxxxxxxxx |xxxxxxxxxxxxx |xxxxxxxxxxxxx |    143613346 |    143613346 |    143613346 |
bpred_bimod.addr_hits                        53579 |        53580 |        53581 |xxxxxxxxxxxxx |xxxxxxxxxxxxx |xxxxxxxxxxxxx |xxxxxxxxxxxxx |       118328 |       118330 |       118332 |xxxxxxxxxxxxx |xxxxxxxxxxxxx |xxxxxxxxxxxxx |xxxxxxxxxxxxx |       243524 |       243526 |       243527 |xxxxxxxxxxxxx |xxxxxxxxxxxxx |xxxxxxxxxxxxx |xxxxxxxxxxxxx |       537618 |       537619 |       537619 |xxxxxxxxxxxxx |xxxxxxxxxxxxx |xxxxxxxxxxxxx |xxxxxxxxxxxxx |      1119224 |      1119225 |      1119226 |xxxxxxxxxxxxx |xxxxxxxxxxxxx |xxxxxxxxxxxxx |xxxxxxxxxxxxx |      2369575 |      2369576 |      2369576 |xxxxxxxxxxxxx |xxxxxxxxxxxxx |xxxxxxxxxxxxx |xxxxxxxxxxxxx |      5105458 |      5105460 |      5105462 |xxxxxxxxxxxxx |xxxxxxxxxxxxx |xxxxxxxxxxxxx |xxxxxxxxxxxxx |     10920232 |     10920234 |     10920234 |xxxxxxxxxxxxx |xxxxxxxxxxxxx |xxxxxxxxxxxxx |xxxxxxxxxxxxx |     22927704 |     22927706 |     22927707 |xxxxxxxxxxxxx |xxxxxxxxxxxxx |xxxxxxxxxxxxx |xxxxxxxxxxxxx |     47214689 |     47214692 |     47214692 |xxxxxxxxxxxxx |xxxxxxxxxxxxx |xxxxxxxxxxxxx |xxxxxxxxxxxxx |    101773016 |    101773018 |    101773018 |
bpred_bimod.dir_hits                         53698 |        53695 |        53696 |xxxxxxxxxxxxx |xxxxxxxxxxxxx |xxxxxxxxxxxxx |xxxxxxxxxxxxx |       118447 |       118447 |       118447 |xxxxxxxxxxxxx |xxxxxxxxxxxxx |xxxxxxxxxxxxx |xxxxxxxxxxxxx |       243642 |       243640 |       243642 |xxxxxxxxxxxxx |xxxxxxxxxxxxx |xxxxxxxxxxxxx |xxxxxxxxxxxxx |       537736 |       537733 |       537732 |xxxxxxxxxxxxx |xxxxxxxxxxxxx |xxxxxxxxxxxxx |xxxxxxxxxxxxx |      1119343 |      1119340 |      1119340 |xxxxxxxxxxxxx |xxxxxxxxxxxxx |xxxxxxxxxxxxx |xxxxxxxxxxxxx |      2369694 |      2369692 |      2369691 |xxxxxxxxxxxxx |xxxxxxxxxxxxx |xxxxxxxxxxxxx |xxxxxxxxxxxxx |      5105577 |      5105576 |      5105578 |xxxxxxxxxxxxx |xxxxxxxxxxxxx |xxxxxxxxxxxxx |xxxxxxxxxxxxx |     10920350 |     10920348 |     10920348 |xxxxxxxxxxxxx |xxxxxxxxxxxxx |xxxxxxxxxxxxx |xxxxxxxxxxxxx |     22927823 |     22927821 |     22927821 |xxxxxxxxxxxxx |xxxxxxxxxxxxx |xxxxxxxxxxxxx |xxxxxxxxxxxxx |     47214809 |     47214808 |     47214807 |xxxxxxxxxxxxx |xxxxxxxxxxxxx |xxxxxxxxxxxxx |xxxxxxxxxxxxx |    101773136 |    101773134 |    101773132 |
bpred_bimod.misses                           22568 |        22571 |        22570 |xxxxxxxxxxxxx |xxxxxxxxxxxxx |xxxxxxxxxxxxx |xxxxxxxxxxxxx |        48145 |        48145 |        48145 |xxxxxxxxxxxxx |xxxxxxxxxxxxx |xxxxxxxxxxxxx |xxxxxxxxxxxxx |       106557 |       106559 |       106557 |xxxxxxxxxxxxx |xxxxxxxxxxxxx |xxxxxxxxxxxxx |xxxxxxxxxxxxx |       224601 |       224604 |       224605 |xxxxxxxxxxxxx |xxxxxxxxxxxxx |xxxxxxxxxxxxx |xxxxxxxxxxxxx |       485157 |       485160 |       485160 |xxxxxxxxxxxxx |xxxxxxxxxxxxx |xxxxxxxxxxxxx |xxxxxxxxxxxxx |      1035146 |      1035148 |      1035149 |xxxxxxxxxxxxx |xxxxxxxxxxxxx |xxxxxxxxxxxxx |xxxxxxxxxxxxx |      2166956 |      2166957 |      2166955 |xxxxxxxxxxxxx |xxxxxxxxxxxxx |xxxxxxxxxxxxx |xxxxxxxxxxxxx |      4538638 |      4538640 |      4538640 |xxxxxxxxxxxxx |xxxxxxxxxxxxx |xxxxxxxxxxxxx |xxxxxxxxxxxxx |      9588930 |      9588932 |      9588932 |xxxxxxxxxxxxx |xxxxxxxxxxxxx |xxxxxxxxxxxxx |xxxxxxxxxxxxx |     20426956 |     20426957 |     20426958 |xxxxxxxxxxxxx |xxxxxxxxxxxxx |xxxxxxxxxxxxx |xxxxxxxxxxxxx |     41840210 |     41840212 |     41840214 |
bpred_bimod.jr_hits                             64 |           64 |           64 |xxxxxxxxxxxxx |xxxxxxxxxxxxx |xxxxxxxxxxxxx |xxxxxxxxxxxxx |           64 |           64 |           64 |xxxxxxxxxxxxx |xxxxxxxxxxxxx |xxxxxxxxxxxxx |xxxxxxxxxxxxx |           64 |           64 |           64 |xxxxxxxxxxxxx |xxxxxxxxxxxxx |xxxxxxxxxxxxx |xxxxxxxxxxxxx |           64 |           64 |           64 |xxxxxxxxxxxxx |xxxxxxxxxxxxx |xxxxxxxxxxxxx |xxxxxxxxxxxxx |           64 |           64 |           64 |xxxxxxxxxxxxx |xxxxxxxxxxxxx |xxxxxxxxxxxxx |xxxxxxxxxxxxx |           64 |           64 |           64 |xxxxxxxxxxxxx |xxxxxxxxxxxxx |xxxxxxxxxxxxx |xxxxxxxxxxxxx |           64 |           64 |           64 |xxxxxxxxxxxxx |xxxxxxxxxxxxx |xxxxxxxxxxxxx |xxxxxxxxxxxxx |           64 |           64 |           64 |xxxxxxxxxxxxx |xxxxxxxxxxxxx |xxxxxxxxxxxxx |xxxxxxxxxxxxx |           64 |           64 |           64 |xxxxxxxxxxxxx |xxxxxxxxxxxxx |xxxxxxxxxxxxx |xxxxxxxxxxxxx |           64 |           64 |           64 |xxxxxxxxxxxxx |xxxxxxxxxxxxx |xxxxxxxxxxxxx |xxxxxxxxxxxxx |           64 |           64 |           64 |
bpred_bimod.jr_seen                             64 |           64 |           64 |xxxxxxxxxxxxx |xxxxxxxxxxxxx |xxxxxxxxxxxxx |xxxxxxxxxxxxx |           64 |           64 |           64 |xxxxxxxxxxxxx |xxxxxxxxxxxxx |xxxxxxxxxxxxx |xxxxxxxxxxxxx |           64 |           64 |           64 |xxxxxxxxxxxxx |xxxxxxxxxxxxx |xxxxxxxxxxxxx |xxxxxxxxxxxxx |           64 |           64 |           64 |xxxxxxxxxxxxx |xxxxxxxxxxxxx |xxxxxxxxxxxxx |xxxxxxxxxxxxx |           64 |           64 |           64 |xxxxxxxxxxxxx |xxxxxxxxxxxxx |xxxxxxxxxxxxx |xxxxxxxxxxxxx |           64 |           64 |           64 |xxxxxxxxxxxxx |xxxxxxxxxxxxx |xxxxxxxxxxxxx |xxxxxxxxxxxxx |           64 |           64 |           64 |xxxxxxxxxxxxx |xxxxxxxxxxxxx |xxxxxxxxxxxxx |xxxxxxxxxxxxx |           64 |           64 |           64 |xxxxxxxxxxxxx |xxxxxxxxxxxxx |xxxxxxxxxxxxx |xxxxxxxxxxxxx |           64 |           64 |           64 |xxxxxxxxxxxxx |xxxxxxxxxxxxx |xxxxxxxxxxxxx |xxxxxxxxxxxxx |           64 |           64 |           64 |xxxxxxxxxxxxx |xxxxxxxxxxxxx |xxxxxxxxxxxxx |xxxxxxxxxxxxx |           64 |           64 |           64 |
bpred_bimod.jr_non_ras_hits.PP                   0 |            0 |            0 |xxxxxxxxxxxxx |xxxxxxxxxxxxx |xxxxxxxxxxxxx |xxxxxxxxxxxxx |            0 |            0 |            0 |xxxxxxxxxxxxx |xxxxxxxxxxxxx |xxxxxxxxxxxxx |xxxxxxxxxxxxx |            0 |            0 |            0 |xxxxxxxxxxxxx |xxxxxxxxxxxxx |xxxxxxxxxxxxx |xxxxxxxxxxxxx |            0 |            0 |            0 |xxxxxxxxxxxxx |xxxxxxxxxxxxx |xxxxxxxxxxxxx |xxxxxxxxxxxxx |            0 |            0 |            0 |xxxxxxxxxxxxx |xxxxxxxxxxxxx |xxxxxxxxxxxxx |xxxxxxxxxxxxx |            0 |            0 |            0 |xxxxxxxxxxxxx |xxxxxxxxxxxxx |xxxxxxxxxxxxx |xxxxxxxxxxxxx |            0 |            0 |            0 |xxxxxxxxxxxxx |xxxxxxxxxxxxx |xxxxxxxxxxxxx |xxxxxxxxxxxxx |            0 |            0 |            0 |xxxxxxxxxxxxx |xxxxxxxxxxxxx |xxxxxxxxxxxxx |xxxxxxxxxxxxx |            0 |            0 |            0 |xxxxxxxxxxxxx |xxxxxxxxxxxxx |xxxxxxxxxxxxx |xxxxxxxxxxxxx |            0 |            0 |            0 |xxxxxxxxxxxxx |xxxxxxxxxxxxx |xxxxxxxxxxxxx |xxxxxxxxxxxxx |            0 |            0 |            0 |
bpred_bimod.jr_non_ras_seen.PP                   0 |            0 |            0 |xxxxxxxxxxxxx |xxxxxxxxxxxxx |xxxxxxxxxxxxx |xxxxxxxxxxxxx |            0 |            0 |            0 |xxxxxxxxxxxxx |xxxxxxxxxxxxx |xxxxxxxxxxxxx |xxxxxxxxxxxxx |            0 |            0 |            0 |xxxxxxxxxxxxx |xxxxxxxxxxxxx |xxxxxxxxxxxxx |xxxxxxxxxxxxx |            0 |            0 |            0 |xxxxxxxxxxxxx |xxxxxxxxxxxxx |xxxxxxxxxxxxx |xxxxxxxxxxxxx |            0 |            0 |            0 |xxxxxxxxxxxxx |xxxxxxxxxxxxx |xxxxxxxxxxxxx |xxxxxxxxxxxxx |            0 |            0 |            0 |xxxxxxxxxxxxx |xxxxxxxxxxxxx |xxxxxxxxxxxxx |xxxxxxxxxxxxx |            0 |            0 |            0 |xxxxxxxxxxxxx |xxxxxxxxxxxxx |xxxxxxxxxxxxx |xxxxxxxxxxxxx |            0 |            0 |            0 |xxxxxxxxxxxxx |xxxxxxxxxxxxx |xxxxxxxxxxxxx |xxxxxxxxxxxxx |            0 |            0 |            0 |xxxxxxxxxxxxx |xxxxxxxxxxxxx |xxxxxxxxxxxxx |xxxxxxxxxxxxx |            0 |            0 |            0 |xxxxxxxxxxxxx |xxxxxxxxxxxxx |xxxxxxxxxxxxx |xxxxxxxxxxxxx |            0 |            0 |            0 |
bpred_bimod.bpred_addr_rate                 0.7025 |       0.7025 |       0.7026 |xxxxxxxxxxxxx |xxxxxxxxxxxxx |xxxxxxxxxxxxx |xxxxxxxxxxxxx |       0.7103 |       0.7103 |       0.7103 |xxxxxxxxxxxxx |xxxxxxxxxxxxx |xxxxxxxxxxxxx |xxxxxxxxxxxxx |       0.6954 |       0.6954 |       0.6954 |xxxxxxxxxxxxx |xxxxxxxxxxxxx |xxxxxxxxxxxxx |xxxxxxxxxxxxx |       0.7052 |       0.7052 |       0.7052 |xxxxxxxxxxxxx |xxxxxxxxxxxxx |xxxxxxxxxxxxx |xxxxxxxxxxxxx |       0.6976 |       0.6976 |       0.6976 |xxxxxxxxxxxxx |xxxxxxxxxxxxx |xxxxxxxxxxxxx |xxxxxxxxxxxxx |       0.6959 |       0.6959 |       0.6959 |xxxxxxxxxxxxx |xxxxxxxxxxxxx |xxxxxxxxxxxxx |xxxxxxxxxxxxx |       0.7020 |       0.7020 |       0.7020 |xxxxxxxxxxxxx |xxxxxxxxxxxxx |xxxxxxxxxxxxx |xxxxxxxxxxxxx |       0.7064 |       0.7064 |       0.7064 |xxxxxxxxxxxxx |xxxxxxxxxxxxx |xxxxxxxxxxxxx |xxxxxxxxxxxxx |       0.7051 |       0.7051 |       0.7051 |xxxxxxxxxxxxx |xxxxxxxxxxxxx |xxxxxxxxxxxxx |xxxxxxxxxxxxx |       0.6980 |       0.6980 |       0.6980 |xxxxxxxxxxxxx |xxxxxxxxxxxxx |xxxxxxxxxxxxx |xxxxxxxxxxxxx |       0.7087 |       0.7087 |       0.7087 |
bpred_bimod.bpred_dir_rate                  0.7041 |       0.7040 |       0.7041 |xxxxxxxxxxxxx |xxxxxxxxxxxxx |xxxxxxxxxxxxx |xxxxxxxxxxxxx |       0.7110 |       0.7110 |       0.7110 |xxxxxxxxxxxxx |xxxxxxxxxxxxx |xxxxxxxxxxxxx |xxxxxxxxxxxxx |       0.6957 |       0.6957 |       0.6957 |xxxxxxxxxxxxx |xxxxxxxxxxxxx |xxxxxxxxxxxxx |xxxxxxxxxxxxx |       0.7054 |       0.7054 |       0.7054 |xxxxxxxxxxxxx |xxxxxxxxxxxxx |xxxxxxxxxxxxx |xxxxxxxxxxxxx |       0.6976 |       0.6976 |       0.6976 |xxxxxxxxxxxxx |xxxxxxxxxxxxx |xxxxxxxxxxxxx |xxxxxxxxxxxxx |       0.6960 |       0.6960 |       0.6960 |xxxxxxxxxxxxx |xxxxxxxxxxxxx |xxxxxxxxxxxxx |xxxxxxxxxxxxx |       0.7020 |       0.7020 |       0.7020 |xxxxxxxxxxxxx |xxxxxxxxxxxxx |xxxxxxxxxxxxx |xxxxxxxxxxxxx |       0.7064 |       0.7064 |       0.7064 |xxxxxxxxxxxxx |xxxxxxxxxxxxx |xxxxxxxxxxxxx |xxxxxxxxxxxxx |       0.7051 |       0.7051 |       0.7051 |xxxxxxxxxxxxx |xxxxxxxxxxxxx |xxxxxxxxxxxxx |xxxxxxxxxxxxx |       0.6980 |       0.6980 |       0.6980 |xxxxxxxxxxxxx |xxxxxxxxxxxxx |xxxxxxxxxxxxx |xxxxxxxxxxxxx |       0.7087 |       0.7087 |       0.7087 |
bpred_bimod.bpred_jr_rate                   1.0000 |       1.0000 |       1.0000 |xxxxxxxxxxxxx |xxxxxxxxxxxxx |xxxxxxxxxxxxx |xxxxxxxxxxxxx |       1.0000 |       1.0000 |       1.0000 |xxxxxxxxxxxxx |xxxxxxxxxxxxx |xxxxxxxxxxxxx |xxxxxxxxxxxxx |       1.0000 |       1.0000 |       1.0000 |xxxxxxxxxxxxx |xxxxxxxxxxxxx |xxxxxxxxxxxxx |xxxxxxxxxxxxx |       1.0000 |       1.0000 |       1.0000 |xxxxxxxxxxxxx |xxxxxxxxxxxxx |xxxxxxxxxxxxx |xxxxxxxxxxxxx |       1.0000 |       1.0000 |       1.0000 |xxxxxxxxxxxxx |xxxxxxxxxxxxx |xxxxxxxxxxxxx |xxxxxxxxxxxxx |       1.0000 |       1.0000 |       1.0000 |xxxxxxxxxxxxx |xxxxxxxxxxxxx |xxxxxxxxxxxxx |xxxxxxxxxxxxx |       1.0000 |       1.0000 |       1.0000 |xxxxxxxxxxxxx |xxxxxxxxxxxxx |xxxxxxxxxxxxx |xxxxxxxxxxxxx |       1.0000 |       1.0000 |       1.0000 |xxxxxxxxxxxxx |xxxxxxxxxxxxx |xxxxxxxxxxxxx |xxxxxxxxxxxxx |       1.0000 |       1.0000 |       1.0000 |xxxxxxxxxxxxx |xxxxxxxxxxxxx |xxxxxxxxxxxxx |xxxxxxxxxxxxx |       1.0000 |       1.0000 |       1.0000 |xxxxxxxxxxxxx |xxxxxxxxxxxxx |xxxxxxxxxxxxx |xxxxxxxxxxxxx |       1.0000 |       1.0000 |       1.0000 |
bpred_bimod.bpred_jr_non_ras_rate.PP       <error: |      <error: |      <error: |xxxxxxxxxxxxx |xxxxxxxxxxxxx |xxxxxxxxxxxxx |xxxxxxxxxxxxx |      <error: |      <error: |      <error: |xxxxxxxxxxxxx |xxxxxxxxxxxxx |xxxxxxxxxxxxx |xxxxxxxxxxxxx |      <error: |      <error: |      <error: |xxxxxxxxxxxxx |xxxxxxxxxxxxx |xxxxxxxxxxxxx |xxxxxxxxxxxxx |      <error: |      <error: |      <error: |xxxxxxxxxxxxx |xxxxxxxxxxxxx |xxxxxxxxxxxxx |xxxxxxxxxxxxx |      <error: |      <error: |      <error: |xxxxxxxxxxxxx |xxxxxxxxxxxxx |xxxxxxxxxxxxx |xxxxxxxxxxxxx |      <error: |      <error: |      <error: |xxxxxxxxxxxxx |xxxxxxxxxxxxx |xxxxxxxxxxxxx |xxxxxxxxxxxxx |      <error: |      <error: |      <error: |xxxxxxxxxxxxx |xxxxxxxxxxxxx |xxxxxxxxxxxxx |xxxxxxxxxxxxx |      <error: |      <error: |      <error: |xxxxxxxxxxxxx |xxxxxxxxxxxxx |xxxxxxxxxxxxx |xxxxxxxxxxxxx |      <error: |      <error: |      <error: |xxxxxxxxxxxxx |xxxxxxxxxxxxx |xxxxxxxxxxxxx |xxxxxxxxxxxxx |      <error: |      <error: |      <error: |xxxxxxxxxxxxx |xxxxxxxxxxxxx |xxxxxxxxxxxxx |xxxxxxxxxxxxx |      <error: |      <error: |      <error: |
bpred_bimod.retstack_pushes                     66 |           66 |           66 |xxxxxxxxxxxxx |xxxxxxxxxxxxx |xxxxxxxxxxxxx |xxxxxxxxxxxxx |           66 |           66 |           66 |xxxxxxxxxxxxx |xxxxxxxxxxxxx |xxxxxxxxxxxxx |xxxxxxxxxxxxx |           66 |           66 |           66 |xxxxxxxxxxxxx |xxxxxxxxxxxxx |xxxxxxxxxxxxx |xxxxxxxxxxxxx |           66 |           66 |           66 |xxxxxxxxxxxxx |xxxxxxxxxxxxx |xxxxxxxxxxxxx |xxxxxxxxxxxxx |           66 |           66 |           66 |xxxxxxxxxxxxx |xxxxxxxxxxxxx |xxxxxxxxxxxxx |xxxxxxxxxxxxx |           66 |           66 |           66 |xxxxxxxxxxxxx |xxxxxxxxxxxxx |xxxxxxxxxxxxx |xxxxxxxxxxxxx |           66 |           66 |           66 |xxxxxxxxxxxxx |xxxxxxxxxxxxx |xxxxxxxxxxxxx |xxxxxxxxxxxxx |           66 |           66 |           66 |xxxxxxxxxxxxx |xxxxxxxxxxxxx |xxxxxxxxxxxxx |xxxxxxxxxxxxx |           66 |           66 |           66 |xxxxxxxxxxxxx |xxxxxxxxxxxxx |xxxxxxxxxxxxx |xxxxxxxxxxxxx |           66 |           66 |           66 |xxxxxxxxxxxxx |xxxxxxxxxxxxx |xxxxxxxxxxxxx |xxxxxxxxxxxxx |           66 |           66 |           66 |
bpred_bimod.retstack_pops                       64 |           64 |           64 |xxxxxxxxxxxxx |xxxxxxxxxxxxx |xxxxxxxxxxxxx |xxxxxxxxxxxxx |           64 |           64 |           64 |xxxxxxxxxxxxx |xxxxxxxxxxxxx |xxxxxxxxxxxxx |xxxxxxxxxxxxx |           64 |           64 |           64 |xxxxxxxxxxxxx |xxxxxxxxxxxxx |xxxxxxxxxxxxx |xxxxxxxxxxxxx |           64 |           64 |           64 |xxxxxxxxxxxxx |xxxxxxxxxxxxx |xxxxxxxxxxxxx |xxxxxxxxxxxxx |           64 |           64 |           64 |xxxxxxxxxxxxx |xxxxxxxxxxxxx |xxxxxxxxxxxxx |xxxxxxxxxxxxx |           64 |           64 |           64 |xxxxxxxxxxxxx |xxxxxxxxxxxxx |xxxxxxxxxxxxx |xxxxxxxxxxxxx |           64 |           64 |           64 |xxxxxxxxxxxxx |xxxxxxxxxxxxx |xxxxxxxxxxxxx |xxxxxxxxxxxxx |           64 |           64 |           64 |xxxxxxxxxxxxx |xxxxxxxxxxxxx |xxxxxxxxxxxxx |xxxxxxxxxxxxx |           64 |           64 |           64 |xxxxxxxxxxxxx |xxxxxxxxxxxxx |xxxxxxxxxxxxx |xxxxxxxxxxxxx |           64 |           64 |           64 |xxxxxxxxxxxxx |xxxxxxxxxxxxx |xxxxxxxxxxxxx |xxxxxxxxxxxxx |           64 |           64 |           64 |
bpred_bimod.used_ras.PP                         64 |           64 |           64 |xxxxxxxxxxxxx |xxxxxxxxxxxxx |xxxxxxxxxxxxx |xxxxxxxxxxxxx |           64 |           64 |           64 |xxxxxxxxxxxxx |xxxxxxxxxxxxx |xxxxxxxxxxxxx |xxxxxxxxxxxxx |           64 |           64 |           64 |xxxxxxxxxxxxx |xxxxxxxxxxxxx |xxxxxxxxxxxxx |xxxxxxxxxxxxx |           64 |           64 |           64 |xxxxxxxxxxxxx |xxxxxxxxxxxxx |xxxxxxxxxxxxx |xxxxxxxxxxxxx |           64 |           64 |           64 |xxxxxxxxxxxxx |xxxxxxxxxxxxx |xxxxxxxxxxxxx |xxxxxxxxxxxxx |           64 |           64 |           64 |xxxxxxxxxxxxx |xxxxxxxxxxxxx |xxxxxxxxxxxxx |xxxxxxxxxxxxx |           64 |           64 |           64 |xxxxxxxxxxxxx |xxxxxxxxxxxxx |xxxxxxxxxxxxx |xxxxxxxxxxxxx |           64 |           64 |           64 |xxxxxxxxxxxxx |xxxxxxxxxxxxx |xxxxxxxxxxxxx |xxxxxxxxxxxxx |           64 |           64 |           64 |xxxxxxxxxxxxx |xxxxxxxxxxxxx |xxxxxxxxxxxxx |xxxxxxxxxxxxx |           64 |           64 |           64 |xxxxxxxxxxxxx |xxxxxxxxxxxxx |xxxxxxxxxxxxx |xxxxxxxxxxxxx |           64 |           64 |           64 |
bpred_bimod.ras_hits.PP                         64 |           64 |           64 |xxxxxxxxxxxxx |xxxxxxxxxxxxx |xxxxxxxxxxxxx |xxxxxxxxxxxxx |           64 |           64 |           64 |xxxxxxxxxxxxx |xxxxxxxxxxxxx |xxxxxxxxxxxxx |xxxxxxxxxxxxx |           64 |           64 |           64 |xxxxxxxxxxxxx |xxxxxxxxxxxxx |xxxxxxxxxxxxx |xxxxxxxxxxxxx |           64 |           64 |           64 |xxxxxxxxxxxxx |xxxxxxxxxxxxx |xxxxxxxxxxxxx |xxxxxxxxxxxxx |           64 |           64 |           64 |xxxxxxxxxxxxx |xxxxxxxxxxxxx |xxxxxxxxxxxxx |xxxxxxxxxxxxx |           64 |           64 |           64 |xxxxxxxxxxxxx |xxxxxxxxxxxxx |xxxxxxxxxxxxx |xxxxxxxxxxxxx |           64 |           64 |           64 |xxxxxxxxxxxxx |xxxxxxxxxxxxx |xxxxxxxxxxxxx |xxxxxxxxxxxxx |           64 |           64 |           64 |xxxxxxxxxxxxx |xxxxxxxxxxxxx |xxxxxxxxxxxxx |xxxxxxxxxxxxx |           64 |           64 |           64 |xxxxxxxxxxxxx |xxxxxxxxxxxxx |xxxxxxxxxxxxx |xxxxxxxxxxxxx |           64 |           64 |           64 |xxxxxxxxxxxxx |xxxxxxxxxxxxx |xxxxxxxxxxxxx |xxxxxxxxxxxxx |           64 |           64 |           64 |
bpred_bimod.ras_rate.PP                     1.0000 |       1.0000 |       1.0000 |xxxxxxxxxxxxx |xxxxxxxxxxxxx |xxxxxxxxxxxxx |xxxxxxxxxxxxx |       1.0000 |       1.0000 |       1.0000 |xxxxxxxxxxxxx |xxxxxxxxxxxxx |xxxxxxxxxxxxx |xxxxxxxxxxxxx |       1.0000 |       1.0000 |       1.0000 |xxxxxxxxxxxxx |xxxxxxxxxxxxx |xxxxxxxxxxxxx |xxxxxxxxxxxxx |       1.0000 |       1.0000 |       1.0000 |xxxxxxxxxxxxx |xxxxxxxxxxxxx |xxxxxxxxxxxxx |xxxxxxxxxxxxx |       1.0000 |       1.0000 |       1.0000 |xxxxxxxxxxxxx |xxxxxxxxxxxxx |xxxxxxxxxxxxx |xxxxxxxxxxxxx |       1.0000 |       1.0000 |       1.0000 |xxxxxxxxxxxxx |xxxxxxxxxxxxx |xxxxxxxxxxxxx |xxxxxxxxxxxxx |       1.0000 |       1.0000 |       1.0000 |xxxxxxxxxxxxx |xxxxxxxxxxxxx |xxxxxxxxxxxxx |xxxxxxxxxxxxx |       1.0000 |       1.0000 |       1.0000 |xxxxxxxxxxxxx |xxxxxxxxxxxxx |xxxxxxxxxxxxx |xxxxxxxxxxxxx |       1.0000 |       1.0000 |       1.0000 |xxxxxxxxxxxxx |xxxxxxxxxxxxx |xxxxxxxxxxxxx |xxxxxxxxxxxxx |       1.0000 |       1.0000 |       1.0000 |xxxxxxxxxxxxx |xxxxxxxxxxxxx |xxxxxxxxxxxxx |xxxxxxxxxxxxx |       1.0000 |       1.0000 |       1.0000 |
bpred_2lev.lookups                   xxxxxxxxxxxxx |xxxxxxxxxxxxx |xxxxxxxxxxxxx |        76266 |        76266 |        76266 |        76266 |xxxxxxxxxxxxx |xxxxxxxxxxxxx |xxxxxxxxxxxxx |       166592 |       166592 |       166592 |       166592 |xxxxxxxxxxxxx |xxxxxxxxxxxxx |xxxxxxxxxxxxx |       350199 |       350199 |       350199 |       350199 |xxxxxxxxxxxxx |xxxxxxxxxxxxx |xxxxxxxxxxxxx |       762337 |       762337 |       762337 |       762337 |xxxxxxxxxxxxx |xxxxxxxxxxxxx |xxxxxxxxxxxxx |      1604500 |      1604500 |      1604500 |      1604500 |xxxxxxxxxxxxx |xxxxxxxxxxxxx |xxxxxxxxxxxxx |      3404840 |      3404840 |      3404840 |      3404840 |xxxxxxxxxxxxx |xxxxxxxxxxxxx |xxxxxxxxxxxxx |      7272533 |      7272533 |      7272533 |      7272533 |xxxxxxxxxxxxx |xxxxxxxxxxxxx |xxxxxxxxxxxxx |     15458988 |     15458988 |     15458988 |     15458988 |xxxxxxxxxxxxx |xxxxxxxxxxxxx |xxxxxxxxxxxxx |     32516753 |     32516753 |     32516753 |     32516753 |xxxxxxxxxxxxx |xxxxxxxxxxxxx |xxxxxxxxxxxxx |     67641765 |     67641765 |     67641765 |     67641765 |xxxxxxxxxxxxx |xxxxxxxxxxxxx |xxxxxxxxxxxxx |    143613346 |    143613346 |    143613346 |    143613346 |
[...]
bpred_2lev.retstack_pushes           xxxxxxxxxxxxx |xxxxxxxxxxxxx |xxxxxxxxxxxxx |           66 |           66 |           66 |           66 |xxxxxxxxxxxxx |xxxxxxxxxxxxx |xxxxxxxxxxxxx |           66 |           66 |           66 |           66 |xxxxxxxxxxxxx |xxxxxxxxxxxxx |xxxxxxxxxxxxx |           66 |           66 |           66 |           66 |xxxxxxxxxxxxx |xxxxxxxxxxxxx |xxxxxxxxxxxxx |           66 |           66 |           66 |           66 |xxxxxxxxxxxxx |xxxxxxxxxxxxx |xxxxxxxxxxxxx |           66 |           66 |           66 |           66 |xxxxxxxxxxxxx |xxxxxxxxxxxxx |xxxxxxxxxxxxx |           66 |           66 |           66 |           66 |xxxxxxxxxxxxx |xxxxxxxxxxxxx |xxxxxxxxxxxxx |           66 |           66 |           66 |           66 |xxxxxxxxxxxxx |xxxxxxxxxxxxx |xxxxxxxxxxxxx |           66 |           66 |           66 |           66 |xxxxxxxxxxxxx |xxxxxxxxxxxxx |xxxxxxxxxxxxx |           66 |           66 |           66 |           66 |xxxxxxxxxxxxx |xxxxxxxxxxxxx |xxxxxxxxxxxxx |           66 |           66 |           66 |           66 |xxxxxxxxxxxxx |xxxxxxxxxxxxx |xxxxxxxxxxxxx |           66 |           66 |           66 |           66 |
bpred_2lev.retstack_pops             xxxxxxxxxxxxx |xxxxxxxxxxxxx |xxxxxxxxxxxxx |           64 |           64 |           64 |           64 |xxxxxxxxxxxxx |xxxxxxxxxxxxx |xxxxxxxxxxxxx |           64 |           64 |           64 |           64 |xxxxxxxxxxxxx |xxxxxxxxxxxxx |xxxxxxxxxxxxx |           64 |           64 |           64 |           64 |xxxxxxxxxxxxx |xxxxxxxxxxxxx |xxxxxxxxxxxxx |           64 |           64 |           64 |           64 |xxxxxxxxxxxxx |xxxxxxxxxxxxx |xxxxxxxxxxxxx |           64 |           64 |           64 |           64 |xxxxxxxxxxxxx |xxxxxxxxxxxxx |xxxxxxxxxxxxx |           64 |           64 |           64 |           64 |xxxxxxxxxxxxx |xxxxxxxxxxxxx |xxxxxxxxxxxxx |           64 |           64 |           64 |           64 |xxxxxxxxxxxxx |xxxxxxxxxxxxx |xxxxxxxxxxxxx |           64 |           64 |           64 |           64 |xxxxxxxxxxxxx |xxxxxxxxxxxxx |xxxxxxxxxxxxx |           64 |           64 |           64 |           64 |xxxxxxxxxxxxx |xxxxxxxxxxxxx |xxxxxxxxxxxxx |           64 |           64 |           64 |           64 |xxxxxxxxxxxxx |xxxxxxxxxxxxx |xxxxxxxxxxxxx |           64 |           64 |           64 |           64 |
bpred_2lev.used_ras.PP               xxxxxxxxxxxxx |xxxxxxxxxxxxx |xxxxxxxxxxxxx |           64 |           64 |           64 |           64 |xxxxxxxxxxxxx |xxxxxxxxxxxxx |xxxxxxxxxxxxx |           64 |           64 |           64 |           64 |xxxxxxxxxxxxx |xxxxxxxxxxxxx |xxxxxxxxxxxxx |           64 |           64 |           64 |           64 |xxxxxxxxxxxxx |xxxxxxxxxxxxx |xxxxxxxxxxxxx |           64 |           64 |           64 |           64 |xxxxxxxxxxxxx |xxxxxxxxxxxxx |xxxxxxxxxxxxx |           64 |           64 |           64 |           64 |xxxxxxxxxxxxx |xxxxxxxxxxxxx |xxxxxxxxxxxxx |           64 |           64 |           64 |           64 |xxxxxxxxxxxxx |xxxxxxxxxxxxx |xxxxxxxxxxxxx |           64 |           64 |           64 |           64 |xxxxxxxxxxxxx |xxxxxxxxxxxxx |xxxxxxxxxxxxx |           64 |           64 |           64 |           64 |xxxxxxxxxxxxx |xxxxxxxxxxxxx |xxxxxxxxxxxxx |           64 |           64 |           64 |           64 |xxxxxxxxxxxxx |xxxxxxxxxxxxx |xxxxxxxxxxxxx |           64 |           64 |           64 |           64 |xxxxxxxxxxxxx |xxxxxxxxxxxxx |xxxxxxxxxxxxx |           64 |           64 |           64 |           64 |
bpred_2lev.ras_hits.PP               xxxxxxxxxxxxx |xxxxxxxxxxxxx |xxxxxxxxxxxxx |           64 |           64 |           64 |           64 |xxxxxxxxxxxxx |xxxxxxxxxxxxx |xxxxxxxxxxxxx |           64 |           64 |           64 |           64 |xxxxxxxxxxxxx |xxxxxxxxxxxxx |xxxxxxxxxxxxx |           64 |           64 |           64 |           64 |xxxxxxxxxxxxx |xxxxxxxxxxxxx |xxxxxxxxxxxxx |           64 |           64 |           64 |           64 |xxxxxxxxxxxxx |xxxxxxxxxxxxx |xxxxxxxxxxxxx |           64 |           64 |           64 |           64 |xxxxxxxxxxxxx |xxxxxxxxxxxxx |xxxxxxxxxxxxx |           64 |           64 |           64 |           64 |xxxxxxxxxxxxx |xxxxxxxxxxxxx |xxxxxxxxxxxxx |           64 |           64 |           64 |           64 |xxxxxxxxxxxxx |xxxxxxxxxxxxx |xxxxxxxxxxxxx |           64 |           64 |           64 |           64 |xxxxxxxxxxxxx |xxxxxxxxxxxxx |xxxxxxxxxxxxx |           64 |           64 |           64 |           64 |xxxxxxxxxxxxx |xxxxxxxxxxxxx |xxxxxxxxxxxxx |           64 |           64 |           64 |           64 |xxxxxxxxxxxxx |xxxxxxxxxxxxx |xxxxxxxxxxxxx |           64 |           64 |           64 |           64 |
bpred_2lev.ras_rate.PP               xxxxxxxxxxxxx |xxxxxxxxxxxxx |xxxxxxxxxxxxx |       1.0000 |       1.0000 |       1.0000 |       1.0000 |xxxxxxxxxxxxx |xxxxxxxxxxxxx |xxxxxxxxxxxxx |       1.0000 |       1.0000 |       1.0000 |       1.0000 |xxxxxxxxxxxxx |xxxxxxxxxxxxx |xxxxxxxxxxxxx |       1.0000 |       1.0000 |       1.0000 |       1.0000 |xxxxxxxxxxxxx |xxxxxxxxxxxxx |xxxxxxxxxxxxx |       1.0000 |       1.0000 |       1.0000 |       1.0000 |xxxxxxxxxxxxx |xxxxxxxxxxxxx |xxxxxxxxxxxxx |       1.0000 |       1.0000 |       1.0000 |       1.0000 |xxxxxxxxxxxxx |xxxxxxxxxxxxx |xxxxxxxxxxxxx |       1.0000 |       1.0000 |       1.0000 |       1.0000 |xxxxxxxxxxxxx |xxxxxxxxxxxxx |xxxxxxxxxxxxx |       1.0000 |       1.0000 |       1.0000 |       1.0000 |xxxxxxxxxxxxx |xxxxxxxxxxxxx |xxxxxxxxxxxxx |       1.0000 |       1.0000 |       1.0000 |       1.0000 |xxxxxxxxxxxxx |xxxxxxxxxxxxx |xxxxxxxxxxxxx |       1.0000 |       1.0000 |       1.0000 |       1.0000 |xxxxxxxxxxxxx |xxxxxxxxxxxxx |xxxxxxxxxxxxx |       1.0000 |       1.0000 |       1.0000 |       1.0000 |xxxxxxxxxxxxx |xxxxxxxxxxxxx |xxxxxxxxxxxxx |       1.0000 |       1.0000 |       1.0000 |       1.0000 |

Command list: 
	sslittle-na-sstrix-gcc -Wall -O3 -funroll-loops -finline-functions  -DRANDOM_SIZE=4096 -DOFFSET=8 -DSORT=base_quicksort7 sorts/base_quicksort7254914917.c simpleMain.c -o base_quicksort7434316066
	sim-cache -cache:dl1 dl1:256:32:1:l -cache:dl2 dl2:131072:32:1:l -cache:il1 il1:256:32:1:l -cache:il2 dl2 base_quicksort7434316066
	sim-cache -cache:dl1 dl1:256:32:1:l -cache:dl2 dl2:65536:32:1:l -cache:il1 il1:256:32:1:l -cache:il2 dl2 base_quicksort7434316066
	sim-cache -cache:dl1 dl1:1:32:256:l -cache:dl2 dl2:1:32:131072:l -cache:il1 il1:1:32:256:l -cache:il2 dl2 base_quicksort7434316066
	sim-cache -cache:dl1 dl1:1:32:256:l -cache:dl2 dl2:1:32:65536:l -cache:il1 il1:1:32:256:l -cache:il2 dl2 base_quicksort7434316066
	sim-bpred -bpred bimod -bpred:bimod 512 base_quicksort7434316066
	sim-bpred -bpred bimod -bpred:bimod 1024 base_quicksort7434316066
	sim-bpred -bpred bimod -bpred:bimod 2048 base_quicksort7434316066
	sim-bpred -bpred 2lev -bpred:2lev 1 512 10 1 base_quicksort7434316066
	sim-bpred -bpred 2lev -bpred:2lev 1 1024 10 1 base_quicksort7434316066
	sim-bpred -bpred 2lev -bpred:2lev 1 2048 10 1 base_quicksort7434316066
	sim-bpred -bpred 2lev -bpred:2lev 1 4096 10 1 base_quicksort7434316066
	sslittle-na-sstrix-gcc -Wall -O3 -funroll-loops -finline-functions  -DRANDOM_SIZE=8192 -DOFFSET=8 -DSORT=base_quicksort7 sorts/base_quicksort7254914917.c simpleMain.c -o base_quicksort7434316066
	sim-cache -cache:dl1 dl1:256:32:1:l -cache:dl2 dl2:131072:32:1:l -cache:il1 il1:256:32:1:l -cache:il2 dl2 base_quicksort7434316066
	sim-cache -cache:dl1 dl1:256:32:1:l -cache:dl2 dl2:65536:32:1:l -cache:il1 il1:256:32:1:l -cache:il2 dl2 base_quicksort7434316066
	sim-cache -cache:dl1 dl1:1:32:256:l -cache:dl2 dl2:1:32:131072:l -cache:il1 il1:1:32:256:l -cache:il2 dl2 base_quicksort7434316066
	sim-cache -cache:dl1 dl1:1:32:256:l -cache:dl2 dl2:1:32:65536:l -cache:il1 il1:1:32:256:l -cache:il2 dl2 base_quicksort7434316066
	sim-bpred -bpred bimod -bpred:bimod 512 base_quicksort7434316066
	sim-bpred -bpred bimod -bpred:bimod 1024 base_quicksort7434316066
	sim-bpred -bpred bimod -bpred:bimod 2048 base_quicksort7434316066
	sim-bpred -bpred 2lev -bpred:2lev 1 512 10 1 base_quicksort7434316066
	sim-bpred -bpred 2lev -bpred:2lev 1 1024 10 1 base_quicksort7434316066
	sim-bpred -bpred 2lev -bpred:2lev 1 2048 10 1 base_quicksort7434316066
	sim-bpred -bpred 2lev -bpred:2lev 1 4096 10 1 base_quicksort7434316066
	sslittle-na-sstrix-gcc -Wall -O3 -funroll-loops -finline-functions  -DRANDOM_SIZE=16384 -DOFFSET=8 -DSORT=base_quicksort7 sorts/base_quicksort7254914917.c simpleMain.c -o base_quicksort7434316066
	sim-cache -cache:dl1 dl1:256:32:1:l -cache:dl2 dl2:131072:32:1:l -cache:il1 il1:256:32:1:l -cache:il2 dl2 base_quicksort7434316066
	sim-cache -cache:dl1 dl1:256:32:1:l -cache:dl2 dl2:65536:32:1:l -cache:il1 il1:256:32:1:l -cache:il2 dl2 base_quicksort7434316066
	sim-cache -cache:dl1 dl1:1:32:256:l -cache:dl2 dl2:1:32:131072:l -cache:il1 il1:1:32:256:l -cache:il2 dl2 base_quicksort7434316066
	sim-cache -cache:dl1 dl1:1:32:256:l -cache:dl2 dl2:1:32:65536:l -cache:il1 il1:1:32:256:l -cache:il2 dl2 base_quicksort7434316066
	sim-bpred -bpred bimod -bpred:bimod 512 base_quicksort7434316066
	sim-bpred -bpred bimod -bpred:bimod 1024 base_quicksort7434316066
	sim-bpred -bpred bimod -bpred:bimod 2048 base_quicksort7434316066
	sim-bpred -bpred 2lev -bpred:2lev 1 512 10 1 base_quicksort7434316066
	sim-bpred -bpred 2lev -bpred:2lev 1 1024 10 1 base_quicksort7434316066
	sim-bpred -bpred 2lev -bpred:2lev 1 2048 10 1 base_quicksort7434316066
	sim-bpred -bpred 2lev -bpred:2lev 1 4096 10 1 base_quicksort7434316066
	sslittle-na-sstrix-gcc -Wall -O3 -funroll-loops -finline-functions  -DRANDOM_SIZE=32768 -DOFFSET=8 -DSORT=base_quicksort7 sorts/base_quicksort7254914917.c simpleMain.c -o base_quicksort7434316066
	sim-cache -cache:dl1 dl1:256:32:1:l -cache:dl2 dl2:131072:32:1:l -cache:il1 il1:256:32:1:l -cache:il2 dl2 base_quicksort7434316066
	sim-cache -cache:dl1 dl1:256:32:1:l -cache:dl2 dl2:65536:32:1:l -cache:il1 il1:256:32:1:l -cache:il2 dl2 base_quicksort7434316066
	sim-cache -cache:dl1 dl1:1:32:256:l -cache:dl2 dl2:1:32:131072:l -cache:il1 il1:1:32:256:l -cache:il2 dl2 base_quicksort7434316066
	sim-cache -cache:dl1 dl1:1:32:256:l -cache:dl2 dl2:1:32:65536:l -cache:il1 il1:1:32:256:l -cache:il2 dl2 base_quicksort7434316066
	sim-bpred -bpred bimod -bpred:bimod 512 base_quicksort7434316066
	sim-bpred -bpred bimod -bpred:bimod 1024 base_quicksort7434316066
	sim-bpred -bpred bimod -bpred:bimod 2048 base_quicksort7434316066
	sim-bpred -bpred 2lev -bpred:2lev 1 512 10 1 base_quicksort7434316066
	sim-bpred -bpred 2lev -bpred:2lev 1 1024 10 1 base_quicksort7434316066
	sim-bpred -bpred 2lev -bpred:2lev 1 2048 10 1 base_quicksort7434316066
	sim-bpred -bpred 2lev -bpred:2lev 1 4096 10 1 base_quicksort7434316066
	sslittle-na-sstrix-gcc -Wall -O3 -funroll-loops -finline-functions  -DRANDOM_SIZE=65536 -DOFFSET=8 -DSORT=base_quicksort7 sorts/base_quicksort7254914917.c simpleMain.c -o base_quicksort7434316066
	sim-cache -cache:dl1 dl1:256:32:1:l -cache:dl2 dl2:131072:32:1:l -cache:il1 il1:256:32:1:l -cache:il2 dl2 base_quicksort7434316066
	sim-cache -cache:dl1 dl1:256:32:1:l -cache:dl2 dl2:65536:32:1:l -cache:il1 il1:256:32:1:l -cache:il2 dl2 base_quicksort7434316066
	sim-cache -cache:dl1 dl1:1:32:256:l -cache:dl2 dl2:1:32:131072:l -cache:il1 il1:1:32:256:l -cache:il2 dl2 base_quicksort7434316066
	sim-cache -cache:dl1 dl1:1:32:256:l -cache:dl2 dl2:1:32:65536:l -cache:il1 il1:1:32:256:l -cache:il2 dl2 base_quicksort7434316066
	sim-bpred -bpred bimod -bpred:bimod 512 base_quicksort7434316066
	sim-bpred -bpred bimod -bpred:bimod 1024 base_quicksort7434316066
	sim-bpred -bpred bimod -bpred:bimod 2048 base_quicksort7434316066
	sim-bpred -bpred 2lev -bpred:2lev 1 512 10 1 base_quicksort7434316066
	sim-bpred -bpred 2lev -bpred:2lev 1 1024 10 1 base_quicksort7434316066
	sim-bpred -bpred 2lev -bpred:2lev 1 2048 10 1 base_quicksort7434316066
	sim-bpred -bpred 2lev -bpred:2lev 1 4096 10 1 base_quicksort7434316066
	sslittle-na-sstrix-gcc -Wall -O3 -funroll-loops -finline-functions  -DRANDOM_SIZE=131072 -DOFFSET=8 -DSORT=base_quicksort7 sorts/base_quicksort7254914917.c simpleMain.c -o base_quicksort7434316066
	sim-cache -cache:dl1 dl1:256:32:1:l -cache:dl2 dl2:131072:32:1:l -cache:il1 il1:256:32:1:l -cache:il2 dl2 base_quicksort7434316066
	sim-cache -cache:dl1 dl1:256:32:1:l -cache:dl2 dl2:65536:32:1:l -cache:il1 il1:256:32:1:l -cache:il2 dl2 base_quicksort7434316066
	sim-cache -cache:dl1 dl1:1:32:256:l -cache:dl2 dl2:1:32:131072:l -cache:il1 il1:1:32:256:l -cache:il2 dl2 base_quicksort7434316066
	sim-cache -cache:dl1 dl1:1:32:256:l -cache:dl2 dl2:1:32:65536:l -cache:il1 il1:1:32:256:l -cache:il2 dl2 base_quicksort7434316066
	sim-bpred -bpred bimod -bpred:bimod 512 base_quicksort7434316066
	sim-bpred -bpred bimod -bpred:bimod 1024 base_quicksort7434316066
	sim-bpred -bpred bimod -bpred:bimod 2048 base_quicksort7434316066
	sim-bpred -bpred 2lev -bpred:2lev 1 512 10 1 base_quicksort7434316066
	sim-bpred -bpred 2lev -bpred:2lev 1 1024 10 1 base_quicksort7434316066
	sim-bpred -bpred 2lev -bpred:2lev 1 2048 10 1 base_quicksort7434316066
	sim-bpred -bpred 2lev -bpred:2lev 1 4096 10 1 base_quicksort7434316066
	sslittle-na-sstrix-gcc -Wall -O3 -funroll-loops -finline-functions  -DRANDOM_SIZE=262144 -DOFFSET=8 -DSORT=base_quicksort7 sorts/base_quicksort7254914917.c simpleMain.c -o base_quicksort7434316066
	sim-cache -cache:dl1 dl1:256:32:1:l -cache:dl2 dl2:131072:32:1:l -cache:il1 il1:256:32:1:l -cache:il2 dl2 base_quicksort7434316066
	sim-cache -cache:dl1 dl1:256:32:1:l -cache:dl2 dl2:65536:32:1:l -cache:il1 il1:256:32:1:l -cache:il2 dl2 base_quicksort7434316066
	sim-cache -cache:dl1 dl1:1:32:256:l -cache:dl2 dl2:1:32:131072:l -cache:il1 il1:1:32:256:l -cache:il2 dl2 base_quicksort7434316066
	sim-cache -cache:dl1 dl1:1:32:256:l -cache:dl2 dl2:1:32:65536:l -cache:il1 il1:1:32:256:l -cache:il2 dl2 base_quicksort7434316066
	sim-bpred -bpred bimod -bpred:bimod 512 base_quicksort7434316066
	sim-bpred -bpred bimod -bpred:bimod 1024 base_quicksort7434316066
	sim-bpred -bpred bimod -bpred:bimod 2048 base_quicksort7434316066
	sim-bpred -bpred 2lev -bpred:2lev 1 512 10 1 base_quicksort7434316066
	sim-bpred -bpred 2lev -bpred:2lev 1 1024 10 1 base_quicksort7434316066
	sim-bpred -bpred 2lev -bpred:2lev 1 2048 10 1 base_quicksort7434316066
	sim-bpred -bpred 2lev -bpred:2lev 1 4096 10 1 base_quicksort7434316066
	sslittle-na-sstrix-gcc -Wall -O3 -funroll-loops -finline-functions  -DRANDOM_SIZE=524288 -DOFFSET=8 -DSORT=base_quicksort7 sorts/base_quicksort7254914917.c simpleMain.c -o base_quicksort7434316066
	sim-cache -cache:dl1 dl1:256:32:1:l -cache:dl2 dl2:131072:32:1:l -cache:il1 il1:256:32:1:l -cache:il2 dl2 base_quicksort7434316066
	sim-cache -cache:dl1 dl1:256:32:1:l -cache:dl2 dl2:65536:32:1:l -cache:il1 il1:256:32:1:l -cache:il2 dl2 base_quicksort7434316066
	sim-cache -cache:dl1 dl1:1:32:256:l -cache:dl2 dl2:1:32:131072:l -cache:il1 il1:1:32:256:l -cache:il2 dl2 base_quicksort7434316066
	sim-cache -cache:dl1 dl1:1:32:256:l -cache:dl2 dl2:1:32:65536:l -cache:il1 il1:1:32:256:l -cache:il2 dl2 base_quicksort7434316066
	sim-bpred -bpred bimod -bpred:bimod 512 base_quicksort7434316066
	sim-bpred -bpred bimod -bpred:bimod 1024 base_quicksort7434316066
	sim-bpred -bpred bimod -bpred:bimod 2048 base_quicksort7434316066
	sim-bpred -bpred 2lev -bpred:2lev 1 512 10 1 base_quicksort7434316066
	sim-bpred -bpred 2lev -bpred:2lev 1 1024 10 1 base_quicksort7434316066
	sim-bpred -bpred 2lev -bpred:2lev 1 2048 10 1 base_quicksort7434316066
	sim-bpred -bpred 2lev -bpred:2lev 1 4096 10 1 base_quicksort7434316066
	sslittle-na-sstrix-gcc -Wall -O3 -funroll-loops -finline-functions  -DRANDOM_SIZE=1048576 -DOFFSET=8 -DSORT=base_quicksort7 sorts/base_quicksort7254914917.c simpleMain.c -o base_quicksort7434316066
	sim-cache -cache:dl1 dl1:256:32:1:l -cache:dl2 dl2:131072:32:1:l -cache:il1 il1:256:32:1:l -cache:il2 dl2 base_quicksort7434316066
	sim-cache -cache:dl1 dl1:256:32:1:l -cache:dl2 dl2:65536:32:1:l -cache:il1 il1:256:32:1:l -cache:il2 dl2 base_quicksort7434316066
	sim-cache -cache:dl1 dl1:1:32:256:l -cache:dl2 dl2:1:32:131072:l -cache:il1 il1:1:32:256:l -cache:il2 dl2 base_quicksort7434316066
	sim-cache -cache:dl1 dl1:1:32:256:l -cache:dl2 dl2:1:32:65536:l -cache:il1 il1:1:32:256:l -cache:il2 dl2 base_quicksort7434316066
	sim-bpred -bpred bimod -bpred:bimod 512 base_quicksort7434316066
	sim-bpred -bpred bimod -bpred:bimod 1024 base_quicksort7434316066
	sim-bpred -bpred bimod -bpred:bimod 2048 base_quicksort7434316066
	sim-bpred -bpred 2lev -bpred:2lev 1 512 10 1 base_quicksort7434316066
	sim-bpred -bpred 2lev -bpred:2lev 1 1024 10 1 base_quicksort7434316066
	sim-bpred -bpred 2lev -bpred:2lev 1 2048 10 1 base_quicksort7434316066
	sim-bpred -bpred 2lev -bpred:2lev 1 4096 10 1 base_quicksort7434316066
	sslittle-na-sstrix-gcc -Wall -O3 -funroll-loops -finline-functions  -DRANDOM_SIZE=2097152 -DOFFSET=8 -DSORT=base_quicksort7 sorts/base_quicksort7254914917.c simpleMain.c -o base_quicksort7434316066
	sim-cache -cache:dl1 dl1:256:32:1:l -cache:dl2 dl2:131072:32:1:l -cache:il1 il1:256:32:1:l -cache:il2 dl2 base_quicksort7434316066
	sim-cache -cache:dl1 dl1:256:32:1:l -cache:dl2 dl2:65536:32:1:l -cache:il1 il1:256:32:1:l -cache:il2 dl2 base_quicksort7434316066
	sim-cache -cache:dl1 dl1:1:32:256:l -cache:dl2 dl2:1:32:131072:l -cache:il1 il1:1:32:256:l -cache:il2 dl2 base_quicksort7434316066
	sim-cache -cache:dl1 dl1:1:32:256:l -cache:dl2 dl2:1:32:65536:l -cache:il1 il1:1:32:256:l -cache:il2 dl2 base_quicksort7434316066
	sim-bpred -bpred bimod -bpred:bimod 512 base_quicksort7434316066
	sim-bpred -bpred bimod -bpred:bimod 1024 base_quicksort7434316066
	sim-bpred -bpred bimod -bpred:bimod 2048 base_quicksort7434316066
	sim-bpred -bpred 2lev -bpred:2lev 1 512 10 1 base_quicksort7434316066
	sim-bpred -bpred 2lev -bpred:2lev 1 1024 10 1 base_quicksort7434316066
	sim-bpred -bpred 2lev -bpred:2lev 1 2048 10 1 base_quicksort7434316066
	sim-bpred -bpred 2lev -bpred:2lev 1 4096 10 1 base_quicksort7434316066
	sslittle-na-sstrix-gcc -Wall -O3 -funroll-loops -finline-functions  -DRANDOM_SIZE=4194304 -DOFFSET=8 -DSORT=base_quicksort7 sorts/base_quicksort7254914917.c simpleMain.c -o base_quicksort7434316066
	sim-cache -cache:dl1 dl1:256:32:1:l -cache:dl2 dl2:131072:32:1:l -cache:il1 il1:256:32:1:l -cache:il2 dl2 base_quicksort7434316066
	sim-cache -cache:dl1 dl1:256:32:1:l -cache:dl2 dl2:65536:32:1:l -cache:il1 il1:256:32:1:l -cache:il2 dl2 base_quicksort7434316066
	sim-cache -cache:dl1 dl1:1:32:256:l -cache:dl2 dl2:1:32:131072:l -cache:il1 il1:1:32:256:l -cache:il2 dl2 base_quicksort7434316066
	sim-cache -cache:dl1 dl1:1:32:256:l -cache:dl2 dl2:1:32:65536:l -cache:il1 il1:1:32:256:l -cache:il2 dl2 base_quicksort7434316066
	sim-bpred -bpred bimod -bpred:bimod 512 base_quicksort7434316066
	sim-bpred -bpred bimod -bpred:bimod 1024 base_quicksort7434316066
	sim-bpred -bpred bimod -bpred:bimod 2048 base_quicksort7434316066
	sim-bpred -bpred 2lev -bpred:2lev 1 512 10 1 base_quicksort7434316066
	sim-bpred -bpred 2lev -bpred:2lev 1 1024 10 1 base_quicksort7434316066
	sim-bpred -bpred 2lev -bpred:2lev 1 2048 10 1 base_quicksort7434316066
	sim-bpred -bpred 2lev -bpred:2lev 1 4096 10 1 base_quicksort7434316066
