Thu Aug  4 09:28:10 2005
Run as: "./do_simple -c random.org9 -o 9 base_radixsort"
-------------------------------------------------------------------------------------------------
sim-cache                                     4096 |         4096 |         4096 |         4096 |         8192 |         8192 |         8192 |         8192 |        16384 |        16384 |        16384 |        16384 |        32768 |        32768 |        32768 |        32768 |        65536 |        65536 |        65536 |        65536 |       131072 |       131072 |       131072 |       131072 |       262144 |       262144 |       262144 |       262144 |       524288 |       524288 |       524288 |       524288 |      1048576 |      1048576 |      1048576 |      1048576 |      2097152 |      2097152 |      2097152 |      2097152 |      4194304 |      4194304 |      4194304 |      4194304 |
-cache:dl1 dl1:256:32:1:l -cache:dl2 dl2:131072:32:1:l -cache:il1 il1:256:32:1:l -cache:il2 dl2
-cache:dl1 dl1:256:32:1:l -cache:dl2 dl2:65536:32:1:l -cache:il1 il1:256:32:1:l -cache:il2 dl2
-cache:dl1 dl1:1:32:256:l -cache:dl2 dl2:1:32:131072:l -cache:il1 il1:1:32:256:l -cache:il2 dl2
-cache:dl1 dl1:1:32:256:l -cache:dl2 dl2:1:32:65536:l -cache:il1 il1:1:32:256:l -cache:il2 dl2
-------------------------------------------------------------------------------------------------
sim_num_insn                                431107 |       431107 |       431107 |       431107 |       849041 |       849041 |       849041 |       849041 |      1684627 |      1684627 |      1684627 |      1684627 |      3355796 |      3355796 |      3355796 |      3355796 |      6698132 |      6698132 |      6698132 |      6698132 |     13382805 |     13382805 |     13382805 |     13382805 |     26752149 |     26752149 |     26752149 |     26752149 |     53490837 |     53490837 |     53490837 |     53490837 |    106980689 |    106980689 |    106980689 |    106980689 |    213944665 |    213944665 |    213944665 |    213944665 |    427872609 |    427872609 |    427872609 |    427872609 |
sim_num_refs                                171671 |       171671 |       171671 |       171671 |       335555 |       335555 |       335555 |       335555 |       663235 |       663235 |       663235 |       663235 |      1318595 |      1318595 |      1318595 |      1318595 |      2629315 |      2629315 |      2629315 |      2629315 |      5250755 |      5250755 |      5250755 |      5250755 |     10493635 |     10493635 |     10493635 |     10493635 |     20979395 |     20979395 |     20979395 |     20979395 |     41960177 |     41960177 |     41960177 |     41960177 |     83909361 |     83909361 |     83909361 |     83909361 |    167807729 |    167807729 |    167807729 |    167807729 |
sim_elapsed_time                                 1 |            1 |           10 |            4 |            1 |            1 |           15 |            7 |            1 |            1 |           26 |           13 |            1 |            1 |           46 |           23 |            2 |            3 |           85 |           42 |            5 |            4 |          156 |           70 |            9 |            8 |          267 |           95 |           17 |           18 |          359 |          105 |           35 |           35 |          381 |          126 |           71 |           70 |          422 |          168 |          140 |          139 |          507 |          252 |
sim_inst_rate                          431107.0000 |  431107.0000 |   43110.7000 |  107776.7500 |  849041.0000 |  849041.0000 |   56602.7333 |  121291.5714 | 1684627.0000 | 1684627.0000 |   64793.3462 |  129586.6923 | 3355796.0000 | 3355796.0000 |   72952.0870 |  145904.1739 | 3349066.0000 | 2232710.6667 |   78801.5529 |  159479.3333 | 2676561.0000 | 3345701.2500 |   85787.2115 |  191182.9286 | 2972461.0000 | 3344018.6250 |  100195.3146 |  281601.5684 | 3146519.8235 | 2971713.1667 |  148999.5460 |  509436.5429 | 3056591.1143 | 3056591.1143 |  280789.2100 |  849053.0873 | 3013305.1408 | 3056352.3571 |  506977.8791 | 1273480.1488 | 3056232.9214 | 3078220.2086 |  843930.1953 | 1697907.1786 |
il1.accesses                                431107 |       431107 |       431107 |       431107 |       849041 |       849041 |       849041 |       849041 |      1684627 |      1684627 |      1684627 |      1684627 |      3355796 |      3355796 |      3355796 |      3355796 |      6698132 |      6698132 |      6698132 |      6698132 |     13382805 |     13382805 |     13382805 |     13382805 |     26752149 |     26752149 |     26752149 |     26752149 |     53490837 |     53490837 |     53490837 |     53490837 |    106980689 |    106980689 |    106980689 |    106980689 |    213944665 |    213944665 |    213944665 |    213944665 |    427872609 |    427872609 |    427872609 |    427872609 |
il1.hits                                    430683 |       430683 |       430735 |       430735 |       848598 |       848598 |       848679 |       848679 |      1684170 |      1684170 |      1684259 |      1684259 |      3355353 |      3355353 |      3355433 |      3355433 |      6697689 |      6697689 |      6697769 |      6697769 |     13382363 |     13382363 |     13382443 |     13382443 |     26751707 |     26751707 |     26751787 |     26751787 |     53490395 |     53490395 |     53490475 |     53490475 |    106980197 |    106980197 |    106980257 |    106980257 |    213944173 |    213944173 |    213944233 |    213944233 |    427872117 |    427872117 |    427872177 |    427872177 |
il1.misses                                     424 |          424 |          372 |          372 |          443 |          443 |          362 |          362 |          457 |          457 |          368 |          368 |          443 |          443 |          363 |          363 |          443 |          443 |          363 |          363 |          442 |          442 |          362 |          362 |          442 |          442 |          362 |          362 |          442 |          442 |          362 |          362 |          492 |          492 |          432 |          432 |          492 |          492 |          432 |          432 |          492 |          492 |          432 |          432 |
il1.replacements                               222 |          222 |          116 |          116 |          243 |          243 |          106 |          106 |          255 |          255 |          112 |          112 |          241 |          241 |          107 |          107 |          241 |          241 |          107 |          107 |          241 |          241 |          106 |          106 |          241 |          241 |          106 |          106 |          241 |          241 |          106 |          106 |          276 |          276 |          176 |          176 |          276 |          276 |          176 |          176 |          276 |          276 |          176 |          176 |
il1.writebacks                                   0 |            0 |            0 |            0 |            0 |            0 |            0 |            0 |            0 |            0 |            0 |            0 |            0 |            0 |            0 |            0 |            0 |            0 |            0 |            0 |            0 |            0 |            0 |            0 |            0 |            0 |            0 |            0 |            0 |            0 |            0 |            0 |            0 |            0 |            0 |            0 |            0 |            0 |            0 |            0 |            0 |            0 |            0 |            0 |
il1.invalidations                                0 |            0 |            0 |            0 |            0 |            0 |            0 |            0 |            0 |            0 |            0 |            0 |            0 |            0 |            0 |            0 |            0 |            0 |            0 |            0 |            0 |            0 |            0 |            0 |            0 |            0 |            0 |            0 |            0 |            0 |            0 |            0 |            0 |            0 |            0 |            0 |            0 |            0 |            0 |            0 |            0 |            0 |            0 |            0 |
il1.miss_rate                               0.0010 |       0.0010 |       0.0009 |       0.0009 |       0.0005 |       0.0005 |       0.0004 |       0.0004 |       0.0003 |       0.0003 |       0.0002 |       0.0002 |       0.0001 |       0.0001 |       0.0001 |       0.0001 |       0.0001 |       0.0001 |       0.0001 |       0.0001 |       0.0000 |       0.0000 |       0.0000 |       0.0000 |       0.0000 |       0.0000 |       0.0000 |       0.0000 |       0.0000 |       0.0000 |       0.0000 |       0.0000 |       0.0000 |       0.0000 |       0.0000 |       0.0000 |       0.0000 |       0.0000 |       0.0000 |       0.0000 |       0.0000 |       0.0000 |       0.0000 |       0.0000 |
il1.repl_rate                               0.0005 |       0.0005 |       0.0003 |       0.0003 |       0.0003 |       0.0003 |       0.0001 |       0.0001 |       0.0002 |       0.0002 |       0.0001 |       0.0001 |       0.0001 |       0.0001 |       0.0000 |       0.0000 |       0.0000 |       0.0000 |       0.0000 |       0.0000 |       0.0000 |       0.0000 |       0.0000 |       0.0000 |       0.0000 |       0.0000 |       0.0000 |       0.0000 |       0.0000 |       0.0000 |       0.0000 |       0.0000 |       0.0000 |       0.0000 |       0.0000 |       0.0000 |       0.0000 |       0.0000 |       0.0000 |       0.0000 |       0.0000 |       0.0000 |       0.0000 |       0.0000 |
il1.wb_rate                                 0.0000 |       0.0000 |       0.0000 |       0.0000 |       0.0000 |       0.0000 |       0.0000 |       0.0000 |       0.0000 |       0.0000 |       0.0000 |       0.0000 |       0.0000 |       0.0000 |       0.0000 |       0.0000 |       0.0000 |       0.0000 |       0.0000 |       0.0000 |       0.0000 |       0.0000 |       0.0000 |       0.0000 |       0.0000 |       0.0000 |       0.0000 |       0.0000 |       0.0000 |       0.0000 |       0.0000 |       0.0000 |       0.0000 |       0.0000 |       0.0000 |       0.0000 |       0.0000 |       0.0000 |       0.0000 |       0.0000 |       0.0000 |       0.0000 |       0.0000 |       0.0000 |
il1.inv_rate                                0.0000 |       0.0000 |       0.0000 |       0.0000 |       0.0000 |       0.0000 |       0.0000 |       0.0000 |       0.0000 |       0.0000 |       0.0000 |       0.0000 |       0.0000 |       0.0000 |       0.0000 |       0.0000 |       0.0000 |       0.0000 |       0.0000 |       0.0000 |       0.0000 |       0.0000 |       0.0000 |       0.0000 |       0.0000 |       0.0000 |       0.0000 |       0.0000 |       0.0000 |       0.0000 |       0.0000 |       0.0000 |       0.0000 |       0.0000 |       0.0000 |       0.0000 |       0.0000 |       0.0000 |       0.0000 |       0.0000 |       0.0000 |       0.0000 |       0.0000 |       0.0000 |
dl1.accesses                                188137 |       188137 |       188137 |       188137 |       368405 |       368405 |       368405 |       368405 |       728853 |       728853 |       728853 |       728853 |      1449749 |      1449749 |      1449749 |      1449749 |      2891541 |      2891541 |      2891541 |      2891541 |      5775125 |      5775125 |      5775125 |      5775125 |     11542293 |     11542293 |     11542293 |     11542293 |     23076629 |     23076629 |     23076629 |     23076629 |     46154563 |     46154563 |     46154563 |     46154563 |     92298051 |     92298051 |     92298051 |     92298051 |    184585027 |    184585027 |    184585027 |    184585027 |
dl1.hits                                    168026 |       168026 |       171932 |       171932 |       327327 |       327327 |       336607 |       336607 |       647089 |       647089 |       666325 |       666325 |      1284238 |      1284238 |      1325597 |      1325597 |      2553589 |      2553589 |      2643741 |      2643741 |      5087664 |      5087664 |      5280323 |      5280323 |     10114458 |     10114458 |     10552144 |     10552144 |     20089569 |     20089569 |     21098436 |     21098436 |     40268661 |     40268661 |     42197485 |     42197485 |     81216680 |     81216680 |     84384274 |     84384274 |    163110897 |    163110897 |    168759403 |    168759403 |
dl1.misses                                   20111 |        20111 |        16205 |        16205 |        41078 |        41078 |        31798 |        31798 |        81764 |        81764 |        62528 |        62528 |       165511 |       165511 |       124152 |       124152 |       337952 |       337952 |       247800 |       247800 |       687461 |       687461 |       494802 |       494802 |      1427835 |      1427835 |       990149 |       990149 |      2987060 |      2987060 |      1978193 |      1978193 |      5885902 |      5885902 |      3957078 |      3957078 |     11081371 |     11081371 |      7913777 |      7913777 |     21474130 |     21474130 |     15825624 |     15825624 |
dl1.replacements                             19855 |        19855 |        15949 |        15949 |        40822 |        40822 |        31542 |        31542 |        81508 |        81508 |        62272 |        62272 |       165255 |       165255 |       123896 |       123896 |       337696 |       337696 |       247544 |       247544 |       687205 |       687205 |       494546 |       494546 |      1427579 |      1427579 |       989893 |       989893 |      2986804 |      2986804 |      1977937 |      1977937 |      5885646 |      5885646 |      3956822 |      3956822 |     11081115 |     11081115 |      7913521 |      7913521 |     21473874 |     21473874 |     15825368 |     15825368 |
dl1.writebacks                               13828 |        13828 |         9991 |         9991 |        28376 |        28376 |        19391 |        19391 |        56379 |        56379 |        37814 |        37814 |       114822 |       114822 |        74854 |        74854 |       236623 |       236623 |       149340 |       149340 |       484825 |       484825 |       298037 |       298037 |      1023158 |      1023158 |       596774 |       596774 |      2177936 |      2177936 |      1191602 |      1191602 |      4267350 |      4267350 |      2383667 |      2383667 |      7845561 |      7845561 |      4767502 |      4767502 |     15002480 |     15002480 |      9533621 |      9533621 |
dl1.invalidations                                0 |            0 |            0 |            0 |            0 |            0 |            0 |            0 |            0 |            0 |            0 |            0 |            0 |            0 |            0 |            0 |            0 |            0 |            0 |            0 |            0 |            0 |            0 |            0 |            0 |            0 |            0 |            0 |            0 |            0 |            0 |            0 |            0 |            0 |            0 |            0 |            0 |            0 |            0 |            0 |            0 |            0 |            0 |            0 |
dl1.miss_rate                               0.1069 |       0.1069 |       0.0861 |       0.0861 |       0.1115 |       0.1115 |       0.0863 |       0.0863 |       0.1122 |       0.1122 |       0.0858 |       0.0858 |       0.1142 |       0.1142 |       0.0856 |       0.0856 |       0.1169 |       0.1169 |       0.0857 |       0.0857 |       0.1190 |       0.1190 |       0.0857 |       0.0857 |       0.1237 |       0.1237 |       0.0858 |       0.0858 |       0.1294 |       0.1294 |       0.0857 |       0.0857 |       0.1275 |       0.1275 |       0.0857 |       0.0857 |       0.1201 |       0.1201 |       0.0857 |       0.0857 |       0.1163 |       0.1163 |       0.0857 |       0.0857 |
dl1.repl_rate                               0.1055 |       0.1055 |       0.0848 |       0.0848 |       0.1108 |       0.1108 |       0.0856 |       0.0856 |       0.1118 |       0.1118 |       0.0854 |       0.0854 |       0.1140 |       0.1140 |       0.0855 |       0.0855 |       0.1168 |       0.1168 |       0.0856 |       0.0856 |       0.1190 |       0.1190 |       0.0856 |       0.0856 |       0.1237 |       0.1237 |       0.0858 |       0.0858 |       0.1294 |       0.1294 |       0.0857 |       0.0857 |       0.1275 |       0.1275 |       0.0857 |       0.0857 |       0.1201 |       0.1201 |       0.0857 |       0.0857 |       0.1163 |       0.1163 |       0.0857 |       0.0857 |
dl1.wb_rate                                 0.0735 |       0.0735 |       0.0531 |       0.0531 |       0.0770 |       0.0770 |       0.0526 |       0.0526 |       0.0774 |       0.0774 |       0.0519 |       0.0519 |       0.0792 |       0.0792 |       0.0516 |       0.0516 |       0.0818 |       0.0818 |       0.0516 |       0.0516 |       0.0840 |       0.0840 |       0.0516 |       0.0516 |       0.0886 |       0.0886 |       0.0517 |       0.0517 |       0.0944 |       0.0944 |       0.0516 |       0.0516 |       0.0925 |       0.0925 |       0.0516 |       0.0516 |       0.0850 |       0.0850 |       0.0517 |       0.0517 |       0.0813 |       0.0813 |       0.0516 |       0.0516 |
dl1.inv_rate                                0.0000 |       0.0000 |       0.0000 |       0.0000 |       0.0000 |       0.0000 |       0.0000 |       0.0000 |       0.0000 |       0.0000 |       0.0000 |       0.0000 |       0.0000 |       0.0000 |       0.0000 |       0.0000 |       0.0000 |       0.0000 |       0.0000 |       0.0000 |       0.0000 |       0.0000 |       0.0000 |       0.0000 |       0.0000 |       0.0000 |       0.0000 |       0.0000 |       0.0000 |       0.0000 |       0.0000 |       0.0000 |       0.0000 |       0.0000 |       0.0000 |       0.0000 |       0.0000 |       0.0000 |       0.0000 |       0.0000 |       0.0000 |       0.0000 |       0.0000 |       0.0000 |
dl2.accesses                                 34363 |        34363 |        26568 |        26568 |        69897 |        69897 |        51551 |        51551 |       138600 |       138600 |       100710 |       100710 |       280776 |       280776 |       199369 |       199369 |       575018 |       575018 |       397503 |       397503 |      1172728 |      1172728 |       793201 |       793201 |      2451435 |      2451435 |      1587285 |      1587285 |      5165438 |      5165438 |      3170157 |      3170157 |     10153744 |     10153744 |      6341177 |      6341177 |     18927424 |     18927424 |     12681711 |     12681711 |     36477102 |     36477102 |     25359677 |     25359677 |
dl2.hits                                     32514 |        32514 |        24728 |        24728 |        67031 |        67031 |        48697 |        48697 |       133675 |       133675 |        95803 |        95803 |       271764 |       271764 |       190370 |       190370 |       557813 |       557813 |       380312 |       380312 |      1139141 |      1139141 |       759627 |       759627 |      2385080 |      2359505 |      1520943 |      1516368 |      5008042 |      4296451 |      3032863 |      1828183 |      8430970 |      7403950 |      3657855 |      3602813 |     13479240 |     13370159 |      7206935 |      7180979 |     25406770 |     25253989 |     14360581 |     14347747 |
dl2.misses                                    1849 |         1849 |         1840 |         1840 |         2866 |         2866 |         2854 |         2854 |         4925 |         4925 |         4907 |         4907 |         9012 |         9012 |         8999 |         8999 |        17205 |        17205 |        17191 |        17191 |        33587 |        33587 |        33574 |        33574 |        66355 |        91930 |        66342 |        70917 |       157396 |       868987 |       137294 |      1341974 |      1722774 |      2749794 |      2683322 |      2738364 |      5448184 |      5557265 |      5474776 |      5500732 |     11070332 |     11223113 |     10999096 |     11011930 |
dl2.replacements                               206 |          206 |            0 |            0 |          226 |          226 |            0 |            0 |          257 |          257 |            0 |            0 |          248 |          248 |            0 |            0 |          249 |          249 |            0 |            0 |          248 |          248 |            0 |            0 |          248 |        27526 |            0 |         5381 |        27456 |       803451 |         6222 |      1276438 |      1591702 |      2684258 |      2552250 |      2672828 |      5317112 |      5491729 |      5343704 |      5435196 |     10939260 |     11157577 |     10868024 |     10946394 |
dl2.writebacks                                 135 |          135 |            0 |            0 |          141 |          141 |            0 |            0 |          166 |          166 |            0 |            0 |          162 |          162 |            0 |            0 |          162 |          162 |            0 |            0 |          162 |          162 |            0 |            0 |          162 |        17259 |            0 |         5010 |        17232 |       530494 |         5866 |       558582 |      1055542 |      1148776 |      1116397 |      1149252 |      2259719 |      2362917 |      2296877 |      2329847 |      4673700 |      4872586 |      4657847 |      4691029 |
dl2.invalidations                                0 |            0 |            0 |            0 |            0 |            0 |            0 |            0 |            0 |            0 |            0 |            0 |            0 |            0 |            0 |            0 |            0 |            0 |            0 |            0 |            0 |            0 |            0 |            0 |            0 |            0 |            0 |            0 |            0 |            0 |            0 |            0 |            0 |            0 |            0 |            0 |            0 |            0 |            0 |            0 |            0 |            0 |            0 |            0 |
dl2.miss_rate                               0.0538 |       0.0538 |       0.0693 |       0.0693 |       0.0410 |       0.0410 |       0.0554 |       0.0554 |       0.0355 |       0.0355 |       0.0487 |       0.0487 |       0.0321 |       0.0321 |       0.0451 |       0.0451 |       0.0299 |       0.0299 |       0.0432 |       0.0432 |       0.0286 |       0.0286 |       0.0423 |       0.0423 |       0.0271 |       0.0375 |       0.0418 |       0.0447 |       0.0305 |       0.1682 |       0.0433 |       0.4233 |       0.1697 |       0.2708 |       0.4232 |       0.4318 |       0.2878 |       0.2936 |       0.4317 |       0.4338 |       0.3035 |       0.3077 |       0.4337 |       0.4342 |
dl2.repl_rate                               0.0060 |       0.0060 |       0.0000 |       0.0000 |       0.0032 |       0.0032 |       0.0000 |       0.0000 |       0.0019 |       0.0019 |       0.0000 |       0.0000 |       0.0009 |       0.0009 |       0.0000 |       0.0000 |       0.0004 |       0.0004 |       0.0000 |       0.0000 |       0.0002 |       0.0002 |       0.0000 |       0.0000 |       0.0001 |       0.0112 |       0.0000 |       0.0034 |       0.0053 |       0.1555 |       0.0020 |       0.4026 |       0.1568 |       0.2644 |       0.4025 |       0.4215 |       0.2809 |       0.2901 |       0.4214 |       0.4286 |       0.2999 |       0.3059 |       0.4286 |       0.4316 |
dl2.wb_rate                                 0.0039 |       0.0039 |       0.0000 |       0.0000 |       0.0020 |       0.0020 |       0.0000 |       0.0000 |       0.0012 |       0.0012 |       0.0000 |       0.0000 |       0.0006 |       0.0006 |       0.0000 |       0.0000 |       0.0003 |       0.0003 |       0.0000 |       0.0000 |       0.0001 |       0.0001 |       0.0000 |       0.0000 |       0.0001 |       0.0070 |       0.0000 |       0.0032 |       0.0033 |       0.1027 |       0.0019 |       0.1762 |       0.1040 |       0.1131 |       0.1761 |       0.1812 |       0.1194 |       0.1248 |       0.1811 |       0.1837 |       0.1281 |       0.1336 |       0.1837 |       0.1850 |
dl2.inv_rate                                0.0000 |       0.0000 |       0.0000 |       0.0000 |       0.0000 |       0.0000 |       0.0000 |       0.0000 |       0.0000 |       0.0000 |       0.0000 |       0.0000 |       0.0000 |       0.0000 |       0.0000 |       0.0000 |       0.0000 |       0.0000 |       0.0000 |       0.0000 |       0.0000 |       0.0000 |       0.0000 |       0.0000 |       0.0000 |       0.0000 |       0.0000 |       0.0000 |       0.0000 |       0.0000 |       0.0000 |       0.0000 |       0.0000 |       0.0000 |       0.0000 |       0.0000 |       0.0000 |       0.0000 |       0.0000 |       0.0000 |       0.0000 |       0.0000 |       0.0000 |       0.0000 |
itlb.accesses                               431107 |       431107 |       431107 |       431107 |       849041 |       849041 |       849041 |       849041 |      1684627 |      1684627 |      1684627 |      1684627 |      3355796 |      3355796 |      3355796 |      3355796 |      6698132 |      6698132 |      6698132 |      6698132 |     13382805 |     13382805 |     13382805 |     13382805 |     26752149 |     26752149 |     26752149 |     26752149 |     53490837 |     53490837 |     53490837 |     53490837 |    106980689 |    106980689 |    106980689 |    106980689 |    213944665 |    213944665 |    213944665 |    213944665 |    427872609 |    427872609 |    427872609 |    427872609 |
itlb.hits                                   431096 |       431096 |       431096 |       431096 |       849031 |       849031 |       849031 |       849031 |      1684617 |      1684617 |      1684617 |      1684617 |      3355786 |      3355786 |      3355786 |      3355786 |      6698122 |      6698122 |      6698122 |      6698122 |     13382795 |     13382795 |     13382795 |     13382795 |     26752139 |     26752139 |     26752139 |     26752139 |     53490827 |     53490827 |     53490827 |     53490827 |    106980679 |    106980679 |    106980679 |    106980679 |    213944655 |    213944655 |    213944655 |    213944655 |    427872599 |    427872599 |    427872599 |    427872599 |
itlb.misses                                     11 |           11 |           11 |           11 |           10 |           10 |           10 |           10 |           10 |           10 |           10 |           10 |           10 |           10 |           10 |           10 |           10 |           10 |           10 |           10 |           10 |           10 |           10 |           10 |           10 |           10 |           10 |           10 |           10 |           10 |           10 |           10 |           10 |           10 |           10 |           10 |           10 |           10 |           10 |           10 |           10 |           10 |           10 |           10 |
itlb.replacements                                0 |            0 |            0 |            0 |            0 |            0 |            0 |            0 |            0 |            0 |            0 |            0 |            0 |            0 |            0 |            0 |            0 |            0 |            0 |            0 |            0 |            0 |            0 |            0 |            0 |            0 |            0 |            0 |            0 |            0 |            0 |            0 |            0 |            0 |            0 |            0 |            0 |            0 |            0 |            0 |            0 |            0 |            0 |            0 |
itlb.writebacks                                  0 |            0 |            0 |            0 |            0 |            0 |            0 |            0 |            0 |            0 |            0 |            0 |            0 |            0 |            0 |            0 |            0 |            0 |            0 |            0 |            0 |            0 |            0 |            0 |            0 |            0 |            0 |            0 |            0 |            0 |            0 |            0 |            0 |            0 |            0 |            0 |            0 |            0 |            0 |            0 |            0 |            0 |            0 |            0 |
itlb.invalidations                               0 |            0 |            0 |            0 |            0 |            0 |            0 |            0 |            0 |            0 |            0 |            0 |            0 |            0 |            0 |            0 |            0 |            0 |            0 |            0 |            0 |            0 |            0 |            0 |            0 |            0 |            0 |            0 |            0 |            0 |            0 |            0 |            0 |            0 |            0 |            0 |            0 |            0 |            0 |            0 |            0 |            0 |            0 |            0 |
itlb.miss_rate                              0.0000 |       0.0000 |       0.0000 |       0.0000 |       0.0000 |       0.0000 |       0.0000 |       0.0000 |       0.0000 |       0.0000 |       0.0000 |       0.0000 |       0.0000 |       0.0000 |       0.0000 |       0.0000 |       0.0000 |       0.0000 |       0.0000 |       0.0000 |       0.0000 |       0.0000 |       0.0000 |       0.0000 |       0.0000 |       0.0000 |       0.0000 |       0.0000 |       0.0000 |       0.0000 |       0.0000 |       0.0000 |       0.0000 |       0.0000 |       0.0000 |       0.0000 |       0.0000 |       0.0000 |       0.0000 |       0.0000 |       0.0000 |       0.0000 |       0.0000 |       0.0000 |
itlb.repl_rate                              0.0000 |       0.0000 |       0.0000 |       0.0000 |       0.0000 |       0.0000 |       0.0000 |       0.0000 |       0.0000 |       0.0000 |       0.0000 |       0.0000 |       0.0000 |       0.0000 |       0.0000 |       0.0000 |       0.0000 |       0.0000 |       0.0000 |       0.0000 |       0.0000 |       0.0000 |       0.0000 |       0.0000 |       0.0000 |       0.0000 |       0.0000 |       0.0000 |       0.0000 |       0.0000 |       0.0000 |       0.0000 |       0.0000 |       0.0000 |       0.0000 |       0.0000 |       0.0000 |       0.0000 |       0.0000 |       0.0000 |       0.0000 |       0.0000 |       0.0000 |       0.0000 |
itlb.wb_rate                                0.0000 |       0.0000 |       0.0000 |       0.0000 |       0.0000 |       0.0000 |       0.0000 |       0.0000 |       0.0000 |       0.0000 |       0.0000 |       0.0000 |       0.0000 |       0.0000 |       0.0000 |       0.0000 |       0.0000 |       0.0000 |       0.0000 |       0.0000 |       0.0000 |       0.0000 |       0.0000 |       0.0000 |       0.0000 |       0.0000 |       0.0000 |       0.0000 |       0.0000 |       0.0000 |       0.0000 |       0.0000 |       0.0000 |       0.0000 |       0.0000 |       0.0000 |       0.0000 |       0.0000 |       0.0000 |       0.0000 |       0.0000 |       0.0000 |       0.0000 |       0.0000 |
itlb.inv_rate                               0.0000 |       0.0000 |       0.0000 |       0.0000 |       0.0000 |       0.0000 |       0.0000 |       0.0000 |       0.0000 |       0.0000 |       0.0000 |       0.0000 |       0.0000 |       0.0000 |       0.0000 |       0.0000 |       0.0000 |       0.0000 |       0.0000 |       0.0000 |       0.0000 |       0.0000 |       0.0000 |       0.0000 |       0.0000 |       0.0000 |       0.0000 |       0.0000 |       0.0000 |       0.0000 |       0.0000 |       0.0000 |       0.0000 |       0.0000 |       0.0000 |       0.0000 |       0.0000 |       0.0000 |       0.0000 |       0.0000 |       0.0000 |       0.0000 |       0.0000 |       0.0000 |
dtlb.accesses                               188137 |       188137 |       188137 |       188137 |       368405 |       368405 |       368405 |       368405 |       728853 |       728853 |       728853 |       728853 |      1449749 |      1449749 |      1449749 |      1449749 |      2891541 |      2891541 |      2891541 |      2891541 |      5775125 |      5775125 |      5775125 |      5775125 |     11542293 |     11542293 |     11542293 |     11542293 |     23076629 |     23076629 |     23076629 |     23076629 |     46154563 |     46154563 |     46154563 |     46154563 |     92298051 |     92298051 |     92298051 |     92298051 |    184585027 |    184585027 |    184585027 |    184585027 |
dtlb.hits                                   188122 |       188122 |       188122 |       188122 |       368382 |       368382 |       368382 |       368382 |       728814 |       728814 |       728814 |       728814 |      1449678 |      1449678 |      1449678 |      1449678 |      2891375 |      2891375 |      2891375 |      2891375 |      5763584 |      5763584 |      5763584 |      5763584 |     11013496 |     11013496 |     11013496 |     11013496 |     21738982 |     21738982 |     21738982 |     21738982 |     42808942 |     42808942 |     42808942 |     42808942 |     85065359 |     85065359 |     85065359 |     85065359 |    169489168 |    169489168 |    169489168 |    169489168 |
dtlb.misses                                     15 |           15 |           15 |           15 |           23 |           23 |           23 |           23 |           39 |           39 |           39 |           39 |           71 |           71 |           71 |           71 |          166 |          166 |          166 |          166 |        11541 |        11541 |        11541 |        11541 |       528797 |       528797 |       528797 |       528797 |      1337647 |      1337647 |      1337647 |      1337647 |      3345621 |      3345621 |      3345621 |      3345621 |      7232692 |      7232692 |      7232692 |      7232692 |     15095859 |     15095859 |     15095859 |     15095859 |
dtlb.replacements                                0 |            0 |            0 |            0 |            0 |            0 |            0 |            0 |            0 |            0 |            0 |            0 |            0 |            0 |            0 |            0 |           38 |           38 |           38 |           38 |        11413 |        11413 |        11413 |        11413 |       528669 |       528669 |       528669 |       528669 |      1337519 |      1337519 |      1337519 |      1337519 |      3345493 |      3345493 |      3345493 |      3345493 |      7232564 |      7232564 |      7232564 |      7232564 |     15095731 |     15095731 |     15095731 |     15095731 |
dtlb.writebacks                                  0 |            0 |            0 |            0 |            0 |            0 |            0 |            0 |            0 |            0 |            0 |            0 |            0 |            0 |            0 |            0 |           27 |           27 |           27 |           27 |        10281 |        10281 |        10281 |        10281 |       525740 |       525740 |       525740 |       525740 |      1331473 |      1331473 |      1331473 |      1331473 |      3333280 |      3333280 |      3333280 |      3333280 |      7208051 |      7208051 |      7208051 |      7208051 |     15046640 |     15046640 |     15046640 |     15046640 |
dtlb.invalidations                               0 |            0 |            0 |            0 |            0 |            0 |            0 |            0 |            0 |            0 |            0 |            0 |            0 |            0 |            0 |            0 |            0 |            0 |            0 |            0 |            0 |            0 |            0 |            0 |            0 |            0 |            0 |            0 |            0 |            0 |            0 |            0 |            0 |            0 |            0 |            0 |            0 |            0 |            0 |            0 |            0 |            0 |            0 |            0 |
dtlb.miss_rate                              0.0001 |       0.0001 |       0.0001 |       0.0001 |       0.0001 |       0.0001 |       0.0001 |       0.0001 |       0.0001 |       0.0001 |       0.0001 |       0.0001 |       0.0000 |       0.0000 |       0.0000 |       0.0000 |       0.0001 |       0.0001 |       0.0001 |       0.0001 |       0.0020 |       0.0020 |       0.0020 |       0.0020 |       0.0458 |       0.0458 |       0.0458 |       0.0458 |       0.0580 |       0.0580 |       0.0580 |       0.0580 |       0.0725 |       0.0725 |       0.0725 |       0.0725 |       0.0784 |       0.0784 |       0.0784 |       0.0784 |       0.0818 |       0.0818 |       0.0818 |       0.0818 |
dtlb.repl_rate                              0.0000 |       0.0000 |       0.0000 |       0.0000 |       0.0000 |       0.0000 |       0.0000 |       0.0000 |       0.0000 |       0.0000 |       0.0000 |       0.0000 |       0.0000 |       0.0000 |       0.0000 |       0.0000 |       0.0000 |       0.0000 |       0.0000 |       0.0000 |       0.0020 |       0.0020 |       0.0020 |       0.0020 |       0.0458 |       0.0458 |       0.0458 |       0.0458 |       0.0580 |       0.0580 |       0.0580 |       0.0580 |       0.0725 |       0.0725 |       0.0725 |       0.0725 |       0.0784 |       0.0784 |       0.0784 |       0.0784 |       0.0818 |       0.0818 |       0.0818 |       0.0818 |
dtlb.wb_rate                                0.0000 |       0.0000 |       0.0000 |       0.0000 |       0.0000 |       0.0000 |       0.0000 |       0.0000 |       0.0000 |       0.0000 |       0.0000 |       0.0000 |       0.0000 |       0.0000 |       0.0000 |       0.0000 |       0.0000 |       0.0000 |       0.0000 |       0.0000 |       0.0018 |       0.0018 |       0.0018 |       0.0018 |       0.0455 |       0.0455 |       0.0455 |       0.0455 |       0.0577 |       0.0577 |       0.0577 |       0.0577 |       0.0722 |       0.0722 |       0.0722 |       0.0722 |       0.0781 |       0.0781 |       0.0781 |       0.0781 |       0.0815 |       0.0815 |       0.0815 |       0.0815 |
dtlb.inv_rate                               0.0000 |       0.0000 |       0.0000 |       0.0000 |       0.0000 |       0.0000 |       0.0000 |       0.0000 |       0.0000 |       0.0000 |       0.0000 |       0.0000 |       0.0000 |       0.0000 |       0.0000 |       0.0000 |       0.0000 |       0.0000 |       0.0000 |       0.0000 |       0.0000 |       0.0000 |       0.0000 |       0.0000 |       0.0000 |       0.0000 |       0.0000 |       0.0000 |       0.0000 |       0.0000 |       0.0000 |       0.0000 |       0.0000 |       0.0000 |       0.0000 |       0.0000 |       0.0000 |       0.0000 |       0.0000 |       0.0000 |       0.0000 |       0.0000 |       0.0000 |       0.0000 |
ld_text_base                            0x00400000 |   0x00400000 |   0x00400000 |   0x00400000 |   0x00400000 |   0x00400000 |   0x00400000 |   0x00400000 |   0x00400000 |   0x00400000 |   0x00400000 |   0x00400000 |   0x00400000 |   0x00400000 |   0x00400000 |   0x00400000 |   0x00400000 |   0x00400000 |   0x00400000 |   0x00400000 |   0x00400000 |   0x00400000 |   0x00400000 |   0x00400000 |   0x00400000 |   0x00400000 |   0x00400000 |   0x00400000 |   0x00400000 |   0x00400000 |   0x00400000 |   0x00400000 |   0x00400000 |   0x00400000 |   0x00400000 |   0x00400000 |   0x00400000 |   0x00400000 |   0x00400000 |   0x00400000 |   0x00400000 |   0x00400000 |   0x00400000 |   0x00400000 |
ld_text_size                                 73136 |        73136 |        73136 |        73136 |        73168 |        73168 |        73168 |        73168 |        73184 |        73184 |        73184 |        73184 |        73200 |        73200 |        73200 |        73200 |        73200 |        73200 |        73200 |        73200 |        73200 |        73200 |        73200 |        73200 |        73200 |        73200 |        73200 |        73200 |        73200 |        73200 |        73200 |        73200 |        73200 |        73200 |        73200 |        73200 |        73200 |        73200 |        73200 |        73200 |        73200 |        73200 |        73200 |        73200 |
ld_data_base                            0x10000000 |   0x10000000 |   0x10000000 |   0x10000000 |   0x10000000 |   0x10000000 |   0x10000000 |   0x10000000 |   0x10000000 |   0x10000000 |   0x10000000 |   0x10000000 |   0x10000000 |   0x10000000 |   0x10000000 |   0x10000000 |   0x10000000 |   0x10000000 |   0x10000000 |   0x10000000 |   0x10000000 |   0x10000000 |   0x10000000 |   0x10000000 |   0x10000000 |   0x10000000 |   0x10000000 |   0x10000000 |   0x10000000 |   0x10000000 |   0x10000000 |   0x10000000 |   0x10000000 |   0x10000000 |   0x10000000 |   0x10000000 |   0x10000000 |   0x10000000 |   0x10000000 |   0x10000000 |   0x10000000 |   0x10000000 |   0x10000000 |   0x10000000 |
ld_data_size                                  8192 |         8192 |         8192 |         8192 |         8192 |         8192 |         8192 |         8192 |         8192 |         8192 |         8192 |         8192 |         8192 |         8192 |         8192 |         8192 |         8192 |         8192 |         8192 |         8192 |         8192 |         8192 |         8192 |         8192 |         8192 |         8192 |         8192 |         8192 |         8192 |         8192 |         8192 |         8192 |         8192 |         8192 |         8192 |         8192 |         8192 |         8192 |         8192 |         8192 |         8192 |         8192 |         8192 |         8192 |
ld_stack_base                           0x7fffc000 |   0x7fffc000 |   0x7fffc000 |   0x7fffc000 |   0x7fffc000 |   0x7fffc000 |   0x7fffc000 |   0x7fffc000 |   0x7fffc000 |   0x7fffc000 |   0x7fffc000 |   0x7fffc000 |   0x7fffc000 |   0x7fffc000 |   0x7fffc000 |   0x7fffc000 |   0x7fffc000 |   0x7fffc000 |   0x7fffc000 |   0x7fffc000 |   0x7fffc000 |   0x7fffc000 |   0x7fffc000 |   0x7fffc000 |   0x7fffc000 |   0x7fffc000 |   0x7fffc000 |   0x7fffc000 |   0x7fffc000 |   0x7fffc000 |   0x7fffc000 |   0x7fffc000 |   0x7fffc000 |   0x7fffc000 |   0x7fffc000 |   0x7fffc000 |   0x7fffc000 |   0x7fffc000 |   0x7fffc000 |   0x7fffc000 |   0x7fffc000 |   0x7fffc000 |   0x7fffc000 |   0x7fffc000 |
ld_stack_size                                16384 |        16384 |        16384 |        16384 |        16384 |        16384 |        16384 |        16384 |        16384 |        16384 |        16384 |        16384 |        16384 |        16384 |        16384 |        16384 |        16384 |        16384 |        16384 |        16384 |        16384 |        16384 |        16384 |        16384 |        16384 |        16384 |        16384 |        16384 |        16384 |        16384 |        16384 |        16384 |        16384 |        16384 |        16384 |        16384 |        16384 |        16384 |        16384 |        16384 |        16384 |        16384 |        16384 |        16384 |
ld_prog_entry                           0x00400140 |   0x00400140 |   0x00400140 |   0x00400140 |   0x00400140 |   0x00400140 |   0x00400140 |   0x00400140 |   0x00400140 |   0x00400140 |   0x00400140 |   0x00400140 |   0x00400140 |   0x00400140 |   0x00400140 |   0x00400140 |   0x00400140 |   0x00400140 |   0x00400140 |   0x00400140 |   0x00400140 |   0x00400140 |   0x00400140 |   0x00400140 |   0x00400140 |   0x00400140 |   0x00400140 |   0x00400140 |   0x00400140 |   0x00400140 |   0x00400140 |   0x00400140 |   0x00400140 |   0x00400140 |   0x00400140 |   0x00400140 |   0x00400140 |   0x00400140 |   0x00400140 |   0x00400140 |   0x00400140 |   0x00400140 |   0x00400140 |   0x00400140 |
ld_environ_base                         0x7fff8000 |   0x7fff8000 |   0x7fff8000 |   0x7fff8000 |   0x7fff8000 |   0x7fff8000 |   0x7fff8000 |   0x7fff8000 |   0x7fff8000 |   0x7fff8000 |   0x7fff8000 |   0x7fff8000 |   0x7fff8000 |   0x7fff8000 |   0x7fff8000 |   0x7fff8000 |   0x7fff8000 |   0x7fff8000 |   0x7fff8000 |   0x7fff8000 |   0x7fff8000 |   0x7fff8000 |   0x7fff8000 |   0x7fff8000 |   0x7fff8000 |   0x7fff8000 |   0x7fff8000 |   0x7fff8000 |   0x7fff8000 |   0x7fff8000 |   0x7fff8000 |   0x7fff8000 |   0x7fff8000 |   0x7fff8000 |   0x7fff8000 |   0x7fff8000 |   0x7fff8000 |   0x7fff8000 |   0x7fff8000 |   0x7fff8000 |   0x7fff8000 |   0x7fff8000 |   0x7fff8000 |   0x7fff8000 |
ld_target_big_endian                             0 |            0 |            0 |            0 |            0 |            0 |            0 |            0 |            0 |            0 |            0 |            0 |            0 |            0 |            0 |            0 |            0 |            0 |            0 |            0 |            0 |            0 |            0 |            0 |            0 |            0 |            0 |            0 |            0 |            0 |            0 |            0 |            0 |            0 |            0 |            0 |            0 |            0 |            0 |            0 |            0 |            0 |            0 |            0 |
mem.page_count                                  33 |           33 |           33 |           33 |           41 |           41 |           41 |           41 |           57 |           57 |           57 |           57 |           89 |           89 |           89 |           89 |          153 |          153 |          153 |          153 |          281 |          281 |          281 |          281 |          537 |          537 |          537 |          537 |         1049 |         1049 |         1049 |         1049 |         2079 |         2079 |         2079 |         2079 |         4133 |         4133 |         4133 |         4133 |         8241 |         8241 |         8241 |         8241 |
mem.page_mem                                  132k |         132k |         132k |         132k |         164k |         164k |         164k |         164k |         228k |         228k |         228k |         228k |         356k |         356k |         356k |         356k |         612k |         612k |         612k |         612k |        1124k |        1124k |        1124k |        1124k |        2148k |        2148k |        2148k |        2148k |        4196k |        4196k |        4196k |        4196k |        8316k |        8316k |        8316k |        8316k |       16532k |       16532k |       16532k |       16532k |       32964k |       32964k |       32964k |       32964k |
mem.ptab_misses                                 33 |           33 |           33 |           33 |           41 |           41 |           41 |           41 |           57 |           57 |           57 |           57 |           89 |           89 |           89 |           89 |          153 |          153 |          153 |          153 |          281 |          281 |          281 |          281 |          537 |          537 |          537 |          537 |         1049 |         1049 |         1049 |         1049 |        20514 |        20514 |        20514 |        20514 |        20524 |        20524 |        20524 |        20524 |        24632 |        24632 |        24632 |        24632 |
mem.ptab_accesses                          2554094 |      2554094 |      2554094 |      2554094 |      4586558 |      4586558 |      4586558 |      4586558 |      8649894 |      8649894 |      8649894 |      8649894 |     16776458 |     16776458 |     16776458 |     16776458 |     33029386 |     33029386 |     33029386 |     33029386 |     65535246 |     65535246 |     65535246 |     65535246 |    130546958 |    130546958 |    130546958 |    130546958 |    260570382 |    260570382 |    260570382 |    260570382 |    520685658 |    520685658 |    520685658 |    520685658 |   1040828538 |   1040828538 |   1040828538 |   1040828538 |   2081114266 |   2081114266 |   2081114266 |   2081114266 |
mem.ptab_miss_rate                          0.0000 |       0.0000 |       0.0000 |       0.0000 |       0.0000 |       0.0000 |       0.0000 |       0.0000 |       0.0000 |       0.0000 |       0.0000 |       0.0000 |       0.0000 |       0.0000 |       0.0000 |       0.0000 |       0.0000 |       0.0000 |       0.0000 |       0.0000 |       0.0000 |       0.0000 |       0.0000 |       0.0000 |       0.0000 |       0.0000 |       0.0000 |       0.0000 |       0.0000 |       0.0000 |       0.0000 |       0.0000 |       0.0000 |       0.0000 |       0.0000 |       0.0000 |       0.0000 |       0.0000 |       0.0000 |       0.0000 |       0.0000 |       0.0000 |       0.0000 |       0.0000 |
-------------------------------------------------------------------------------------------------
sim-bpred                                     4096 |         4096 |         4096 |         4096 |         4096 |         4096 |         4096 |         8192 |         8192 |         8192 |         8192 |         8192 |         8192 |         8192 |        16384 |        16384 |        16384 |        16384 |        16384 |        16384 |        16384 |        32768 |        32768 |        32768 |        32768 |        32768 |        32768 |        32768 |        65536 |        65536 |        65536 |        65536 |        65536 |        65536 |        65536 |       131072 |       131072 |       131072 |       131072 |       131072 |       131072 |       131072 |       262144 |       262144 |       262144 |       262144 |       262144 |       262144 |       262144 |       524288 |       524288 |       524288 |       524288 |       524288 |       524288 |       524288 |      1048576 |      1048576 |      1048576 |      1048576 |      1048576 |      1048576 |      1048576 |      2097152 |      2097152 |      2097152 |      2097152 |      2097152 |      2097152 |      2097152 |      4194304 |      4194304 |      4194304 |      4194304 |      4194304 |      4194304 |      4194304 |
-bpred bimod -bpred:bimod 512
-bpred bimod -bpred:bimod 1024
-bpred bimod -bpred:bimod 2048
-bpred 2lev -bpred:2lev 1 512 10 1
-bpred 2lev -bpred:2lev 1 1024 10 1
-bpred 2lev -bpred:2lev 1 2048 10 1
-bpred 2lev -bpred:2lev 1 4096 10 1
-------------------------------------------------------------------------------------------------
sim_num_insn                                431107 |       431107 |       431107 |       431107 |       431107 |       431107 |       431107 |       849041 |       849041 |       849041 |       849041 |       849041 |       849041 |       849041 |      1684627 |      1684627 |      1684627 |      1684627 |      1684627 |      1684627 |      1684627 |      3355796 |      3355796 |      3355796 |      3355796 |      3355796 |      3355796 |      3355796 |      6698132 |      6698132 |      6698132 |      6698132 |      6698132 |      6698132 |      6698132 |     13382805 |     13382805 |     13382805 |     13382805 |     13382805 |     13382805 |     13382805 |     26752149 |     26752149 |     26752149 |     26752149 |     26752149 |     26752149 |     26752149 |     53490837 |     53490837 |     53490837 |     53490837 |     53490837 |     53490837 |     53490837 |    106980689 |    106980689 |    106980689 |    106980689 |    106980689 |    106980689 |    106980689 |    213944665 |    213944665 |    213944665 |    213944665 |    213944665 |    213944665 |    213944665 |    427872609 |    427872609 |    427872609 |    427872609 |    427872609 |    427872609 |    427872609 |
sim_num_refs                                171671 |       171671 |       171671 |       171671 |       171671 |       171671 |       171671 |       335555 |       335555 |       335555 |       335555 |       335555 |       335555 |       335555 |       663235 |       663235 |       663235 |       663235 |       663235 |       663235 |       663235 |      1318595 |      1318595 |      1318595 |      1318595 |      1318595 |      1318595 |      1318595 |      2629315 |      2629315 |      2629315 |      2629315 |      2629315 |      2629315 |      2629315 |      5250755 |      5250755 |      5250755 |      5250755 |      5250755 |      5250755 |      5250755 |     10493635 |     10493635 |     10493635 |     10493635 |     10493635 |     10493635 |     10493635 |     20979395 |     20979395 |     20979395 |     20979395 |     20979395 |     20979395 |     20979395 |     41960177 |     41960177 |     41960177 |     41960177 |     41960177 |     41960177 |     41960177 |     83909361 |     83909361 |     83909361 |     83909361 |     83909361 |     83909361 |     83909361 |    167807729 |    167807729 |    167807729 |    167807729 |    167807729 |    167807729 |    167807729 |
sim_elapsed_time                                 1 |            1 |            1 |            1 |            1 |            1 |            1 |            1 |            1 |            1 |            1 |            1 |            1 |            1 |            1 |            1 |            1 |            1 |            1 |            1 |            1 |            1 |            1 |            1 |            1 |            1 |            1 |            1 |            1 |            1 |            1 |            1 |            1 |            1 |            1 |            2 |            1 |            1 |            2 |            1 |            1 |            2 |            2 |            3 |            3 |            2 |            3 |            3 |            3 |            6 |            5 |            5 |            6 |            5 |            6 |            5 |           11 |           10 |           11 |           11 |           11 |           10 |           11 |           21 |           21 |           22 |           21 |           22 |           21 |           22 |           42 |           42 |           43 |           43 |           43 |           43 |           43 |
sim_inst_rate                          431107.0000 |  431107.0000 |  431107.0000 |  431107.0000 |  431107.0000 |  431107.0000 |  431107.0000 |  849041.0000 |  849041.0000 |  849041.0000 |  849041.0000 |  849041.0000 |  849041.0000 |  849041.0000 | 1684627.0000 | 1684627.0000 | 1684627.0000 | 1684627.0000 | 1684627.0000 | 1684627.0000 | 1684627.0000 | 3355796.0000 | 3355796.0000 | 3355796.0000 | 3355796.0000 | 3355796.0000 | 3355796.0000 | 3355796.0000 | 6698132.0000 | 6698132.0000 | 6698132.0000 | 6698132.0000 | 6698132.0000 | 6698132.0000 | 6698132.0000 | 6691402.5000 |13382805.0000 |13382805.0000 | 6691402.5000 |13382805.0000 |13382805.0000 | 6691402.5000 |13376074.5000 | 8917383.0000 | 8917383.0000 |13376074.5000 | 8917383.0000 | 8917383.0000 | 8917383.0000 | 8915139.5000 |10698167.4000 |10698167.4000 | 8915139.5000 |10698167.4000 | 8915139.5000 |10698167.4000 | 9725517.1818 |10698068.9000 | 9725517.1818 | 9725517.1818 | 9725517.1818 |10698068.9000 | 9725517.1818 |10187841.1905 |10187841.1905 | 9724757.5000 |10187841.1905 | 9724757.5000 |10187841.1905 | 9724757.5000 |10187443.0714 |10187443.0714 | 9950525.7907 | 9950525.7907 | 9950525.7907 | 9950525.7907 | 9950525.7907 |
sim_num_branches                             13419 |        13419 |        13419 |        13419 |        13419 |        13419 |        13419 |        25747 |        25747 |        25747 |        25747 |        25747 |        25747 |        25747 |        50323 |        50323 |        50323 |        50323 |        50323 |        50323 |        50323 |        99475 |        99475 |        99475 |        99475 |        99475 |        99475 |        99475 |       197779 |       197779 |       197779 |       197779 |       197779 |       197779 |       197779 |       394387 |       394387 |       394387 |       394387 |       394387 |       394387 |       394387 |       787603 |       787603 |       787603 |       787603 |       787603 |       787603 |       787603 |      1574035 |      1574035 |      1574035 |      1574035 |      1574035 |      1574035 |      1574035 |      3147692 |      3147692 |      3147692 |      3147692 |      3147692 |      3147692 |      3147692 |      6294191 |      6294191 |      6294191 |      6294191 |      6294191 |      6294191 |      6294191 |     12587186 |     12587186 |     12587186 |     12587186 |     12587186 |     12587186 |     12587186 |
sim_IPB                                    32.1266 |      32.1266 |      32.1266 |      32.1266 |      32.1266 |      32.1266 |      32.1266 |      32.9763 |      32.9763 |      32.9763 |      32.9763 |      32.9763 |      32.9763 |      32.9763 |      33.4763 |      33.4763 |      33.4763 |      33.4763 |      33.4763 |      33.4763 |      33.4763 |      33.7351 |      33.7351 |      33.7351 |      33.7351 |      33.7351 |      33.7351 |      33.7351 |      33.8668 |      33.8668 |      33.8668 |      33.8668 |      33.8668 |      33.8668 |      33.8668 |      33.9332 |      33.9332 |      33.9332 |      33.9332 |      33.9332 |      33.9332 |      33.9332 |      33.9665 |      33.9665 |      33.9665 |      33.9665 |      33.9665 |      33.9665 |      33.9665 |      33.9833 |      33.9833 |      33.9833 |      33.9833 |      33.9833 |      33.9833 |      33.9833 |      33.9870 |      33.9870 |      33.9870 |      33.9870 |      33.9870 |      33.9870 |      33.9870 |      33.9908 |      33.9908 |      33.9908 |      33.9908 |      33.9908 |      33.9908 |      33.9908 |      33.9927 |      33.9927 |      33.9927 |      33.9927 |      33.9927 |      33.9927 |      33.9927 |
bpred_bimod.lookups                          13419 |        13419 |        13419 |xxxxxxxxxxxxx |xxxxxxxxxxxxx |xxxxxxxxxxxxx |xxxxxxxxxxxxx |        25747 |        25747 |        25747 |xxxxxxxxxxxxx |xxxxxxxxxxxxx |xxxxxxxxxxxxx |xxxxxxxxxxxxx |        50323 |        50323 |        50323 |xxxxxxxxxxxxx |xxxxxxxxxxxxx |xxxxxxxxxxxxx |xxxxxxxxxxxxx |        99475 |        99475 |        99475 |xxxxxxxxxxxxx |xxxxxxxxxxxxx |xxxxxxxxxxxxx |xxxxxxxxxxxxx |       197779 |       197779 |       197779 |xxxxxxxxxxxxx |xxxxxxxxxxxxx |xxxxxxxxxxxxx |xxxxxxxxxxxxx |       394387 |       394387 |       394387 |xxxxxxxxxxxxx |xxxxxxxxxxxxx |xxxxxxxxxxxxx |xxxxxxxxxxxxx |       787603 |       787603 |       787603 |xxxxxxxxxxxxx |xxxxxxxxxxxxx |xxxxxxxxxxxxx |xxxxxxxxxxxxx |      1574035 |      1574035 |      1574035 |xxxxxxxxxxxxx |xxxxxxxxxxxxx |xxxxxxxxxxxxx |xxxxxxxxxxxxx |      3147692 |      3147692 |      3147692 |xxxxxxxxxxxxx |xxxxxxxxxxxxx |xxxxxxxxxxxxx |xxxxxxxxxxxxx |      6294191 |      6294191 |      6294191 |xxxxxxxxxxxxx |xxxxxxxxxxxxx |xxxxxxxxxxxxx |xxxxxxxxxxxxx |     12587186 |     12587186 |     12587186 |
bpred_bimod.updates                          13419 |        13419 |        13419 |xxxxxxxxxxxxx |xxxxxxxxxxxxx |xxxxxxxxxxxxx |xxxxxxxxxxxxx |        25747 |        25747 |        25747 |xxxxxxxxxxxxx |xxxxxxxxxxxxx |xxxxxxxxxxxxx |xxxxxxxxxxxxx |        50323 |        50323 |        50323 |xxxxxxxxxxxxx |xxxxxxxxxxxxx |xxxxxxxxxxxxx |xxxxxxxxxxxxx |        99475 |        99475 |        99475 |xxxxxxxxxxxxx |xxxxxxxxxxxxx |xxxxxxxxxxxxx |xxxxxxxxxxxxx |       197779 |       197779 |       197779 |xxxxxxxxxxxxx |xxxxxxxxxxxxx |xxxxxxxxxxxxx |xxxxxxxxxxxxx |       394387 |       394387 |       394387 |xxxxxxxxxxxxx |xxxxxxxxxxxxx |xxxxxxxxxxxxx |xxxxxxxxxxxxx |       787603 |       787603 |       787603 |xxxxxxxxxxxxx |xxxxxxxxxxxxx |xxxxxxxxxxxxx |xxxxxxxxxxxxx |      1574035 |      1574035 |      1574035 |xxxxxxxxxxxxx |xxxxxxxxxxxxx |xxxxxxxxxxxxx |xxxxxxxxxxxxx |      3147692 |      3147692 |      3147692 |xxxxxxxxxxxxx |xxxxxxxxxxxxx |xxxxxxxxxxxxx |xxxxxxxxxxxxx |      6294191 |      6294191 |      6294191 |xxxxxxxxxxxxx |xxxxxxxxxxxxx |xxxxxxxxxxxxx |xxxxxxxxxxxxx |     12587186 |     12587186 |     12587186 |
bpred_bimod.addr_hits                        13209 |        13210 |        13210 |xxxxxxxxxxxxx |xxxxxxxxxxxxx |xxxxxxxxxxxxx |xxxxxxxxxxxxx |        25529 |        25531 |        25531 |xxxxxxxxxxxxx |xxxxxxxxxxxxx |xxxxxxxxxxxxx |xxxxxxxxxxxxx |        50101 |        50105 |        50108 |xxxxxxxxxxxxx |xxxxxxxxxxxxx |xxxxxxxxxxxxx |xxxxxxxxxxxxx |        99258 |        99260 |        99260 |xxxxxxxxxxxxx |xxxxxxxxxxxxx |xxxxxxxxxxxxx |xxxxxxxxxxxxx |       197562 |       197564 |       197564 |xxxxxxxxxxxxx |xxxxxxxxxxxxx |xxxxxxxxxxxxx |xxxxxxxxxxxxx |       394170 |       394172 |       394172 |xxxxxxxxxxxxx |xxxxxxxxxxxxx |xxxxxxxxxxxxx |xxxxxxxxxxxxx |       787386 |       787388 |       787388 |xxxxxxxxxxxxx |xxxxxxxxxxxxx |xxxxxxxxxxxxx |xxxxxxxxxxxxx |      1573818 |      1573820 |      1573820 |xxxxxxxxxxxxx |xxxxxxxxxxxxx |xxxxxxxxxxxxx |xxxxxxxxxxxxx |      3147452 |      3147453 |      3147452 |xxxxxxxxxxxxx |xxxxxxxxxxxxx |xxxxxxxxxxxxx |xxxxxxxxxxxxx |      6293951 |      6293952 |      6293951 |xxxxxxxxxxxxx |xxxxxxxxxxxxx |xxxxxxxxxxxxx |xxxxxxxxxxxxx |     12586946 |     12586947 |     12586946 |
bpred_bimod.dir_hits                         13301 |        13305 |        13306 |xxxxxxxxxxxxx |xxxxxxxxxxxxx |xxxxxxxxxxxxx |xxxxxxxxxxxxx |        25624 |        25630 |        25631 |xxxxxxxxxxxxx |xxxxxxxxxxxxx |xxxxxxxxxxxxx |xxxxxxxxxxxxx |        50198 |        50204 |        50208 |xxxxxxxxxxxxx |xxxxxxxxxxxxx |xxxxxxxxxxxxx |xxxxxxxxxxxxx |        99354 |        99358 |        99359 |xxxxxxxxxxxxx |xxxxxxxxxxxxx |xxxxxxxxxxxxx |xxxxxxxxxxxxx |       197658 |       197662 |       197663 |xxxxxxxxxxxxx |xxxxxxxxxxxxx |xxxxxxxxxxxxx |xxxxxxxxxxxxx |       394267 |       394271 |       394272 |xxxxxxxxxxxxx |xxxxxxxxxxxxx |xxxxxxxxxxxxx |xxxxxxxxxxxxx |       787483 |       787487 |       787488 |xxxxxxxxxxxxx |xxxxxxxxxxxxx |xxxxxxxxxxxxx |xxxxxxxxxxxxx |      1573915 |      1573919 |      1573920 |xxxxxxxxxxxxx |xxxxxxxxxxxxx |xxxxxxxxxxxxx |xxxxxxxxxxxxx |      3147560 |      3147562 |      3147563 |xxxxxxxxxxxxx |xxxxxxxxxxxxx |xxxxxxxxxxxxx |xxxxxxxxxxxxx |      6294059 |      6294061 |      6294062 |xxxxxxxxxxxxx |xxxxxxxxxxxxx |xxxxxxxxxxxxx |xxxxxxxxxxxxx |     12587054 |     12587056 |     12587057 |
bpred_bimod.misses                             118 |          114 |          113 |xxxxxxxxxxxxx |xxxxxxxxxxxxx |xxxxxxxxxxxxx |xxxxxxxxxxxxx |          123 |          117 |          116 |xxxxxxxxxxxxx |xxxxxxxxxxxxx |xxxxxxxxxxxxx |xxxxxxxxxxxxx |          125 |          119 |          115 |xxxxxxxxxxxxx |xxxxxxxxxxxxx |xxxxxxxxxxxxx |xxxxxxxxxxxxx |          121 |          117 |          116 |xxxxxxxxxxxxx |xxxxxxxxxxxxx |xxxxxxxxxxxxx |xxxxxxxxxxxxx |          121 |          117 |          116 |xxxxxxxxxxxxx |xxxxxxxxxxxxx |xxxxxxxxxxxxx |xxxxxxxxxxxxx |          120 |          116 |          115 |xxxxxxxxxxxxx |xxxxxxxxxxxxx |xxxxxxxxxxxxx |xxxxxxxxxxxxx |          120 |          116 |          115 |xxxxxxxxxxxxx |xxxxxxxxxxxxx |xxxxxxxxxxxxx |xxxxxxxxxxxxx |          120 |          116 |          115 |xxxxxxxxxxxxx |xxxxxxxxxxxxx |xxxxxxxxxxxxx |xxxxxxxxxxxxx |          132 |          130 |          129 |xxxxxxxxxxxxx |xxxxxxxxxxxxx |xxxxxxxxxxxxx |xxxxxxxxxxxxx |          132 |          130 |          129 |xxxxxxxxxxxxx |xxxxxxxxxxxxx |xxxxxxxxxxxxx |xxxxxxxxxxxxx |          132 |          130 |          129 |
bpred_bimod.jr_hits                             61 |           61 |           61 |xxxxxxxxxxxxx |xxxxxxxxxxxxx |xxxxxxxxxxxxx |xxxxxxxxxxxxx |           69 |           69 |           69 |xxxxxxxxxxxxx |xxxxxxxxxxxxx |xxxxxxxxxxxxx |xxxxxxxxxxxxx |           69 |           69 |           69 |xxxxxxxxxxxxx |xxxxxxxxxxxxx |xxxxxxxxxxxxx |xxxxxxxxxxxxx |           69 |           69 |           69 |xxxxxxxxxxxxx |xxxxxxxxxxxxx |xxxxxxxxxxxxx |xxxxxxxxxxxxx |           69 |           69 |           69 |xxxxxxxxxxxxx |xxxxxxxxxxxxx |xxxxxxxxxxxxx |xxxxxxxxxxxxx |           69 |           69 |           69 |xxxxxxxxxxxxx |xxxxxxxxxxxxx |xxxxxxxxxxxxx |xxxxxxxxxxxxx |           69 |           69 |           69 |xxxxxxxxxxxxx |xxxxxxxxxxxxx |xxxxxxxxxxxxx |xxxxxxxxxxxxx |           69 |           69 |           69 |xxxxxxxxxxxxx |xxxxxxxxxxxxx |xxxxxxxxxxxxx |xxxxxxxxxxxxx |           72 |           72 |           72 |xxxxxxxxxxxxx |xxxxxxxxxxxxx |xxxxxxxxxxxxx |xxxxxxxxxxxxx |           72 |           72 |           72 |xxxxxxxxxxxxx |xxxxxxxxxxxxx |xxxxxxxxxxxxx |xxxxxxxxxxxxx |           72 |           72 |           72 |
bpred_bimod.jr_seen                             61 |           61 |           61 |xxxxxxxxxxxxx |xxxxxxxxxxxxx |xxxxxxxxxxxxx |xxxxxxxxxxxxx |           70 |           70 |           70 |xxxxxxxxxxxxx |xxxxxxxxxxxxx |xxxxxxxxxxxxx |xxxxxxxxxxxxx |           70 |           70 |           70 |xxxxxxxxxxxxx |xxxxxxxxxxxxx |xxxxxxxxxxxxx |xxxxxxxxxxxxx |           70 |           70 |           70 |xxxxxxxxxxxxx |xxxxxxxxxxxxx |xxxxxxxxxxxxx |xxxxxxxxxxxxx |           70 |           70 |           70 |xxxxxxxxxxxxx |xxxxxxxxxxxxx |xxxxxxxxxxxxx |xxxxxxxxxxxxx |           70 |           70 |           70 |xxxxxxxxxxxxx |xxxxxxxxxxxxx |xxxxxxxxxxxxx |xxxxxxxxxxxxx |           70 |           70 |           70 |xxxxxxxxxxxxx |xxxxxxxxxxxxx |xxxxxxxxxxxxx |xxxxxxxxxxxxx |           70 |           70 |           70 |xxxxxxxxxxxxx |xxxxxxxxxxxxx |xxxxxxxxxxxxx |xxxxxxxxxxxxx |           73 |           73 |           73 |xxxxxxxxxxxxx |xxxxxxxxxxxxx |xxxxxxxxxxxxx |xxxxxxxxxxxxx |           73 |           73 |           73 |xxxxxxxxxxxxx |xxxxxxxxxxxxx |xxxxxxxxxxxxx |xxxxxxxxxxxxx |           73 |           73 |           73 |
bpred_bimod.jr_non_ras_hits.PP                   0 |            0 |            0 |xxxxxxxxxxxxx |xxxxxxxxxxxxx |xxxxxxxxxxxxx |xxxxxxxxxxxxx |            0 |            0 |            0 |xxxxxxxxxxxxx |xxxxxxxxxxxxx |xxxxxxxxxxxxx |xxxxxxxxxxxxx |            0 |            0 |            0 |xxxxxxxxxxxxx |xxxxxxxxxxxxx |xxxxxxxxxxxxx |xxxxxxxxxxxxx |            0 |            0 |            0 |xxxxxxxxxxxxx |xxxxxxxxxxxxx |xxxxxxxxxxxxx |xxxxxxxxxxxxx |            0 |            0 |            0 |xxxxxxxxxxxxx |xxxxxxxxxxxxx |xxxxxxxxxxxxx |xxxxxxxxxxxxx |            0 |            0 |            0 |xxxxxxxxxxxxx |xxxxxxxxxxxxx |xxxxxxxxxxxxx |xxxxxxxxxxxxx |            0 |            0 |            0 |xxxxxxxxxxxxx |xxxxxxxxxxxxx |xxxxxxxxxxxxx |xxxxxxxxxxxxx |            0 |            0 |            0 |xxxxxxxxxxxxx |xxxxxxxxxxxxx |xxxxxxxxxxxxx |xxxxxxxxxxxxx |            0 |            0 |            0 |xxxxxxxxxxxxx |xxxxxxxxxxxxx |xxxxxxxxxxxxx |xxxxxxxxxxxxx |            0 |            0 |            0 |xxxxxxxxxxxxx |xxxxxxxxxxxxx |xxxxxxxxxxxxx |xxxxxxxxxxxxx |            0 |            0 |            0 |
bpred_bimod.jr_non_ras_seen.PP                   0 |            0 |            0 |xxxxxxxxxxxxx |xxxxxxxxxxxxx |xxxxxxxxxxxxx |xxxxxxxxxxxxx |            0 |            0 |            0 |xxxxxxxxxxxxx |xxxxxxxxxxxxx |xxxxxxxxxxxxx |xxxxxxxxxxxxx |            0 |            0 |            0 |xxxxxxxxxxxxx |xxxxxxxxxxxxx |xxxxxxxxxxxxx |xxxxxxxxxxxxx |            0 |            0 |            0 |xxxxxxxxxxxxx |xxxxxxxxxxxxx |xxxxxxxxxxxxx |xxxxxxxxxxxxx |            0 |            0 |            0 |xxxxxxxxxxxxx |xxxxxxxxxxxxx |xxxxxxxxxxxxx |xxxxxxxxxxxxx |            0 |            0 |            0 |xxxxxxxxxxxxx |xxxxxxxxxxxxx |xxxxxxxxxxxxx |xxxxxxxxxxxxx |            0 |            0 |            0 |xxxxxxxxxxxxx |xxxxxxxxxxxxx |xxxxxxxxxxxxx |xxxxxxxxxxxxx |            0 |            0 |            0 |xxxxxxxxxxxxx |xxxxxxxxxxxxx |xxxxxxxxxxxxx |xxxxxxxxxxxxx |            1 |            1 |            1 |xxxxxxxxxxxxx |xxxxxxxxxxxxx |xxxxxxxxxxxxx |xxxxxxxxxxxxx |            1 |            1 |            1 |xxxxxxxxxxxxx |xxxxxxxxxxxxx |xxxxxxxxxxxxx |xxxxxxxxxxxxx |            1 |            1 |            1 |
bpred_bimod.bpred_addr_rate                 0.9844 |       0.9844 |       0.9844 |xxxxxxxxxxxxx |xxxxxxxxxxxxx |xxxxxxxxxxxxx |xxxxxxxxxxxxx |       0.9915 |       0.9916 |       0.9916 |xxxxxxxxxxxxx |xxxxxxxxxxxxx |xxxxxxxxxxxxx |xxxxxxxxxxxxx |       0.9956 |       0.9957 |       0.9957 |xxxxxxxxxxxxx |xxxxxxxxxxxxx |xxxxxxxxxxxxx |xxxxxxxxxxxxx |       0.9978 |       0.9978 |       0.9978 |xxxxxxxxxxxxx |xxxxxxxxxxxxx |xxxxxxxxxxxxx |xxxxxxxxxxxxx |       0.9989 |       0.9989 |       0.9989 |xxxxxxxxxxxxx |xxxxxxxxxxxxx |xxxxxxxxxxxxx |xxxxxxxxxxxxx |       0.9994 |       0.9995 |       0.9995 |xxxxxxxxxxxxx |xxxxxxxxxxxxx |xxxxxxxxxxxxx |xxxxxxxxxxxxx |       0.9997 |       0.9997 |       0.9997 |xxxxxxxxxxxxx |xxxxxxxxxxxxx |xxxxxxxxxxxxx |xxxxxxxxxxxxx |       0.9999 |       0.9999 |       0.9999 |xxxxxxxxxxxxx |xxxxxxxxxxxxx |xxxxxxxxxxxxx |xxxxxxxxxxxxx |       0.9999 |       0.9999 |       0.9999 |xxxxxxxxxxxxx |xxxxxxxxxxxxx |xxxxxxxxxxxxx |xxxxxxxxxxxxx |       1.0000 |       1.0000 |       1.0000 |xxxxxxxxxxxxx |xxxxxxxxxxxxx |xxxxxxxxxxxxx |xxxxxxxxxxxxx |       1.0000 |       1.0000 |       1.0000 |
bpred_bimod.bpred_dir_rate                  0.9912 |       0.9915 |       0.9916 |xxxxxxxxxxxxx |xxxxxxxxxxxxx |xxxxxxxxxxxxx |xxxxxxxxxxxxx |       0.9952 |       0.9955 |       0.9955 |xxxxxxxxxxxxx |xxxxxxxxxxxxx |xxxxxxxxxxxxx |xxxxxxxxxxxxx |       0.9975 |       0.9976 |       0.9977 |xxxxxxxxxxxxx |xxxxxxxxxxxxx |xxxxxxxxxxxxx |xxxxxxxxxxxxx |       0.9988 |       0.9988 |       0.9988 |xxxxxxxxxxxxx |xxxxxxxxxxxxx |xxxxxxxxxxxxx |xxxxxxxxxxxxx |       0.9994 |       0.9994 |       0.9994 |xxxxxxxxxxxxx |xxxxxxxxxxxxx |xxxxxxxxxxxxx |xxxxxxxxxxxxx |       0.9997 |       0.9997 |       0.9997 |xxxxxxxxxxxxx |xxxxxxxxxxxxx |xxxxxxxxxxxxx |xxxxxxxxxxxxx |       0.9998 |       0.9999 |       0.9999 |xxxxxxxxxxxxx |xxxxxxxxxxxxx |xxxxxxxxxxxxx |xxxxxxxxxxxxx |       0.9999 |       0.9999 |       0.9999 |xxxxxxxxxxxxx |xxxxxxxxxxxxx |xxxxxxxxxxxxx |xxxxxxxxxxxxx |       1.0000 |       1.0000 |       1.0000 |xxxxxxxxxxxxx |xxxxxxxxxxxxx |xxxxxxxxxxxxx |xxxxxxxxxxxxx |       1.0000 |       1.0000 |       1.0000 |xxxxxxxxxxxxx |xxxxxxxxxxxxx |xxxxxxxxxxxxx |xxxxxxxxxxxxx |       1.0000 |       1.0000 |       1.0000 |
bpred_bimod.bpred_jr_rate                   1.0000 |       1.0000 |       1.0000 |xxxxxxxxxxxxx |xxxxxxxxxxxxx |xxxxxxxxxxxxx |xxxxxxxxxxxxx |       0.9857 |       0.9857 |       0.9857 |xxxxxxxxxxxxx |xxxxxxxxxxxxx |xxxxxxxxxxxxx |xxxxxxxxxxxxx |       0.9857 |       0.9857 |       0.9857 |xxxxxxxxxxxxx |xxxxxxxxxxxxx |xxxxxxxxxxxxx |xxxxxxxxxxxxx |       0.9857 |       0.9857 |       0.9857 |xxxxxxxxxxxxx |xxxxxxxxxxxxx |xxxxxxxxxxxxx |xxxxxxxxxxxxx |       0.9857 |       0.9857 |       0.9857 |xxxxxxxxxxxxx |xxxxxxxxxxxxx |xxxxxxxxxxxxx |xxxxxxxxxxxxx |       0.9857 |       0.9857 |       0.9857 |xxxxxxxxxxxxx |xxxxxxxxxxxxx |xxxxxxxxxxxxx |xxxxxxxxxxxxx |       0.9857 |       0.9857 |       0.9857 |xxxxxxxxxxxxx |xxxxxxxxxxxxx |xxxxxxxxxxxxx |xxxxxxxxxxxxx |       0.9857 |       0.9857 |       0.9857 |xxxxxxxxxxxxx |xxxxxxxxxxxxx |xxxxxxxxxxxxx |xxxxxxxxxxxxx |       0.9863 |       0.9863 |       0.9863 |xxxxxxxxxxxxx |xxxxxxxxxxxxx |xxxxxxxxxxxxx |xxxxxxxxxxxxx |       0.9863 |       0.9863 |       0.9863 |xxxxxxxxxxxxx |xxxxxxxxxxxxx |xxxxxxxxxxxxx |xxxxxxxxxxxxx |       0.9863 |       0.9863 |       0.9863 |
bpred_bimod.bpred_jr_non_ras_rate.PP       <error: |      <error: |      <error: |xxxxxxxxxxxxx |xxxxxxxxxxxxx |xxxxxxxxxxxxx |xxxxxxxxxxxxx |      <error: |      <error: |      <error: |xxxxxxxxxxxxx |xxxxxxxxxxxxx |xxxxxxxxxxxxx |xxxxxxxxxxxxx |      <error: |      <error: |      <error: |xxxxxxxxxxxxx |xxxxxxxxxxxxx |xxxxxxxxxxxxx |xxxxxxxxxxxxx |      <error: |      <error: |      <error: |xxxxxxxxxxxxx |xxxxxxxxxxxxx |xxxxxxxxxxxxx |xxxxxxxxxxxxx |      <error: |      <error: |      <error: |xxxxxxxxxxxxx |xxxxxxxxxxxxx |xxxxxxxxxxxxx |xxxxxxxxxxxxx |      <error: |      <error: |      <error: |xxxxxxxxxxxxx |xxxxxxxxxxxxx |xxxxxxxxxxxxx |xxxxxxxxxxxxx |      <error: |      <error: |      <error: |xxxxxxxxxxxxx |xxxxxxxxxxxxx |xxxxxxxxxxxxx |xxxxxxxxxxxxx |      <error: |      <error: |      <error: |xxxxxxxxxxxxx |xxxxxxxxxxxxx |xxxxxxxxxxxxx |xxxxxxxxxxxxx |       0.0000 |       0.0000 |       0.0000 |xxxxxxxxxxxxx |xxxxxxxxxxxxx |xxxxxxxxxxxxx |xxxxxxxxxxxxx |       0.0000 |       0.0000 |       0.0000 |xxxxxxxxxxxxx |xxxxxxxxxxxxx |xxxxxxxxxxxxx |xxxxxxxxxxxxx |       0.0000 |       0.0000 |       0.0000 |
bpred_bimod.retstack_pushes                     63 |           63 |           63 |xxxxxxxxxxxxx |xxxxxxxxxxxxx |xxxxxxxxxxxxx |xxxxxxxxxxxxx |           72 |           72 |           72 |xxxxxxxxxxxxx |xxxxxxxxxxxxx |xxxxxxxxxxxxx |xxxxxxxxxxxxx |           72 |           72 |           72 |xxxxxxxxxxxxx |xxxxxxxxxxxxx |xxxxxxxxxxxxx |xxxxxxxxxxxxx |           72 |           72 |           72 |xxxxxxxxxxxxx |xxxxxxxxxxxxx |xxxxxxxxxxxxx |xxxxxxxxxxxxx |           72 |           72 |           72 |xxxxxxxxxxxxx |xxxxxxxxxxxxx |xxxxxxxxxxxxx |xxxxxxxxxxxxx |           72 |           72 |           72 |xxxxxxxxxxxxx |xxxxxxxxxxxxx |xxxxxxxxxxxxx |xxxxxxxxxxxxx |           72 |           72 |           72 |xxxxxxxxxxxxx |xxxxxxxxxxxxx |xxxxxxxxxxxxx |xxxxxxxxxxxxx |           72 |           72 |           72 |xxxxxxxxxxxxx |xxxxxxxxxxxxx |xxxxxxxxxxxxx |xxxxxxxxxxxxx |           74 |           74 |           74 |xxxxxxxxxxxxx |xxxxxxxxxxxxx |xxxxxxxxxxxxx |xxxxxxxxxxxxx |           74 |           74 |           74 |xxxxxxxxxxxxx |xxxxxxxxxxxxx |xxxxxxxxxxxxx |xxxxxxxxxxxxx |           74 |           74 |           74 |
bpred_bimod.retstack_pops                       61 |           61 |           61 |xxxxxxxxxxxxx |xxxxxxxxxxxxx |xxxxxxxxxxxxx |xxxxxxxxxxxxx |           70 |           70 |           70 |xxxxxxxxxxxxx |xxxxxxxxxxxxx |xxxxxxxxxxxxx |xxxxxxxxxxxxx |           70 |           70 |           70 |xxxxxxxxxxxxx |xxxxxxxxxxxxx |xxxxxxxxxxxxx |xxxxxxxxxxxxx |           70 |           70 |           70 |xxxxxxxxxxxxx |xxxxxxxxxxxxx |xxxxxxxxxxxxx |xxxxxxxxxxxxx |           70 |           70 |           70 |xxxxxxxxxxxxx |xxxxxxxxxxxxx |xxxxxxxxxxxxx |xxxxxxxxxxxxx |           70 |           70 |           70 |xxxxxxxxxxxxx |xxxxxxxxxxxxx |xxxxxxxxxxxxx |xxxxxxxxxxxxx |           70 |           70 |           70 |xxxxxxxxxxxxx |xxxxxxxxxxxxx |xxxxxxxxxxxxx |xxxxxxxxxxxxx |           70 |           70 |           70 |xxxxxxxxxxxxx |xxxxxxxxxxxxx |xxxxxxxxxxxxx |xxxxxxxxxxxxx |           72 |           72 |           72 |xxxxxxxxxxxxx |xxxxxxxxxxxxx |xxxxxxxxxxxxx |xxxxxxxxxxxxx |           72 |           72 |           72 |xxxxxxxxxxxxx |xxxxxxxxxxxxx |xxxxxxxxxxxxx |xxxxxxxxxxxxx |           72 |           72 |           72 |
bpred_bimod.used_ras.PP                         61 |           61 |           61 |xxxxxxxxxxxxx |xxxxxxxxxxxxx |xxxxxxxxxxxxx |xxxxxxxxxxxxx |           70 |           70 |           70 |xxxxxxxxxxxxx |xxxxxxxxxxxxx |xxxxxxxxxxxxx |xxxxxxxxxxxxx |           70 |           70 |           70 |xxxxxxxxxxxxx |xxxxxxxxxxxxx |xxxxxxxxxxxxx |xxxxxxxxxxxxx |           70 |           70 |           70 |xxxxxxxxxxxxx |xxxxxxxxxxxxx |xxxxxxxxxxxxx |xxxxxxxxxxxxx |           70 |           70 |           70 |xxxxxxxxxxxxx |xxxxxxxxxxxxx |xxxxxxxxxxxxx |xxxxxxxxxxxxx |           70 |           70 |           70 |xxxxxxxxxxxxx |xxxxxxxxxxxxx |xxxxxxxxxxxxx |xxxxxxxxxxxxx |           70 |           70 |           70 |xxxxxxxxxxxxx |xxxxxxxxxxxxx |xxxxxxxxxxxxx |xxxxxxxxxxxxx |           70 |           70 |           70 |xxxxxxxxxxxxx |xxxxxxxxxxxxx |xxxxxxxxxxxxx |xxxxxxxxxxxxx |           72 |           72 |           72 |xxxxxxxxxxxxx |xxxxxxxxxxxxx |xxxxxxxxxxxxx |xxxxxxxxxxxxx |           72 |           72 |           72 |xxxxxxxxxxxxx |xxxxxxxxxxxxx |xxxxxxxxxxxxx |xxxxxxxxxxxxx |           72 |           72 |           72 |
bpred_bimod.ras_hits.PP                         61 |           61 |           61 |xxxxxxxxxxxxx |xxxxxxxxxxxxx |xxxxxxxxxxxxx |xxxxxxxxxxxxx |           69 |           69 |           69 |xxxxxxxxxxxxx |xxxxxxxxxxxxx |xxxxxxxxxxxxx |xxxxxxxxxxxxx |           69 |           69 |           69 |xxxxxxxxxxxxx |xxxxxxxxxxxxx |xxxxxxxxxxxxx |xxxxxxxxxxxxx |           69 |           69 |           69 |xxxxxxxxxxxxx |xxxxxxxxxxxxx |xxxxxxxxxxxxx |xxxxxxxxxxxxx |           69 |           69 |           69 |xxxxxxxxxxxxx |xxxxxxxxxxxxx |xxxxxxxxxxxxx |xxxxxxxxxxxxx |           69 |           69 |           69 |xxxxxxxxxxxxx |xxxxxxxxxxxxx |xxxxxxxxxxxxx |xxxxxxxxxxxxx |           69 |           69 |           69 |xxxxxxxxxxxxx |xxxxxxxxxxxxx |xxxxxxxxxxxxx |xxxxxxxxxxxxx |           69 |           69 |           69 |xxxxxxxxxxxxx |xxxxxxxxxxxxx |xxxxxxxxxxxxx |xxxxxxxxxxxxx |           72 |           72 |           72 |xxxxxxxxxxxxx |xxxxxxxxxxxxx |xxxxxxxxxxxxx |xxxxxxxxxxxxx |           72 |           72 |           72 |xxxxxxxxxxxxx |xxxxxxxxxxxxx |xxxxxxxxxxxxx |xxxxxxxxxxxxx |           72 |           72 |           72 |
bpred_bimod.ras_rate.PP                     1.0000 |       1.0000 |       1.0000 |xxxxxxxxxxxxx |xxxxxxxxxxxxx |xxxxxxxxxxxxx |xxxxxxxxxxxxx |       0.9857 |       0.9857 |       0.9857 |xxxxxxxxxxxxx |xxxxxxxxxxxxx |xxxxxxxxxxxxx |xxxxxxxxxxxxx |       0.9857 |       0.9857 |       0.9857 |xxxxxxxxxxxxx |xxxxxxxxxxxxx |xxxxxxxxxxxxx |xxxxxxxxxxxxx |       0.9857 |       0.9857 |       0.9857 |xxxxxxxxxxxxx |xxxxxxxxxxxxx |xxxxxxxxxxxxx |xxxxxxxxxxxxx |       0.9857 |       0.9857 |       0.9857 |xxxxxxxxxxxxx |xxxxxxxxxxxxx |xxxxxxxxxxxxx |xxxxxxxxxxxxx |       0.9857 |       0.9857 |       0.9857 |xxxxxxxxxxxxx |xxxxxxxxxxxxx |xxxxxxxxxxxxx |xxxxxxxxxxxxx |       0.9857 |       0.9857 |       0.9857 |xxxxxxxxxxxxx |xxxxxxxxxxxxx |xxxxxxxxxxxxx |xxxxxxxxxxxxx |       0.9857 |       0.9857 |       0.9857 |xxxxxxxxxxxxx |xxxxxxxxxxxxx |xxxxxxxxxxxxx |xxxxxxxxxxxxx |       1.0000 |       1.0000 |       1.0000 |xxxxxxxxxxxxx |xxxxxxxxxxxxx |xxxxxxxxxxxxx |xxxxxxxxxxxxx |       1.0000 |       1.0000 |       1.0000 |xxxxxxxxxxxxx |xxxxxxxxxxxxx |xxxxxxxxxxxxx |xxxxxxxxxxxxx |       1.0000 |       1.0000 |       1.0000 |
bpred_2lev.lookups                   xxxxxxxxxxxxx |xxxxxxxxxxxxx |xxxxxxxxxxxxx |        13419 |        13419 |        13419 |        13419 |xxxxxxxxxxxxx |xxxxxxxxxxxxx |xxxxxxxxxxxxx |        25747 |        25747 |        25747 |        25747 |xxxxxxxxxxxxx |xxxxxxxxxxxxx |xxxxxxxxxxxxx |        50323 |        50323 |        50323 |        50323 |xxxxxxxxxxxxx |xxxxxxxxxxxxx |xxxxxxxxxxxxx |        99475 |        99475 |        99475 |        99475 |xxxxxxxxxxxxx |xxxxxxxxxxxxx |xxxxxxxxxxxxx |       197779 |       197779 |       197779 |       197779 |xxxxxxxxxxxxx |xxxxxxxxxxxxx |xxxxxxxxxxxxx |       394387 |       394387 |       394387 |       394387 |xxxxxxxxxxxxx |xxxxxxxxxxxxx |xxxxxxxxxxxxx |       787603 |       787603 |       787603 |       787603 |xxxxxxxxxxxxx |xxxxxxxxxxxxx |xxxxxxxxxxxxx |      1574035 |      1574035 |      1574035 |      1574035 |xxxxxxxxxxxxx |xxxxxxxxxxxxx |xxxxxxxxxxxxx |      3147692 |      3147692 |      3147692 |      3147692 |xxxxxxxxxxxxx |xxxxxxxxxxxxx |xxxxxxxxxxxxx |      6294191 |      6294191 |      6294191 |      6294191 |xxxxxxxxxxxxx |xxxxxxxxxxxxx |xxxxxxxxxxxxx |     12587186 |     12587186 |     12587186 |     12587186 |
[...]
bpred_2lev.retstack_pushes           xxxxxxxxxxxxx |xxxxxxxxxxxxx |xxxxxxxxxxxxx |           63 |           63 |           63 |           63 |xxxxxxxxxxxxx |xxxxxxxxxxxxx |xxxxxxxxxxxxx |           72 |           72 |           72 |           72 |xxxxxxxxxxxxx |xxxxxxxxxxxxx |xxxxxxxxxxxxx |           72 |           72 |           72 |           72 |xxxxxxxxxxxxx |xxxxxxxxxxxxx |xxxxxxxxxxxxx |           72 |           72 |           72 |           72 |xxxxxxxxxxxxx |xxxxxxxxxxxxx |xxxxxxxxxxxxx |           72 |           72 |           72 |           72 |xxxxxxxxxxxxx |xxxxxxxxxxxxx |xxxxxxxxxxxxx |           72 |           72 |           72 |           72 |xxxxxxxxxxxxx |xxxxxxxxxxxxx |xxxxxxxxxxxxx |           72 |           72 |           72 |           72 |xxxxxxxxxxxxx |xxxxxxxxxxxxx |xxxxxxxxxxxxx |           72 |           72 |           72 |           72 |xxxxxxxxxxxxx |xxxxxxxxxxxxx |xxxxxxxxxxxxx |           74 |           74 |           74 |           74 |xxxxxxxxxxxxx |xxxxxxxxxxxxx |xxxxxxxxxxxxx |           74 |           74 |           74 |           74 |xxxxxxxxxxxxx |xxxxxxxxxxxxx |xxxxxxxxxxxxx |           74 |           74 |           74 |           74 |
bpred_2lev.retstack_pops             xxxxxxxxxxxxx |xxxxxxxxxxxxx |xxxxxxxxxxxxx |           61 |           61 |           61 |           61 |xxxxxxxxxxxxx |xxxxxxxxxxxxx |xxxxxxxxxxxxx |           70 |           70 |           70 |           70 |xxxxxxxxxxxxx |xxxxxxxxxxxxx |xxxxxxxxxxxxx |           70 |           70 |           70 |           70 |xxxxxxxxxxxxx |xxxxxxxxxxxxx |xxxxxxxxxxxxx |           70 |           70 |           70 |           70 |xxxxxxxxxxxxx |xxxxxxxxxxxxx |xxxxxxxxxxxxx |           70 |           70 |           70 |           70 |xxxxxxxxxxxxx |xxxxxxxxxxxxx |xxxxxxxxxxxxx |           70 |           70 |           70 |           70 |xxxxxxxxxxxxx |xxxxxxxxxxxxx |xxxxxxxxxxxxx |           70 |           70 |           70 |           70 |xxxxxxxxxxxxx |xxxxxxxxxxxxx |xxxxxxxxxxxxx |           70 |           70 |           70 |           70 |xxxxxxxxxxxxx |xxxxxxxxxxxxx |xxxxxxxxxxxxx |           72 |           72 |           72 |           72 |xxxxxxxxxxxxx |xxxxxxxxxxxxx |xxxxxxxxxxxxx |           72 |           72 |           72 |           72 |xxxxxxxxxxxxx |xxxxxxxxxxxxx |xxxxxxxxxxxxx |           72 |           72 |           72 |           72 |
bpred_2lev.used_ras.PP               xxxxxxxxxxxxx |xxxxxxxxxxxxx |xxxxxxxxxxxxx |           61 |           61 |           61 |           61 |xxxxxxxxxxxxx |xxxxxxxxxxxxx |xxxxxxxxxxxxx |           70 |           70 |           70 |           70 |xxxxxxxxxxxxx |xxxxxxxxxxxxx |xxxxxxxxxxxxx |           70 |           70 |           70 |           70 |xxxxxxxxxxxxx |xxxxxxxxxxxxx |xxxxxxxxxxxxx |           70 |           70 |           70 |           70 |xxxxxxxxxxxxx |xxxxxxxxxxxxx |xxxxxxxxxxxxx |           70 |           70 |           70 |           70 |xxxxxxxxxxxxx |xxxxxxxxxxxxx |xxxxxxxxxxxxx |           70 |           70 |           70 |           70 |xxxxxxxxxxxxx |xxxxxxxxxxxxx |xxxxxxxxxxxxx |           70 |           70 |           70 |           70 |xxxxxxxxxxxxx |xxxxxxxxxxxxx |xxxxxxxxxxxxx |           70 |           70 |           70 |           70 |xxxxxxxxxxxxx |xxxxxxxxxxxxx |xxxxxxxxxxxxx |           72 |           72 |           72 |           72 |xxxxxxxxxxxxx |xxxxxxxxxxxxx |xxxxxxxxxxxxx |           72 |           72 |           72 |           72 |xxxxxxxxxxxxx |xxxxxxxxxxxxx |xxxxxxxxxxxxx |           72 |           72 |           72 |           72 |
bpred_2lev.ras_hits.PP               xxxxxxxxxxxxx |xxxxxxxxxxxxx |xxxxxxxxxxxxx |           61 |           61 |           61 |           61 |xxxxxxxxxxxxx |xxxxxxxxxxxxx |xxxxxxxxxxxxx |           69 |           69 |           69 |           69 |xxxxxxxxxxxxx |xxxxxxxxxxxxx |xxxxxxxxxxxxx |           69 |           69 |           69 |           69 |xxxxxxxxxxxxx |xxxxxxxxxxxxx |xxxxxxxxxxxxx |           69 |           69 |           69 |           69 |xxxxxxxxxxxxx |xxxxxxxxxxxxx |xxxxxxxxxxxxx |           69 |           69 |           69 |           69 |xxxxxxxxxxxxx |xxxxxxxxxxxxx |xxxxxxxxxxxxx |           69 |           69 |           69 |           69 |xxxxxxxxxxxxx |xxxxxxxxxxxxx |xxxxxxxxxxxxx |           69 |           69 |           69 |           69 |xxxxxxxxxxxxx |xxxxxxxxxxxxx |xxxxxxxxxxxxx |           69 |           69 |           69 |           69 |xxxxxxxxxxxxx |xxxxxxxxxxxxx |xxxxxxxxxxxxx |           72 |           72 |           72 |           72 |xxxxxxxxxxxxx |xxxxxxxxxxxxx |xxxxxxxxxxxxx |           72 |           72 |           72 |           72 |xxxxxxxxxxxxx |xxxxxxxxxxxxx |xxxxxxxxxxxxx |           72 |           72 |           72 |           72 |
bpred_2lev.ras_rate.PP               xxxxxxxxxxxxx |xxxxxxxxxxxxx |xxxxxxxxxxxxx |       1.0000 |       1.0000 |       1.0000 |       1.0000 |xxxxxxxxxxxxx |xxxxxxxxxxxxx |xxxxxxxxxxxxx |       0.9857 |       0.9857 |       0.9857 |       0.9857 |xxxxxxxxxxxxx |xxxxxxxxxxxxx |xxxxxxxxxxxxx |       0.9857 |       0.9857 |       0.9857 |       0.9857 |xxxxxxxxxxxxx |xxxxxxxxxxxxx |xxxxxxxxxxxxx |       0.9857 |       0.9857 |       0.9857 |       0.9857 |xxxxxxxxxxxxx |xxxxxxxxxxxxx |xxxxxxxxxxxxx |       0.9857 |       0.9857 |       0.9857 |       0.9857 |xxxxxxxxxxxxx |xxxxxxxxxxxxx |xxxxxxxxxxxxx |       0.9857 |       0.9857 |       0.9857 |       0.9857 |xxxxxxxxxxxxx |xxxxxxxxxxxxx |xxxxxxxxxxxxx |       0.9857 |       0.9857 |       0.9857 |       0.9857 |xxxxxxxxxxxxx |xxxxxxxxxxxxx |xxxxxxxxxxxxx |       0.9857 |       0.9857 |       0.9857 |       0.9857 |xxxxxxxxxxxxx |xxxxxxxxxxxxx |xxxxxxxxxxxxx |       1.0000 |       1.0000 |       1.0000 |       1.0000 |xxxxxxxxxxxxx |xxxxxxxxxxxxx |xxxxxxxxxxxxx |       1.0000 |       1.0000 |       1.0000 |       1.0000 |xxxxxxxxxxxxx |xxxxxxxxxxxxx |xxxxxxxxxxxxx |       1.0000 |       1.0000 |       1.0000 |       1.0000 |

Command list: 
	sslittle-na-sstrix-gcc -Wall -O3 -funroll-loops -finline-functions  -DRANDOM_SIZE=4096 -DOFFSET=9 -DSORT=base_radixsort sorts/base_radixsort1407785923.c simpleMain.c -o base_radixsort942924072
	sim-cache -cache:dl1 dl1:256:32:1:l -cache:dl2 dl2:131072:32:1:l -cache:il1 il1:256:32:1:l -cache:il2 dl2 base_radixsort942924072
	sim-cache -cache:dl1 dl1:256:32:1:l -cache:dl2 dl2:65536:32:1:l -cache:il1 il1:256:32:1:l -cache:il2 dl2 base_radixsort942924072
	sim-cache -cache:dl1 dl1:1:32:256:l -cache:dl2 dl2:1:32:131072:l -cache:il1 il1:1:32:256:l -cache:il2 dl2 base_radixsort942924072
	sim-cache -cache:dl1 dl1:1:32:256:l -cache:dl2 dl2:1:32:65536:l -cache:il1 il1:1:32:256:l -cache:il2 dl2 base_radixsort942924072
	sim-bpred -bpred bimod -bpred:bimod 512 base_radixsort942924072
	sim-bpred -bpred bimod -bpred:bimod 1024 base_radixsort942924072
	sim-bpred -bpred bimod -bpred:bimod 2048 base_radixsort942924072
	sim-bpred -bpred 2lev -bpred:2lev 1 512 10 1 base_radixsort942924072
	sim-bpred -bpred 2lev -bpred:2lev 1 1024 10 1 base_radixsort942924072
	sim-bpred -bpred 2lev -bpred:2lev 1 2048 10 1 base_radixsort942924072
	sim-bpred -bpred 2lev -bpred:2lev 1 4096 10 1 base_radixsort942924072
	sslittle-na-sstrix-gcc -Wall -O3 -funroll-loops -finline-functions  -DRANDOM_SIZE=8192 -DOFFSET=9 -DSORT=base_radixsort sorts/base_radixsort1407785923.c simpleMain.c -o base_radixsort942924072
	sim-cache -cache:dl1 dl1:256:32:1:l -cache:dl2 dl2:131072:32:1:l -cache:il1 il1:256:32:1:l -cache:il2 dl2 base_radixsort942924072
	sim-cache -cache:dl1 dl1:256:32:1:l -cache:dl2 dl2:65536:32:1:l -cache:il1 il1:256:32:1:l -cache:il2 dl2 base_radixsort942924072
	sim-cache -cache:dl1 dl1:1:32:256:l -cache:dl2 dl2:1:32:131072:l -cache:il1 il1:1:32:256:l -cache:il2 dl2 base_radixsort942924072
	sim-cache -cache:dl1 dl1:1:32:256:l -cache:dl2 dl2:1:32:65536:l -cache:il1 il1:1:32:256:l -cache:il2 dl2 base_radixsort942924072
	sim-bpred -bpred bimod -bpred:bimod 512 base_radixsort942924072
	sim-bpred -bpred bimod -bpred:bimod 1024 base_radixsort942924072
	sim-bpred -bpred bimod -bpred:bimod 2048 base_radixsort942924072
	sim-bpred -bpred 2lev -bpred:2lev 1 512 10 1 base_radixsort942924072
	sim-bpred -bpred 2lev -bpred:2lev 1 1024 10 1 base_radixsort942924072
	sim-bpred -bpred 2lev -bpred:2lev 1 2048 10 1 base_radixsort942924072
	sim-bpred -bpred 2lev -bpred:2lev 1 4096 10 1 base_radixsort942924072
	sslittle-na-sstrix-gcc -Wall -O3 -funroll-loops -finline-functions  -DRANDOM_SIZE=16384 -DOFFSET=9 -DSORT=base_radixsort sorts/base_radixsort1407785923.c simpleMain.c -o base_radixsort942924072
	sim-cache -cache:dl1 dl1:256:32:1:l -cache:dl2 dl2:131072:32:1:l -cache:il1 il1:256:32:1:l -cache:il2 dl2 base_radixsort942924072
	sim-cache -cache:dl1 dl1:256:32:1:l -cache:dl2 dl2:65536:32:1:l -cache:il1 il1:256:32:1:l -cache:il2 dl2 base_radixsort942924072
	sim-cache -cache:dl1 dl1:1:32:256:l -cache:dl2 dl2:1:32:131072:l -cache:il1 il1:1:32:256:l -cache:il2 dl2 base_radixsort942924072
	sim-cache -cache:dl1 dl1:1:32:256:l -cache:dl2 dl2:1:32:65536:l -cache:il1 il1:1:32:256:l -cache:il2 dl2 base_radixsort942924072
	sim-bpred -bpred bimod -bpred:bimod 512 base_radixsort942924072
	sim-bpred -bpred bimod -bpred:bimod 1024 base_radixsort942924072
	sim-bpred -bpred bimod -bpred:bimod 2048 base_radixsort942924072
	sim-bpred -bpred 2lev -bpred:2lev 1 512 10 1 base_radixsort942924072
	sim-bpred -bpred 2lev -bpred:2lev 1 1024 10 1 base_radixsort942924072
	sim-bpred -bpred 2lev -bpred:2lev 1 2048 10 1 base_radixsort942924072
	sim-bpred -bpred 2lev -bpred:2lev 1 4096 10 1 base_radixsort942924072
	sslittle-na-sstrix-gcc -Wall -O3 -funroll-loops -finline-functions  -DRANDOM_SIZE=32768 -DOFFSET=9 -DSORT=base_radixsort sorts/base_radixsort1407785923.c simpleMain.c -o base_radixsort942924072
	sim-cache -cache:dl1 dl1:256:32:1:l -cache:dl2 dl2:131072:32:1:l -cache:il1 il1:256:32:1:l -cache:il2 dl2 base_radixsort942924072
	sim-cache -cache:dl1 dl1:256:32:1:l -cache:dl2 dl2:65536:32:1:l -cache:il1 il1:256:32:1:l -cache:il2 dl2 base_radixsort942924072
	sim-cache -cache:dl1 dl1:1:32:256:l -cache:dl2 dl2:1:32:131072:l -cache:il1 il1:1:32:256:l -cache:il2 dl2 base_radixsort942924072
	sim-cache -cache:dl1 dl1:1:32:256:l -cache:dl2 dl2:1:32:65536:l -cache:il1 il1:1:32:256:l -cache:il2 dl2 base_radixsort942924072
	sim-bpred -bpred bimod -bpred:bimod 512 base_radixsort942924072
	sim-bpred -bpred bimod -bpred:bimod 1024 base_radixsort942924072
	sim-bpred -bpred bimod -bpred:bimod 2048 base_radixsort942924072
	sim-bpred -bpred 2lev -bpred:2lev 1 512 10 1 base_radixsort942924072
	sim-bpred -bpred 2lev -bpred:2lev 1 1024 10 1 base_radixsort942924072
	sim-bpred -bpred 2lev -bpred:2lev 1 2048 10 1 base_radixsort942924072
	sim-bpred -bpred 2lev -bpred:2lev 1 4096 10 1 base_radixsort942924072
	sslittle-na-sstrix-gcc -Wall -O3 -funroll-loops -finline-functions  -DRANDOM_SIZE=65536 -DOFFSET=9 -DSORT=base_radixsort sorts/base_radixsort1407785923.c simpleMain.c -o base_radixsort942924072
	sim-cache -cache:dl1 dl1:256:32:1:l -cache:dl2 dl2:131072:32:1:l -cache:il1 il1:256:32:1:l -cache:il2 dl2 base_radixsort942924072
	sim-cache -cache:dl1 dl1:256:32:1:l -cache:dl2 dl2:65536:32:1:l -cache:il1 il1:256:32:1:l -cache:il2 dl2 base_radixsort942924072
	sim-cache -cache:dl1 dl1:1:32:256:l -cache:dl2 dl2:1:32:131072:l -cache:il1 il1:1:32:256:l -cache:il2 dl2 base_radixsort942924072
	sim-cache -cache:dl1 dl1:1:32:256:l -cache:dl2 dl2:1:32:65536:l -cache:il1 il1:1:32:256:l -cache:il2 dl2 base_radixsort942924072
	sim-bpred -bpred bimod -bpred:bimod 512 base_radixsort942924072
	sim-bpred -bpred bimod -bpred:bimod 1024 base_radixsort942924072
	sim-bpred -bpred bimod -bpred:bimod 2048 base_radixsort942924072
	sim-bpred -bpred 2lev -bpred:2lev 1 512 10 1 base_radixsort942924072
	sim-bpred -bpred 2lev -bpred:2lev 1 1024 10 1 base_radixsort942924072
	sim-bpred -bpred 2lev -bpred:2lev 1 2048 10 1 base_radixsort942924072
	sim-bpred -bpred 2lev -bpred:2lev 1 4096 10 1 base_radixsort942924072
	sslittle-na-sstrix-gcc -Wall -O3 -funroll-loops -finline-functions  -DRANDOM_SIZE=131072 -DOFFSET=9 -DSORT=base_radixsort sorts/base_radixsort1407785923.c simpleMain.c -o base_radixsort942924072
	sim-cache -cache:dl1 dl1:256:32:1:l -cache:dl2 dl2:131072:32:1:l -cache:il1 il1:256:32:1:l -cache:il2 dl2 base_radixsort942924072
	sim-cache -cache:dl1 dl1:256:32:1:l -cache:dl2 dl2:65536:32:1:l -cache:il1 il1:256:32:1:l -cache:il2 dl2 base_radixsort942924072
	sim-cache -cache:dl1 dl1:1:32:256:l -cache:dl2 dl2:1:32:131072:l -cache:il1 il1:1:32:256:l -cache:il2 dl2 base_radixsort942924072
	sim-cache -cache:dl1 dl1:1:32:256:l -cache:dl2 dl2:1:32:65536:l -cache:il1 il1:1:32:256:l -cache:il2 dl2 base_radixsort942924072
	sim-bpred -bpred bimod -bpred:bimod 512 base_radixsort942924072
	sim-bpred -bpred bimod -bpred:bimod 1024 base_radixsort942924072
	sim-bpred -bpred bimod -bpred:bimod 2048 base_radixsort942924072
	sim-bpred -bpred 2lev -bpred:2lev 1 512 10 1 base_radixsort942924072
	sim-bpred -bpred 2lev -bpred:2lev 1 1024 10 1 base_radixsort942924072
	sim-bpred -bpred 2lev -bpred:2lev 1 2048 10 1 base_radixsort942924072
	sim-bpred -bpred 2lev -bpred:2lev 1 4096 10 1 base_radixsort942924072
	sslittle-na-sstrix-gcc -Wall -O3 -funroll-loops -finline-functions  -DRANDOM_SIZE=262144 -DOFFSET=9 -DSORT=base_radixsort sorts/base_radixsort1407785923.c simpleMain.c -o base_radixsort942924072
	sim-cache -cache:dl1 dl1:256:32:1:l -cache:dl2 dl2:131072:32:1:l -cache:il1 il1:256:32:1:l -cache:il2 dl2 base_radixsort942924072
	sim-cache -cache:dl1 dl1:256:32:1:l -cache:dl2 dl2:65536:32:1:l -cache:il1 il1:256:32:1:l -cache:il2 dl2 base_radixsort942924072
	sim-cache -cache:dl1 dl1:1:32:256:l -cache:dl2 dl2:1:32:131072:l -cache:il1 il1:1:32:256:l -cache:il2 dl2 base_radixsort942924072
	sim-cache -cache:dl1 dl1:1:32:256:l -cache:dl2 dl2:1:32:65536:l -cache:il1 il1:1:32:256:l -cache:il2 dl2 base_radixsort942924072
	sim-bpred -bpred bimod -bpred:bimod 512 base_radixsort942924072
	sim-bpred -bpred bimod -bpred:bimod 1024 base_radixsort942924072
	sim-bpred -bpred bimod -bpred:bimod 2048 base_radixsort942924072
	sim-bpred -bpred 2lev -bpred:2lev 1 512 10 1 base_radixsort942924072
	sim-bpred -bpred 2lev -bpred:2lev 1 1024 10 1 base_radixsort942924072
	sim-bpred -bpred 2lev -bpred:2lev 1 2048 10 1 base_radixsort942924072
	sim-bpred -bpred 2lev -bpred:2lev 1 4096 10 1 base_radixsort942924072
	sslittle-na-sstrix-gcc -Wall -O3 -funroll-loops -finline-functions  -DRANDOM_SIZE=524288 -DOFFSET=9 -DSORT=base_radixsort sorts/base_radixsort1407785923.c simpleMain.c -o base_radixsort942924072
	sim-cache -cache:dl1 dl1:256:32:1:l -cache:dl2 dl2:131072:32:1:l -cache:il1 il1:256:32:1:l -cache:il2 dl2 base_radixsort942924072
	sim-cache -cache:dl1 dl1:256:32:1:l -cache:dl2 dl2:65536:32:1:l -cache:il1 il1:256:32:1:l -cache:il2 dl2 base_radixsort942924072
	sim-cache -cache:dl1 dl1:1:32:256:l -cache:dl2 dl2:1:32:131072:l -cache:il1 il1:1:32:256:l -cache:il2 dl2 base_radixsort942924072
	sim-cache -cache:dl1 dl1:1:32:256:l -cache:dl2 dl2:1:32:65536:l -cache:il1 il1:1:32:256:l -cache:il2 dl2 base_radixsort942924072
	sim-bpred -bpred bimod -bpred:bimod 512 base_radixsort942924072
	sim-bpred -bpred bimod -bpred:bimod 1024 base_radixsort942924072
	sim-bpred -bpred bimod -bpred:bimod 2048 base_radixsort942924072
	sim-bpred -bpred 2lev -bpred:2lev 1 512 10 1 base_radixsort942924072
	sim-bpred -bpred 2lev -bpred:2lev 1 1024 10 1 base_radixsort942924072
	sim-bpred -bpred 2lev -bpred:2lev 1 2048 10 1 base_radixsort942924072
	sim-bpred -bpred 2lev -bpred:2lev 1 4096 10 1 base_radixsort942924072
	sslittle-na-sstrix-gcc -Wall -O3 -funroll-loops -finline-functions  -DRANDOM_SIZE=1048576 -DOFFSET=9 -DSORT=base_radixsort sorts/base_radixsort1407785923.c simpleMain.c -o base_radixsort942924072
	sim-cache -cache:dl1 dl1:256:32:1:l -cache:dl2 dl2:131072:32:1:l -cache:il1 il1:256:32:1:l -cache:il2 dl2 base_radixsort942924072
	sim-cache -cache:dl1 dl1:256:32:1:l -cache:dl2 dl2:65536:32:1:l -cache:il1 il1:256:32:1:l -cache:il2 dl2 base_radixsort942924072
	sim-cache -cache:dl1 dl1:1:32:256:l -cache:dl2 dl2:1:32:131072:l -cache:il1 il1:1:32:256:l -cache:il2 dl2 base_radixsort942924072
	sim-cache -cache:dl1 dl1:1:32:256:l -cache:dl2 dl2:1:32:65536:l -cache:il1 il1:1:32:256:l -cache:il2 dl2 base_radixsort942924072
	sim-bpred -bpred bimod -bpred:bimod 512 base_radixsort942924072
	sim-bpred -bpred bimod -bpred:bimod 1024 base_radixsort942924072
	sim-bpred -bpred bimod -bpred:bimod 2048 base_radixsort942924072
	sim-bpred -bpred 2lev -bpred:2lev 1 512 10 1 base_radixsort942924072
	sim-bpred -bpred 2lev -bpred:2lev 1 1024 10 1 base_radixsort942924072
	sim-bpred -bpred 2lev -bpred:2lev 1 2048 10 1 base_radixsort942924072
	sim-bpred -bpred 2lev -bpred:2lev 1 4096 10 1 base_radixsort942924072
	sslittle-na-sstrix-gcc -Wall -O3 -funroll-loops -finline-functions  -DRANDOM_SIZE=2097152 -DOFFSET=9 -DSORT=base_radixsort sorts/base_radixsort1407785923.c simpleMain.c -o base_radixsort942924072
	sim-cache -cache:dl1 dl1:256:32:1:l -cache:dl2 dl2:131072:32:1:l -cache:il1 il1:256:32:1:l -cache:il2 dl2 base_radixsort942924072
	sim-cache -cache:dl1 dl1:256:32:1:l -cache:dl2 dl2:65536:32:1:l -cache:il1 il1:256:32:1:l -cache:il2 dl2 base_radixsort942924072
	sim-cache -cache:dl1 dl1:1:32:256:l -cache:dl2 dl2:1:32:131072:l -cache:il1 il1:1:32:256:l -cache:il2 dl2 base_radixsort942924072
	sim-cache -cache:dl1 dl1:1:32:256:l -cache:dl2 dl2:1:32:65536:l -cache:il1 il1:1:32:256:l -cache:il2 dl2 base_radixsort942924072
	sim-bpred -bpred bimod -bpred:bimod 512 base_radixsort942924072
	sim-bpred -bpred bimod -bpred:bimod 1024 base_radixsort942924072
	sim-bpred -bpred bimod -bpred:bimod 2048 base_radixsort942924072
	sim-bpred -bpred 2lev -bpred:2lev 1 512 10 1 base_radixsort942924072
	sim-bpred -bpred 2lev -bpred:2lev 1 1024 10 1 base_radixsort942924072
	sim-bpred -bpred 2lev -bpred:2lev 1 2048 10 1 base_radixsort942924072
	sim-bpred -bpred 2lev -bpred:2lev 1 4096 10 1 base_radixsort942924072
	sslittle-na-sstrix-gcc -Wall -O3 -funroll-loops -finline-functions  -DRANDOM_SIZE=4194304 -DOFFSET=9 -DSORT=base_radixsort sorts/base_radixsort1407785923.c simpleMain.c -o base_radixsort942924072
	sim-cache -cache:dl1 dl1:256:32:1:l -cache:dl2 dl2:131072:32:1:l -cache:il1 il1:256:32:1:l -cache:il2 dl2 base_radixsort942924072
	sim-cache -cache:dl1 dl1:256:32:1:l -cache:dl2 dl2:65536:32:1:l -cache:il1 il1:256:32:1:l -cache:il2 dl2 base_radixsort942924072
	sim-cache -cache:dl1 dl1:1:32:256:l -cache:dl2 dl2:1:32:131072:l -cache:il1 il1:1:32:256:l -cache:il2 dl2 base_radixsort942924072
	sim-cache -cache:dl1 dl1:1:32:256:l -cache:dl2 dl2:1:32:65536:l -cache:il1 il1:1:32:256:l -cache:il2 dl2 base_radixsort942924072
	sim-bpred -bpred bimod -bpred:bimod 512 base_radixsort942924072
	sim-bpred -bpred bimod -bpred:bimod 1024 base_radixsort942924072
	sim-bpred -bpred bimod -bpred:bimod 2048 base_radixsort942924072
	sim-bpred -bpred 2lev -bpred:2lev 1 512 10 1 base_radixsort942924072
	sim-bpred -bpred 2lev -bpred:2lev 1 1024 10 1 base_radixsort942924072
	sim-bpred -bpred 2lev -bpred:2lev 1 2048 10 1 base_radixsort942924072
	sim-bpred -bpred 2lev -bpred:2lev 1 4096 10 1 base_radixsort942924072
