Tue Jun 21 11:41:19 2005
Run as: "./do_simple -c random.org1 -o 1 base_heapsort"
-------------------------------------------------------------------------------------------------
sim-cache                                     4096 |         4096 |         4096 |         4096 |         8192 |         8192 |         8192 |         8192 |        16384 |        16384 |        16384 |        16384 |        32768 |        32768 |        32768 |        32768 |        65536 |        65536 |        65536 |        65536 |       131072 |       131072 |       131072 |       131072 |       262144 |       262144 |       262144 |       262144 |       524288 |       524288 |       524288 |       524288 |      1048576 |      1048576 |      1048576 |      1048576 |      2097152 |      2097152 |      2097152 |      2097152 |      4194304 |      4194304 |      4194304 |      4194304 |
-cache:dl1 dl1:256:32:1:l -cache:dl2 dl2:131072:32:1:l -cache:il1 il1:256:32:1:l -cache:il2 dl2
-cache:dl1 dl1:256:32:1:l -cache:dl2 dl2:65536:32:1:l -cache:il1 il1:256:32:1:l -cache:il2 dl2
-cache:dl1 dl1:1:32:256:l -cache:dl2 dl2:1:32:131072:l -cache:il1 il1:1:32:256:l -cache:il2 dl2
-cache:dl1 dl1:1:32:256:l -cache:dl2 dl2:1:32:65536:l -cache:il1 il1:1:32:256:l -cache:il2 dl2
-------------------------------------------------------------------------------------------------
sim_num_insn                                908385 |       908385 |       908385 |       908385 |      1970911 |      1970911 |      1970911 |      1970911 |      4251908 |      4251908 |      4251908 |      4251908 |      9138887 |      9138887 |      9138887 |      9138887 |     19544321 |     19544321 |     19544321 |     19544321 |     41639944 |     41639944 |     41639944 |     41639944 |     88379166 |     88379166 |     88379166 |     88379166 |    186988311 |    186988311 |    186988311 |    186988311 |    394397835 |    394397835 |    394397835 |    394397835 |    829705173 |    829705173 |    829705173 |    829705173 |   1741164383 |   1741164383 |   1741164383 |   1741164383 |
sim_num_refs                                198194 |       198194 |       198194 |       198194 |       425629 |       425629 |       425629 |       425629 |       912729 |       912729 |       912729 |       912729 |      1953107 |      1953107 |      1953107 |      1953107 |      4163632 |      4163632 |      4163632 |      4163632 |      8848408 |      8848408 |      8848408 |      8848408 |     18740138 |     18740138 |     18740138 |     18740138 |     39576577 |     39576577 |     39576577 |     39576577 |     83340501 |     83340501 |     83340501 |     83340501 |    175069847 |    175069847 |    175069847 |    175069847 |    366906903 |    366906903 |    366906903 |    366906903 |
sim_elapsed_time                                 1 |            1 |            7 |            3 |            1 |            1 |            9 |            5 |            1 |            1 |           15 |            8 |            2 |            3 |           26 |           14 |            5 |            5 |           48 |           26 |           11 |           11 |           90 |           48 |           23 |           23 |          168 |           86 |           50 |           49 |          297 |          138 |          106 |          106 |          447 |          212 |          226 |          227 |          612 |          371 |          484 |          482 |          951 |          705 |
sim_inst_rate                          908385.0000 |  908385.0000 |  129769.2857 |  302795.0000 | 1970911.0000 | 1970911.0000 |  218990.1111 |  394182.2000 | 4251908.0000 | 4251908.0000 |  283460.5333 |  531488.5000 | 4569443.5000 | 3046295.6667 |  351495.6538 |  652777.6429 | 3908864.2000 | 3908864.2000 |  407173.3542 |  751704.6538 | 3785449.4545 | 3785449.4545 |  462666.0444 |  867498.8333 | 3842572.4348 | 3842572.4348 |  526066.4643 | 1027664.7209 | 3739766.2200 | 3816087.9796 |  629590.2727 | 1354987.7609 | 3720734.2925 | 3720734.2925 |  882321.7785 | 1860367.1462 | 3671261.8274 | 3655088.8678 | 1355727.4069 | 2236402.0836 | 3597447.0723 | 3612374.2386 | 1830877.3743 | 2469736.7135 |
il1.accesses                                908385 |       908385 |       908385 |       908385 |      1970911 |      1970911 |      1970911 |      1970911 |      4251908 |      4251908 |      4251908 |      4251908 |      9138887 |      9138887 |      9138887 |      9138887 |     19544321 |     19544321 |     19544321 |     19544321 |     41639944 |     41639944 |     41639944 |     41639944 |     88379166 |     88379166 |     88379166 |     88379166 |    186988311 |    186988311 |    186988311 |    186988311 |    394397835 |    394397835 |    394397835 |    394397835 |    829705173 |    829705173 |    829705173 |    829705173 |   1741164383 |   1741164383 |   1741164383 |   1741164383 |
il1.hits                                    907903 |       907903 |       907963 |       907963 |      1970427 |      1970427 |      1970486 |      1970486 |      4251434 |      4251434 |      4251488 |      4251488 |      9138402 |      9138402 |      9138461 |      9138461 |     19543836 |     19543836 |     19543895 |     19543895 |     41639461 |     41639461 |     41639520 |     41639520 |     88378682 |     88378682 |     88378741 |     88378741 |    186987827 |    186987827 |    186987886 |    186987886 |    394397351 |    394397351 |    394397410 |    394397410 |    829704689 |    829704689 |    829704748 |    829704748 |   1741163899 |   1741163899 |   1741163958 |   1741163958 |
il1.misses                                     482 |          482 |          422 |          422 |          484 |          484 |          425 |          425 |          474 |          474 |          420 |          420 |          485 |          485 |          426 |          426 |          485 |          485 |          426 |          426 |          483 |          483 |          424 |          424 |          484 |          484 |          425 |          425 |          484 |          484 |          425 |          425 |          484 |          484 |          425 |          425 |          484 |          484 |          425 |          425 |          484 |          484 |          425 |          425 |
il1.replacements                               246 |          246 |          166 |          166 |          247 |          247 |          169 |          169 |          239 |          239 |          164 |          164 |          248 |          248 |          170 |          170 |          248 |          248 |          170 |          170 |          246 |          246 |          168 |          168 |          247 |          247 |          169 |          169 |          247 |          247 |          169 |          169 |          247 |          247 |          169 |          169 |          247 |          247 |          169 |          169 |          247 |          247 |          169 |          169 |
il1.writebacks                                   0 |            0 |            0 |            0 |            0 |            0 |            0 |            0 |            0 |            0 |            0 |            0 |            0 |            0 |            0 |            0 |            0 |            0 |            0 |            0 |            0 |            0 |            0 |            0 |            0 |            0 |            0 |            0 |            0 |            0 |            0 |            0 |            0 |            0 |            0 |            0 |            0 |            0 |            0 |            0 |            0 |            0 |            0 |            0 |
il1.invalidations                                0 |            0 |            0 |            0 |            0 |            0 |            0 |            0 |            0 |            0 |            0 |            0 |            0 |            0 |            0 |            0 |            0 |            0 |            0 |            0 |            0 |            0 |            0 |            0 |            0 |            0 |            0 |            0 |            0 |            0 |            0 |            0 |            0 |            0 |            0 |            0 |            0 |            0 |            0 |            0 |            0 |            0 |            0 |            0 |
il1.miss_rate                               0.0005 |       0.0005 |       0.0005 |       0.0005 |       0.0002 |       0.0002 |       0.0002 |       0.0002 |       0.0001 |       0.0001 |       0.0001 |       0.0001 |       0.0001 |       0.0001 |       0.0000 |       0.0000 |       0.0000 |       0.0000 |       0.0000 |       0.0000 |       0.0000 |       0.0000 |       0.0000 |       0.0000 |       0.0000 |       0.0000 |       0.0000 |       0.0000 |       0.0000 |       0.0000 |       0.0000 |       0.0000 |       0.0000 |       0.0000 |       0.0000 |       0.0000 |       0.0000 |       0.0000 |       0.0000 |       0.0000 |       0.0000 |       0.0000 |       0.0000 |       0.0000 |
il1.repl_rate                               0.0003 |       0.0003 |       0.0002 |       0.0002 |       0.0001 |       0.0001 |       0.0001 |       0.0001 |       0.0001 |       0.0001 |       0.0000 |       0.0000 |       0.0000 |       0.0000 |       0.0000 |       0.0000 |       0.0000 |       0.0000 |       0.0000 |       0.0000 |       0.0000 |       0.0000 |       0.0000 |       0.0000 |       0.0000 |       0.0000 |       0.0000 |       0.0000 |       0.0000 |       0.0000 |       0.0000 |       0.0000 |       0.0000 |       0.0000 |       0.0000 |       0.0000 |       0.0000 |       0.0000 |       0.0000 |       0.0000 |       0.0000 |       0.0000 |       0.0000 |       0.0000 |
il1.wb_rate                                 0.0000 |       0.0000 |       0.0000 |       0.0000 |       0.0000 |       0.0000 |       0.0000 |       0.0000 |       0.0000 |       0.0000 |       0.0000 |       0.0000 |       0.0000 |       0.0000 |       0.0000 |       0.0000 |       0.0000 |       0.0000 |       0.0000 |       0.0000 |       0.0000 |       0.0000 |       0.0000 |       0.0000 |       0.0000 |       0.0000 |       0.0000 |       0.0000 |       0.0000 |       0.0000 |       0.0000 |       0.0000 |       0.0000 |       0.0000 |       0.0000 |       0.0000 |       0.0000 |       0.0000 |       0.0000 |       0.0000 |       0.0000 |       0.0000 |       0.0000 |       0.0000 |
il1.inv_rate                                0.0000 |       0.0000 |       0.0000 |       0.0000 |       0.0000 |       0.0000 |       0.0000 |       0.0000 |       0.0000 |       0.0000 |       0.0000 |       0.0000 |       0.0000 |       0.0000 |       0.0000 |       0.0000 |       0.0000 |       0.0000 |       0.0000 |       0.0000 |       0.0000 |       0.0000 |       0.0000 |       0.0000 |       0.0000 |       0.0000 |       0.0000 |       0.0000 |       0.0000 |       0.0000 |       0.0000 |       0.0000 |       0.0000 |       0.0000 |       0.0000 |       0.0000 |       0.0000 |       0.0000 |       0.0000 |       0.0000 |       0.0000 |       0.0000 |       0.0000 |       0.0000 |
dl1.accesses                                214660 |       214660 |       214660 |       214660 |       458479 |       458479 |       458479 |       458479 |       978347 |       978347 |       978347 |       978347 |      2084261 |      2084261 |      2084261 |      2084261 |      4425858 |      4425858 |      4425858 |      4425858 |      9372778 |      9372778 |      9372778 |      9372778 |     19788796 |     19788796 |     19788796 |     19788796 |     41673811 |     41673811 |     41673811 |     41673811 |     87534887 |     87534887 |     87534887 |     87534887 |    183458537 |    183458537 |    183458537 |    183458537 |    383684201 |    383684201 |    383684201 |    383684201 |
dl1.hits                                    209551 |       209551 |       209576 |       209576 |       436943 |       436943 |       438517 |       438517 |       909787 |       909787 |       914558 |       914558 |      1894317 |      1894317 |      1907335 |      1907335 |      3940886 |      3940886 |      3971942 |      3971942 |      8195503 |      8195503 |      8267363 |      8267363 |     17026710 |     17026710 |     17184981 |     17184981 |     35352687 |     35352687 |     35697023 |     35697023 |     73319983 |     73319983 |     74064049 |     74064049 |    151938874 |    151938874 |    153520576 |    153520576 |    314561402 |    314561402 |    317897597 |    317897597 |
dl1.misses                                    5109 |         5109 |         5084 |         5084 |        21536 |        21536 |        19962 |        19962 |        68560 |        68560 |        63789 |        63789 |       189944 |       189944 |       176926 |       176926 |       484972 |       484972 |       453916 |       453916 |      1177275 |      1177275 |      1105415 |      1105415 |      2762086 |      2762086 |      2603815 |      2603815 |      6321124 |      6321124 |      5976788 |      5976788 |     14214904 |     14214904 |     13470838 |     13470838 |     31519663 |     31519663 |     29937961 |     29937961 |     69122799 |     69122799 |     65786604 |     65786604 |
dl1.replacements                              4853 |         4853 |         4828 |         4828 |        21280 |        21280 |        19706 |        19706 |        68304 |        68304 |        63533 |        63533 |       189688 |       189688 |       176670 |       176670 |       484716 |       484716 |       453660 |       453660 |      1177019 |      1177019 |      1105159 |      1105159 |      2761830 |      2761830 |      2603559 |      2603559 |      6320868 |      6320868 |      5976532 |      5976532 |     14214648 |     14214648 |     13470582 |     13470582 |     31519407 |     31519407 |     29937705 |     29937705 |     69122543 |     69122543 |     65786348 |     65786348 |
dl1.writebacks                                4205 |         4205 |         4262 |         4262 |        18152 |        18152 |        16734 |        16734 |        57121 |        57121 |        52758 |        52758 |       157548 |       157548 |       145593 |       145593 |       399775 |       399775 |       371462 |       371462 |       965734 |       965734 |       901462 |       901462 |      2257676 |      2257676 |      2117304 |      2117304 |      5153106 |      5153106 |      4849848 |      4849848 |     11560768 |     11560768 |     10913742 |     10913742 |     25585912 |     25585912 |     24224279 |     24224279 |     56019845 |     56019845 |     53175573 |     53175573 |
dl1.invalidations                                0 |            0 |            0 |            0 |            0 |            0 |            0 |            0 |            0 |            0 |            0 |            0 |            0 |            0 |            0 |            0 |            0 |            0 |            0 |            0 |            0 |            0 |            0 |            0 |            0 |            0 |            0 |            0 |            0 |            0 |            0 |            0 |            0 |            0 |            0 |            0 |            0 |            0 |            0 |            0 |            0 |            0 |            0 |            0 |
dl1.miss_rate                               0.0238 |       0.0238 |       0.0237 |       0.0237 |       0.0470 |       0.0470 |       0.0435 |       0.0435 |       0.0701 |       0.0701 |       0.0652 |       0.0652 |       0.0911 |       0.0911 |       0.0849 |       0.0849 |       0.1096 |       0.1096 |       0.1026 |       0.1026 |       0.1256 |       0.1256 |       0.1179 |       0.1179 |       0.1396 |       0.1396 |       0.1316 |       0.1316 |       0.1517 |       0.1517 |       0.1434 |       0.1434 |       0.1624 |       0.1624 |       0.1539 |       0.1539 |       0.1718 |       0.1718 |       0.1632 |       0.1632 |       0.1802 |       0.1802 |       0.1715 |       0.1715 |
dl1.repl_rate                               0.0226 |       0.0226 |       0.0225 |       0.0225 |       0.0464 |       0.0464 |       0.0430 |       0.0430 |       0.0698 |       0.0698 |       0.0649 |       0.0649 |       0.0910 |       0.0910 |       0.0848 |       0.0848 |       0.1095 |       0.1095 |       0.1025 |       0.1025 |       0.1256 |       0.1256 |       0.1179 |       0.1179 |       0.1396 |       0.1396 |       0.1316 |       0.1316 |       0.1517 |       0.1517 |       0.1434 |       0.1434 |       0.1624 |       0.1624 |       0.1539 |       0.1539 |       0.1718 |       0.1718 |       0.1632 |       0.1632 |       0.1802 |       0.1802 |       0.1715 |       0.1715 |
dl1.wb_rate                                 0.0196 |       0.0196 |       0.0199 |       0.0199 |       0.0396 |       0.0396 |       0.0365 |       0.0365 |       0.0584 |       0.0584 |       0.0539 |       0.0539 |       0.0756 |       0.0756 |       0.0699 |       0.0699 |       0.0903 |       0.0903 |       0.0839 |       0.0839 |       0.1030 |       0.1030 |       0.0962 |       0.0962 |       0.1141 |       0.1141 |       0.1070 |       0.1070 |       0.1237 |       0.1237 |       0.1164 |       0.1164 |       0.1321 |       0.1321 |       0.1247 |       0.1247 |       0.1395 |       0.1395 |       0.1320 |       0.1320 |       0.1460 |       0.1460 |       0.1386 |       0.1386 |
dl1.inv_rate                                0.0000 |       0.0000 |       0.0000 |       0.0000 |       0.0000 |       0.0000 |       0.0000 |       0.0000 |       0.0000 |       0.0000 |       0.0000 |       0.0000 |       0.0000 |       0.0000 |       0.0000 |       0.0000 |       0.0000 |       0.0000 |       0.0000 |       0.0000 |       0.0000 |       0.0000 |       0.0000 |       0.0000 |       0.0000 |       0.0000 |       0.0000 |       0.0000 |       0.0000 |       0.0000 |       0.0000 |       0.0000 |       0.0000 |       0.0000 |       0.0000 |       0.0000 |       0.0000 |       0.0000 |       0.0000 |       0.0000 |       0.0000 |       0.0000 |       0.0000 |       0.0000 |
dl2.accesses                                  9796 |         9796 |         9768 |         9768 |        40172 |        40172 |        37121 |        37121 |       126155 |       126155 |       116967 |       116967 |       347977 |       347977 |       322945 |       322945 |       885232 |       885232 |       825804 |       825804 |      2143492 |      2143492 |      2007301 |      2007301 |      5020246 |      5020246 |      4721544 |      4721544 |     11474714 |     11474714 |     10827061 |     10827061 |     25776156 |     25776156 |     24385005 |     24385005 |     57106059 |     57106059 |     54162665 |     54162665 |    125143128 |    125143128 |    118962602 |    118962602 |
dl2.hits                                      8446 |         8446 |         8423 |         8423 |        38308 |        38308 |        35262 |        35262 |       123273 |       123273 |       114091 |       114091 |       343041 |       343041 |       318013 |       318013 |       876200 |       876200 |       816776 |       816776 |      2126270 |      2126270 |      1990083 |      1990083 |      4986639 |      4986639 |      4687941 |      4687941 |     11408339 |     11408196 |     10760690 |     10759864 |     25644102 |     24656725 |     24251983 |     23190948 |     54867199 |     51924938 |     51773465 |     49178426 |    114784599 |    108303058 |    108999194 |    102912785 |
dl2.misses                                    1350 |         1350 |         1345 |         1345 |         1864 |         1864 |         1859 |         1859 |         2882 |         2882 |         2876 |         2876 |         4936 |         4936 |         4932 |         4932 |         9032 |         9032 |         9028 |         9028 |        17222 |        17222 |        17218 |        17218 |        33607 |        33607 |        33603 |        33603 |        66375 |        66518 |        66371 |        67197 |       132054 |      1119431 |       133022 |      1194057 |      2238860 |      5181121 |      2389200 |      4984239 |     10358529 |     16840070 |      9963408 |     16049817 |
dl2.replacements                                44 |           44 |            0 |            0 |           47 |           47 |            0 |            0 |           49 |           49 |            0 |            0 |           46 |           46 |            0 |            0 |           46 |           46 |            0 |            0 |           46 |           46 |            0 |            0 |           46 |           46 |            0 |            0 |           46 |          982 |            0 |         1661 |          982 |      1053895 |         1950 |      1128521 |      2107788 |      5115585 |      2258128 |      4918703 |     10227457 |     16774534 |      9832336 |     15984281 |
dl2.writebacks                                   3 |            3 |            0 |            0 |            1 |            1 |            0 |            0 |            1 |            1 |            0 |            0 |            2 |            2 |            0 |            0 |            2 |            2 |            0 |            0 |            2 |            2 |            0 |            0 |            2 |            2 |            0 |            0 |            2 |          759 |            0 |         1472 |          759 |       906203 |         1762 |       977302 |      1811717 |      4348818 |      1956025 |      4151869 |      8695698 |     14103779 |      8299324 |     13290822 |
dl2.invalidations                                0 |            0 |            0 |            0 |            0 |            0 |            0 |            0 |            0 |            0 |            0 |            0 |            0 |            0 |            0 |            0 |            0 |            0 |            0 |            0 |            0 |            0 |            0 |            0 |            0 |            0 |            0 |            0 |            0 |            0 |            0 |            0 |            0 |            0 |            0 |            0 |            0 |            0 |            0 |            0 |            0 |            0 |            0 |            0 |
dl2.miss_rate                               0.1378 |       0.1378 |       0.1377 |       0.1377 |       0.0464 |       0.0464 |       0.0501 |       0.0501 |       0.0228 |       0.0228 |       0.0246 |       0.0246 |       0.0142 |       0.0142 |       0.0153 |       0.0153 |       0.0102 |       0.0102 |       0.0109 |       0.0109 |       0.0080 |       0.0080 |       0.0086 |       0.0086 |       0.0067 |       0.0067 |       0.0071 |       0.0071 |       0.0058 |       0.0058 |       0.0061 |       0.0062 |       0.0051 |       0.0434 |       0.0055 |       0.0490 |       0.0392 |       0.0907 |       0.0441 |       0.0920 |       0.0828 |       0.1346 |       0.0838 |       0.1349 |
dl2.repl_rate                               0.0045 |       0.0045 |       0.0000 |       0.0000 |       0.0012 |       0.0012 |       0.0000 |       0.0000 |       0.0004 |       0.0004 |       0.0000 |       0.0000 |       0.0001 |       0.0001 |       0.0000 |       0.0000 |       0.0001 |       0.0001 |       0.0000 |       0.0000 |       0.0000 |       0.0000 |       0.0000 |       0.0000 |       0.0000 |       0.0000 |       0.0000 |       0.0000 |       0.0000 |       0.0001 |       0.0000 |       0.0002 |       0.0000 |       0.0409 |       0.0001 |       0.0463 |       0.0369 |       0.0896 |       0.0417 |       0.0908 |       0.0817 |       0.1340 |       0.0827 |       0.1344 |
dl2.wb_rate                                 0.0003 |       0.0003 |       0.0000 |       0.0000 |       0.0000 |       0.0000 |       0.0000 |       0.0000 |       0.0000 |       0.0000 |       0.0000 |       0.0000 |       0.0000 |       0.0000 |       0.0000 |       0.0000 |       0.0000 |       0.0000 |       0.0000 |       0.0000 |       0.0000 |       0.0000 |       0.0000 |       0.0000 |       0.0000 |       0.0000 |       0.0000 |       0.0000 |       0.0000 |       0.0001 |       0.0000 |       0.0001 |       0.0000 |       0.0352 |       0.0001 |       0.0401 |       0.0317 |       0.0762 |       0.0361 |       0.0767 |       0.0695 |       0.1127 |       0.0698 |       0.1117 |
dl2.inv_rate                                0.0000 |       0.0000 |       0.0000 |       0.0000 |       0.0000 |       0.0000 |       0.0000 |       0.0000 |       0.0000 |       0.0000 |       0.0000 |       0.0000 |       0.0000 |       0.0000 |       0.0000 |       0.0000 |       0.0000 |       0.0000 |       0.0000 |       0.0000 |       0.0000 |       0.0000 |       0.0000 |       0.0000 |       0.0000 |       0.0000 |       0.0000 |       0.0000 |       0.0000 |       0.0000 |       0.0000 |       0.0000 |       0.0000 |       0.0000 |       0.0000 |       0.0000 |       0.0000 |       0.0000 |       0.0000 |       0.0000 |       0.0000 |       0.0000 |       0.0000 |       0.0000 |
itlb.accesses                               908385 |       908385 |       908385 |       908385 |      1970911 |      1970911 |      1970911 |      1970911 |      4251908 |      4251908 |      4251908 |      4251908 |      9138887 |      9138887 |      9138887 |      9138887 |     19544321 |     19544321 |     19544321 |     19544321 |     41639944 |     41639944 |     41639944 |     41639944 |     88379166 |     88379166 |     88379166 |     88379166 |    186988311 |    186988311 |    186988311 |    186988311 |    394397835 |    394397835 |    394397835 |    394397835 |    829705173 |    829705173 |    829705173 |    829705173 |   1741164383 |   1741164383 |   1741164383 |   1741164383 |
itlb.hits                                   908375 |       908375 |       908375 |       908375 |      1970901 |      1970901 |      1970901 |      1970901 |      4251898 |      4251898 |      4251898 |      4251898 |      9138877 |      9138877 |      9138877 |      9138877 |     19544311 |     19544311 |     19544311 |     19544311 |     41639934 |     41639934 |     41639934 |     41639934 |     88379156 |     88379156 |     88379156 |     88379156 |    186988301 |    186988301 |    186988301 |    186988301 |    394397825 |    394397825 |    394397825 |    394397825 |    829705163 |    829705163 |    829705163 |    829705163 |   1741164373 |   1741164373 |   1741164373 |   1741164373 |
itlb.misses                                     10 |           10 |           10 |           10 |           10 |           10 |           10 |           10 |           10 |           10 |           10 |           10 |           10 |           10 |           10 |           10 |           10 |           10 |           10 |           10 |           10 |           10 |           10 |           10 |           10 |           10 |           10 |           10 |           10 |           10 |           10 |           10 |           10 |           10 |           10 |           10 |           10 |           10 |           10 |           10 |           10 |           10 |           10 |           10 |
itlb.replacements                                0 |            0 |            0 |            0 |            0 |            0 |            0 |            0 |            0 |            0 |            0 |            0 |            0 |            0 |            0 |            0 |            0 |            0 |            0 |            0 |            0 |            0 |            0 |            0 |            0 |            0 |            0 |            0 |            0 |            0 |            0 |            0 |            0 |            0 |            0 |            0 |            0 |            0 |            0 |            0 |            0 |            0 |            0 |            0 |
itlb.writebacks                                  0 |            0 |            0 |            0 |            0 |            0 |            0 |            0 |            0 |            0 |            0 |            0 |            0 |            0 |            0 |            0 |            0 |            0 |            0 |            0 |            0 |            0 |            0 |            0 |            0 |            0 |            0 |            0 |            0 |            0 |            0 |            0 |            0 |            0 |            0 |            0 |            0 |            0 |            0 |            0 |            0 |            0 |            0 |            0 |
itlb.invalidations                               0 |            0 |            0 |            0 |            0 |            0 |            0 |            0 |            0 |            0 |            0 |            0 |            0 |            0 |            0 |            0 |            0 |            0 |            0 |            0 |            0 |            0 |            0 |            0 |            0 |            0 |            0 |            0 |            0 |            0 |            0 |            0 |            0 |            0 |            0 |            0 |            0 |            0 |            0 |            0 |            0 |            0 |            0 |            0 |
itlb.miss_rate                              0.0000 |       0.0000 |       0.0000 |       0.0000 |       0.0000 |       0.0000 |       0.0000 |       0.0000 |       0.0000 |       0.0000 |       0.0000 |       0.0000 |       0.0000 |       0.0000 |       0.0000 |       0.0000 |       0.0000 |       0.0000 |       0.0000 |       0.0000 |       0.0000 |       0.0000 |       0.0000 |       0.0000 |       0.0000 |       0.0000 |       0.0000 |       0.0000 |       0.0000 |       0.0000 |       0.0000 |       0.0000 |       0.0000 |       0.0000 |       0.0000 |       0.0000 |       0.0000 |       0.0000 |       0.0000 |       0.0000 |       0.0000 |       0.0000 |       0.0000 |       0.0000 |
itlb.repl_rate                              0.0000 |       0.0000 |       0.0000 |       0.0000 |       0.0000 |       0.0000 |       0.0000 |       0.0000 |       0.0000 |       0.0000 |       0.0000 |       0.0000 |       0.0000 |       0.0000 |       0.0000 |       0.0000 |       0.0000 |       0.0000 |       0.0000 |       0.0000 |       0.0000 |       0.0000 |       0.0000 |       0.0000 |       0.0000 |       0.0000 |       0.0000 |       0.0000 |       0.0000 |       0.0000 |       0.0000 |       0.0000 |       0.0000 |       0.0000 |       0.0000 |       0.0000 |       0.0000 |       0.0000 |       0.0000 |       0.0000 |       0.0000 |       0.0000 |       0.0000 |       0.0000 |
itlb.wb_rate                                0.0000 |       0.0000 |       0.0000 |       0.0000 |       0.0000 |       0.0000 |       0.0000 |       0.0000 |       0.0000 |       0.0000 |       0.0000 |       0.0000 |       0.0000 |       0.0000 |       0.0000 |       0.0000 |       0.0000 |       0.0000 |       0.0000 |       0.0000 |       0.0000 |       0.0000 |       0.0000 |       0.0000 |       0.0000 |       0.0000 |       0.0000 |       0.0000 |       0.0000 |       0.0000 |       0.0000 |       0.0000 |       0.0000 |       0.0000 |       0.0000 |       0.0000 |       0.0000 |       0.0000 |       0.0000 |       0.0000 |       0.0000 |       0.0000 |       0.0000 |       0.0000 |
itlb.inv_rate                               0.0000 |       0.0000 |       0.0000 |       0.0000 |       0.0000 |       0.0000 |       0.0000 |       0.0000 |       0.0000 |       0.0000 |       0.0000 |       0.0000 |       0.0000 |       0.0000 |       0.0000 |       0.0000 |       0.0000 |       0.0000 |       0.0000 |       0.0000 |       0.0000 |       0.0000 |       0.0000 |       0.0000 |       0.0000 |       0.0000 |       0.0000 |       0.0000 |       0.0000 |       0.0000 |       0.0000 |       0.0000 |       0.0000 |       0.0000 |       0.0000 |       0.0000 |       0.0000 |       0.0000 |       0.0000 |       0.0000 |       0.0000 |       0.0000 |       0.0000 |       0.0000 |
dtlb.accesses                               214660 |       214660 |       214660 |       214660 |       458479 |       458479 |       458479 |       458479 |       978347 |       978347 |       978347 |       978347 |      2084261 |      2084261 |      2084261 |      2084261 |      4425858 |      4425858 |      4425858 |      4425858 |      9372778 |      9372778 |      9372778 |      9372778 |     19788796 |     19788796 |     19788796 |     19788796 |     41673811 |     41673811 |     41673811 |     41673811 |     87534887 |     87534887 |     87534887 |     87534887 |    183458537 |    183458537 |    183458537 |    183458537 |    383684201 |    383684201 |    383684201 |    383684201 |
dtlb.hits                                   214649 |       214649 |       214649 |       214649 |       458464 |       458464 |       458464 |       458464 |       978324 |       978324 |       978324 |       978324 |      2084222 |      2084222 |      2084222 |      2084222 |      4425787 |      4425787 |      4425787 |      4425787 |      9372609 |      9372609 |      9372609 |      9372609 |     19681687 |     19681687 |     19681687 |     19681687 |     40973188 |     40973188 |     40973188 |     40973188 |     84933213 |     84933213 |     84933213 |     84933213 |    175694637 |    175694637 |    175694637 |    175694637 |    362975210 |    362975210 |    362975210 |    362975210 |
dtlb.misses                                     11 |           11 |           11 |           11 |           15 |           15 |           15 |           15 |           23 |           23 |           23 |           23 |           39 |           39 |           39 |           39 |           71 |           71 |           71 |           71 |          169 |          169 |          169 |          169 |       107109 |       107109 |       107109 |       107109 |       700623 |       700623 |       700623 |       700623 |      2601674 |      2601674 |      2601674 |      2601674 |      7763900 |      7763900 |      7763900 |      7763900 |     20708991 |     20708991 |     20708991 |     20708991 |
dtlb.replacements                                0 |            0 |            0 |            0 |            0 |            0 |            0 |            0 |            0 |            0 |            0 |            0 |            0 |            0 |            0 |            0 |            0 |            0 |            0 |            0 |           41 |           41 |           41 |           41 |       106981 |       106981 |       106981 |       106981 |       700495 |       700495 |       700495 |       700495 |      2601546 |      2601546 |      2601546 |      2601546 |      7763772 |      7763772 |      7763772 |      7763772 |     20708863 |     20708863 |     20708863 |     20708863 |
dtlb.writebacks                                  0 |            0 |            0 |            0 |            0 |            0 |            0 |            0 |            0 |            0 |            0 |            0 |            0 |            0 |            0 |            0 |            0 |            0 |            0 |            0 |           39 |           39 |           39 |           39 |       100164 |       100164 |       100164 |       100164 |       663986 |       663986 |       663986 |       663986 |      2491166 |      2491166 |      2491166 |      2491166 |      7492286 |      7492286 |      7492286 |      7492286 |     20104248 |     20104248 |     20104248 |     20104248 |
dtlb.invalidations                               0 |            0 |            0 |            0 |            0 |            0 |            0 |            0 |            0 |            0 |            0 |            0 |            0 |            0 |            0 |            0 |            0 |            0 |            0 |            0 |            0 |            0 |            0 |            0 |            0 |            0 |            0 |            0 |            0 |            0 |            0 |            0 |            0 |            0 |            0 |            0 |            0 |            0 |            0 |            0 |            0 |            0 |            0 |            0 |
dtlb.miss_rate                              0.0001 |       0.0001 |       0.0001 |       0.0001 |       0.0000 |       0.0000 |       0.0000 |       0.0000 |       0.0000 |       0.0000 |       0.0000 |       0.0000 |       0.0000 |       0.0000 |       0.0000 |       0.0000 |       0.0000 |       0.0000 |       0.0000 |       0.0000 |       0.0000 |       0.0000 |       0.0000 |       0.0000 |       0.0054 |       0.0054 |       0.0054 |       0.0054 |       0.0168 |       0.0168 |       0.0168 |       0.0168 |       0.0297 |       0.0297 |       0.0297 |       0.0297 |       0.0423 |       0.0423 |       0.0423 |       0.0423 |       0.0540 |       0.0540 |       0.0540 |       0.0540 |
dtlb.repl_rate                              0.0000 |       0.0000 |       0.0000 |       0.0000 |       0.0000 |       0.0000 |       0.0000 |       0.0000 |       0.0000 |       0.0000 |       0.0000 |       0.0000 |       0.0000 |       0.0000 |       0.0000 |       0.0000 |       0.0000 |       0.0000 |       0.0000 |       0.0000 |       0.0000 |       0.0000 |       0.0000 |       0.0000 |       0.0054 |       0.0054 |       0.0054 |       0.0054 |       0.0168 |       0.0168 |       0.0168 |       0.0168 |       0.0297 |       0.0297 |       0.0297 |       0.0297 |       0.0423 |       0.0423 |       0.0423 |       0.0423 |       0.0540 |       0.0540 |       0.0540 |       0.0540 |
dtlb.wb_rate                                0.0000 |       0.0000 |       0.0000 |       0.0000 |       0.0000 |       0.0000 |       0.0000 |       0.0000 |       0.0000 |       0.0000 |       0.0000 |       0.0000 |       0.0000 |       0.0000 |       0.0000 |       0.0000 |       0.0000 |       0.0000 |       0.0000 |       0.0000 |       0.0000 |       0.0000 |       0.0000 |       0.0000 |       0.0051 |       0.0051 |       0.0051 |       0.0051 |       0.0159 |       0.0159 |       0.0159 |       0.0159 |       0.0285 |       0.0285 |       0.0285 |       0.0285 |       0.0408 |       0.0408 |       0.0408 |       0.0408 |       0.0524 |       0.0524 |       0.0524 |       0.0524 |
dtlb.inv_rate                               0.0000 |       0.0000 |       0.0000 |       0.0000 |       0.0000 |       0.0000 |       0.0000 |       0.0000 |       0.0000 |       0.0000 |       0.0000 |       0.0000 |       0.0000 |       0.0000 |       0.0000 |       0.0000 |       0.0000 |       0.0000 |       0.0000 |       0.0000 |       0.0000 |       0.0000 |       0.0000 |       0.0000 |       0.0000 |       0.0000 |       0.0000 |       0.0000 |       0.0000 |       0.0000 |       0.0000 |       0.0000 |       0.0000 |       0.0000 |       0.0000 |       0.0000 |       0.0000 |       0.0000 |       0.0000 |       0.0000 |       0.0000 |       0.0000 |       0.0000 |       0.0000 |
ld_text_base                            0x00400000 |   0x00400000 |   0x00400000 |   0x00400000 |   0x00400000 |   0x00400000 |   0x00400000 |   0x00400000 |   0x00400000 |   0x00400000 |   0x00400000 |   0x00400000 |   0x00400000 |   0x00400000 |   0x00400000 |   0x00400000 |   0x00400000 |   0x00400000 |   0x00400000 |   0x00400000 |   0x00400000 |   0x00400000 |   0x00400000 |   0x00400000 |   0x00400000 |   0x00400000 |   0x00400000 |   0x00400000 |   0x00400000 |   0x00400000 |   0x00400000 |   0x00400000 |   0x00400000 |   0x00400000 |   0x00400000 |   0x00400000 |   0x00400000 |   0x00400000 |   0x00400000 |   0x00400000 |   0x00400000 |   0x00400000 |   0x00400000 |   0x00400000 |
ld_text_size                                 74736 |        74736 |        74736 |        74736 |        74768 |        74768 |        74768 |        74768 |        74784 |        74784 |        74784 |        74784 |        74800 |        74800 |        74800 |        74800 |        74800 |        74800 |        74800 |        74800 |        74800 |        74800 |        74800 |        74800 |        74800 |        74800 |        74800 |        74800 |        74800 |        74800 |        74800 |        74800 |        74800 |        74800 |        74800 |        74800 |        74800 |        74800 |        74800 |        74800 |        74800 |        74800 |        74800 |        74800 |
ld_data_base                            0x10000000 |   0x10000000 |   0x10000000 |   0x10000000 |   0x10000000 |   0x10000000 |   0x10000000 |   0x10000000 |   0x10000000 |   0x10000000 |   0x10000000 |   0x10000000 |   0x10000000 |   0x10000000 |   0x10000000 |   0x10000000 |   0x10000000 |   0x10000000 |   0x10000000 |   0x10000000 |   0x10000000 |   0x10000000 |   0x10000000 |   0x10000000 |   0x10000000 |   0x10000000 |   0x10000000 |   0x10000000 |   0x10000000 |   0x10000000 |   0x10000000 |   0x10000000 |   0x10000000 |   0x10000000 |   0x10000000 |   0x10000000 |   0x10000000 |   0x10000000 |   0x10000000 |   0x10000000 |   0x10000000 |   0x10000000 |   0x10000000 |   0x10000000 |
ld_data_size                                  8192 |         8192 |         8192 |         8192 |         8192 |         8192 |         8192 |         8192 |         8192 |         8192 |         8192 |         8192 |         8192 |         8192 |         8192 |         8192 |         8192 |         8192 |         8192 |         8192 |         8192 |         8192 |         8192 |         8192 |         8192 |         8192 |         8192 |         8192 |         8192 |         8192 |         8192 |         8192 |         8192 |         8192 |         8192 |         8192 |         8192 |         8192 |         8192 |         8192 |         8192 |         8192 |         8192 |         8192 |
ld_stack_base                           0x7fffc000 |   0x7fffc000 |   0x7fffc000 |   0x7fffc000 |   0x7fffc000 |   0x7fffc000 |   0x7fffc000 |   0x7fffc000 |   0x7fffc000 |   0x7fffc000 |   0x7fffc000 |   0x7fffc000 |   0x7fffc000 |   0x7fffc000 |   0x7fffc000 |   0x7fffc000 |   0x7fffc000 |   0x7fffc000 |   0x7fffc000 |   0x7fffc000 |   0x7fffc000 |   0x7fffc000 |   0x7fffc000 |   0x7fffc000 |   0x7fffc000 |   0x7fffc000 |   0x7fffc000 |   0x7fffc000 |   0x7fffc000 |   0x7fffc000 |   0x7fffc000 |   0x7fffc000 |   0x7fffc000 |   0x7fffc000 |   0x7fffc000 |   0x7fffc000 |   0x7fffc000 |   0x7fffc000 |   0x7fffc000 |   0x7fffc000 |   0x7fffc000 |   0x7fffc000 |   0x7fffc000 |   0x7fffc000 |
ld_stack_size                                16384 |        16384 |        16384 |        16384 |        16384 |        16384 |        16384 |        16384 |        16384 |        16384 |        16384 |        16384 |        16384 |        16384 |        16384 |        16384 |        16384 |        16384 |        16384 |        16384 |        16384 |        16384 |        16384 |        16384 |        16384 |        16384 |        16384 |        16384 |        16384 |        16384 |        16384 |        16384 |        16384 |        16384 |        16384 |        16384 |        16384 |        16384 |        16384 |        16384 |        16384 |        16384 |        16384 |        16384 |
ld_prog_entry                           0x00400140 |   0x00400140 |   0x00400140 |   0x00400140 |   0x00400140 |   0x00400140 |   0x00400140 |   0x00400140 |   0x00400140 |   0x00400140 |   0x00400140 |   0x00400140 |   0x00400140 |   0x00400140 |   0x00400140 |   0x00400140 |   0x00400140 |   0x00400140 |   0x00400140 |   0x00400140 |   0x00400140 |   0x00400140 |   0x00400140 |   0x00400140 |   0x00400140 |   0x00400140 |   0x00400140 |   0x00400140 |   0x00400140 |   0x00400140 |   0x00400140 |   0x00400140 |   0x00400140 |   0x00400140 |   0x00400140 |   0x00400140 |   0x00400140 |   0x00400140 |   0x00400140 |   0x00400140 |   0x00400140 |   0x00400140 |   0x00400140 |   0x00400140 |
ld_environ_base                         0x7fff8000 |   0x7fff8000 |   0x7fff8000 |   0x7fff8000 |   0x7fff8000 |   0x7fff8000 |   0x7fff8000 |   0x7fff8000 |   0x7fff8000 |   0x7fff8000 |   0x7fff8000 |   0x7fff8000 |   0x7fff8000 |   0x7fff8000 |   0x7fff8000 |   0x7fff8000 |   0x7fff8000 |   0x7fff8000 |   0x7fff8000 |   0x7fff8000 |   0x7fff8000 |   0x7fff8000 |   0x7fff8000 |   0x7fff8000 |   0x7fff8000 |   0x7fff8000 |   0x7fff8000 |   0x7fff8000 |   0x7fff8000 |   0x7fff8000 |   0x7fff8000 |   0x7fff8000 |   0x7fff8000 |   0x7fff8000 |   0x7fff8000 |   0x7fff8000 |   0x7fff8000 |   0x7fff8000 |   0x7fff8000 |   0x7fff8000 |   0x7fff8000 |   0x7fff8000 |   0x7fff8000 |   0x7fff8000 |
ld_target_big_endian                             0 |            0 |            0 |            0 |            0 |            0 |            0 |            0 |            0 |            0 |            0 |            0 |            0 |            0 |            0 |            0 |            0 |            0 |            0 |            0 |            0 |            0 |            0 |            0 |            0 |            0 |            0 |            0 |            0 |            0 |            0 |            0 |            0 |            0 |            0 |            0 |            0 |            0 |            0 |            0 |            0 |            0 |            0 |            0 |
mem.page_count                                  30 |           30 |           30 |           30 |           34 |           34 |           34 |           34 |           42 |           42 |           42 |           42 |           58 |           58 |           58 |           58 |           90 |           90 |           90 |           90 |          154 |          154 |          154 |          154 |          282 |          282 |          282 |          282 |          538 |          538 |          538 |          538 |         1050 |         1050 |         1050 |         1050 |         2074 |         2074 |         2074 |         2074 |         4122 |         4122 |         4122 |         4122 |
mem.page_mem                                  120k |         120k |         120k |         120k |         136k |         136k |         136k |         136k |         168k |         168k |         168k |         168k |         232k |         232k |         232k |         232k |         360k |         360k |         360k |         360k |         616k |         616k |         616k |         616k |        1128k |        1128k |        1128k |        1128k |        2152k |        2152k |        2152k |        2152k |        4200k |        4200k |        4200k |        4200k |        8296k |        8296k |        8296k |        8296k |       16488k |       16488k |       16488k |       16488k |
mem.ptab_misses                                 30 |           30 |           30 |           30 |           34 |           34 |           34 |           34 |           42 |           42 |           42 |           42 |           58 |           58 |           58 |           58 |           90 |           90 |           90 |           90 |          154 |          154 |          154 |          154 |          282 |          282 |          282 |          282 |          538 |          538 |          538 |          538 |         1050 |         1050 |         1050 |         1050 |         2074 |         2074 |         2074 |         2074 |         4122 |         4122 |         4122 |         4122 |
mem.ptab_accesses                          4525854 |      4525854 |      4525854 |      4525854 |      9263788 |      9263788 |      9263788 |      9263788 |     19427608 |     19427608 |     19427608 |     19427608 |     41187448 |     41187448 |     41187448 |     41187448 |     87492378 |     87492378 |     87492378 |     87492378 |    185768710 |    185768710 |    185768710 |    185768710 |    393557634 |    393557634 |    393557634 |    393557634 |    831764244 |    831764244 |    831764244 |    831764244 |   1753124492 |   1753124492 |   1753124492 |   1753124492 |   3686201144 |   3686201144 |   3686201144 |   3686201144 |   7732489312 |   7732489312 |   7732489312 |   7732489312 |
mem.ptab_miss_rate                          0.0000 |       0.0000 |       0.0000 |       0.0000 |       0.0000 |       0.0000 |       0.0000 |       0.0000 |       0.0000 |       0.0000 |       0.0000 |       0.0000 |       0.0000 |       0.0000 |       0.0000 |       0.0000 |       0.0000 |       0.0000 |       0.0000 |       0.0000 |       0.0000 |       0.0000 |       0.0000 |       0.0000 |       0.0000 |       0.0000 |       0.0000 |       0.0000 |       0.0000 |       0.0000 |       0.0000 |       0.0000 |       0.0000 |       0.0000 |       0.0000 |       0.0000 |       0.0000 |       0.0000 |       0.0000 |       0.0000 |       0.0000 |       0.0000 |       0.0000 |       0.0000 |
-------------------------------------------------------------------------------------------------
sim-bpred                                     4096 |         4096 |         4096 |         4096 |         4096 |         4096 |         4096 |         8192 |         8192 |         8192 |         8192 |         8192 |         8192 |         8192 |        16384 |        16384 |        16384 |        16384 |        16384 |        16384 |        16384 |        32768 |        32768 |        32768 |        32768 |        32768 |        32768 |        32768 |        65536 |        65536 |        65536 |        65536 |        65536 |        65536 |        65536 |       131072 |       131072 |       131072 |       131072 |       131072 |       131072 |       131072 |       262144 |       262144 |       262144 |       262144 |       262144 |       262144 |       262144 |       524288 |       524288 |       524288 |       524288 |       524288 |       524288 |       524288 |      1048576 |      1048576 |      1048576 |      1048576 |      1048576 |      1048576 |      1048576 |      2097152 |      2097152 |      2097152 |      2097152 |      2097152 |      2097152 |      2097152 |      4194304 |      4194304 |      4194304 |      4194304 |      4194304 |      4194304 |      4194304 |
-bpred bimod -bpred:bimod 512
-bpred bimod -bpred:bimod 1024
-bpred bimod -bpred:bimod 2048
-bpred 2lev -bpred:2lev 1 512 10 1
-bpred 2lev -bpred:2lev 1 1024 10 1
-bpred 2lev -bpred:2lev 1 2048 10 1
-bpred 2lev -bpred:2lev 1 4096 10 1
-------------------------------------------------------------------------------------------------
sim_num_insn                                908385 |       908385 |       908385 |       908385 |       908385 |       908385 |       908385 |      1970911 |      1970911 |      1970911 |      1970911 |      1970911 |      1970911 |      1970911 |      4251908 |      4251908 |      4251908 |      4251908 |      4251908 |      4251908 |      4251908 |      9138887 |      9138887 |      9138887 |      9138887 |      9138887 |      9138887 |      9138887 |     19544321 |     19544321 |     19544321 |     19544321 |     19544321 |     19544321 |     19544321 |     41639944 |     41639944 |     41639944 |     41639944 |     41639944 |     41639944 |     41639944 |     88379166 |     88379166 |     88379166 |     88379166 |     88379166 |     88379166 |     88379166 |    186988311 |    186988311 |    186988311 |    186988311 |    186988311 |    186988311 |    186988311 |    394397835 |    394397835 |    394397835 |    394397835 |    394397835 |    394397835 |    394397835 |    829705173 |    829705173 |    829705173 |    829705173 |    829705173 |    829705173 |    829705173 |   1741164383 |   1741164383 |   1741164383 |   1741164383 |   1741164383 |   1741164383 |   1741164383 |
sim_num_refs                                198194 |       198194 |       198194 |       198194 |       198194 |       198194 |       198194 |       425629 |       425629 |       425629 |       425629 |       425629 |       425629 |       425629 |       912729 |       912729 |       912729 |       912729 |       912729 |       912729 |       912729 |      1953107 |      1953107 |      1953107 |      1953107 |      1953107 |      1953107 |      1953107 |      4163632 |      4163632 |      4163632 |      4163632 |      4163632 |      4163632 |      4163632 |      8848408 |      8848408 |      8848408 |      8848408 |      8848408 |      8848408 |      8848408 |     18740138 |     18740138 |     18740138 |     18740138 |     18740138 |     18740138 |     18740138 |     39576577 |     39576577 |     39576577 |     39576577 |     39576577 |     39576577 |     39576577 |     83340501 |     83340501 |     83340501 |     83340501 |     83340501 |     83340501 |     83340501 |    175069847 |    175069847 |    175069847 |    175069847 |    175069847 |    175069847 |    175069847 |    366906903 |    366906903 |    366906903 |    366906903 |    366906903 |    366906903 |    366906903 |
sim_elapsed_time                                 1 |            1 |            1 |            1 |            1 |            1 |            1 |            1 |            1 |            1 |            1 |            1 |            1 |            1 |            1 |            1 |            1 |            1 |            1 |            1 |            1 |            1 |            1 |            1 |            1 |            1 |            1 |            1 |            2 |            3 |            2 |            2 |            2 |            3 |            2 |            4 |            5 |            5 |            5 |            4 |            5 |            5 |           10 |           10 |           10 |           10 |           10 |           10 |           10 |           21 |           21 |           22 |           21 |           21 |           21 |           21 |           45 |           45 |           45 |           45 |           45 |           46 |           45 |           95 |           95 |           96 |           95 |           96 |           96 |           96 |          201 |          201 |          202 |          201 |          204 |          203 |          204 |
sim_inst_rate                          908385.0000 |  908385.0000 |  908385.0000 |  908385.0000 |  908385.0000 |  908385.0000 |  908385.0000 | 1970911.0000 | 1970911.0000 | 1970911.0000 | 1970911.0000 | 1970911.0000 | 1970911.0000 | 1970911.0000 | 4251908.0000 | 4251908.0000 | 4251908.0000 | 4251908.0000 | 4251908.0000 | 4251908.0000 | 4251908.0000 | 9138887.0000 | 9138887.0000 | 9138887.0000 | 9138887.0000 | 9138887.0000 | 9138887.0000 | 9138887.0000 | 9772160.5000 | 6514773.6667 | 9772160.5000 | 9772160.5000 | 9772160.5000 | 6514773.6667 | 9772160.5000 |10409986.0000 | 8327988.8000 | 8327988.8000 | 8327988.8000 |10409986.0000 | 8327988.8000 | 8327988.8000 | 8837916.6000 | 8837916.6000 | 8837916.6000 | 8837916.6000 | 8837916.6000 | 8837916.6000 | 8837916.6000 | 8904205.2857 | 8904205.2857 | 8499468.6818 | 8904205.2857 | 8904205.2857 | 8904205.2857 | 8904205.2857 | 8764396.3333 | 8764396.3333 | 8764396.3333 | 8764396.3333 | 8764396.3333 | 8573865.9783 | 8764396.3333 | 8733738.6632 | 8733738.6632 | 8642762.2188 | 8733738.6632 | 8642762.2188 | 8642762.2188 | 8642762.2188 | 8662509.3682 | 8662509.3682 | 8619625.6584 | 8662509.3682 | 8535119.5245 | 8577164.4483 | 8535119.5245 |
sim_num_branches                            177016 |       177016 |       177016 |       177016 |       177016 |       177016 |       177016 |       386198 |       386198 |       386198 |       386198 |       386198 |       386198 |       386198 |       836462 |       836462 |       836462 |       836462 |       836462 |       836462 |       836462 |      1803706 |      1803706 |      1803706 |      1803706 |      1803706 |      1803706 |      1803706 |      3867652 |      3867652 |      3867652 |      3867652 |      3867652 |      3867652 |      3867652 |      8259068 |      8259068 |      8259068 |      8259068 |      8259068 |      8259068 |      8259068 |     17564712 |     17564712 |     17564712 |     17564712 |     17564712 |     17564712 |     17564712 |     37228614 |     37228614 |     37228614 |     37228614 |     37228614 |     37228614 |     37228614 |     78646266 |     78646266 |     78646266 |     78646266 |     78646266 |     78646266 |     78646266 |    165684762 |    165684762 |    165684762 |    165684762 |    165684762 |    165684762 |    165684762 |    348139886 |    348139886 |    348139886 |    348139886 |    348139886 |    348139886 |    348139886 |
sim_IPB                                     5.1317 |       5.1317 |       5.1317 |       5.1317 |       5.1317 |       5.1317 |       5.1317 |       5.1034 |       5.1034 |       5.1034 |       5.1034 |       5.1034 |       5.1034 |       5.1034 |       5.0832 |       5.0832 |       5.0832 |       5.0832 |       5.0832 |       5.0832 |       5.0832 |       5.0667 |       5.0667 |       5.0667 |       5.0667 |       5.0667 |       5.0667 |       5.0667 |       5.0533 |       5.0533 |       5.0533 |       5.0533 |       5.0533 |       5.0533 |       5.0533 |       5.0417 |       5.0417 |       5.0417 |       5.0417 |       5.0417 |       5.0417 |       5.0417 |       5.0316 |       5.0316 |       5.0316 |       5.0316 |       5.0316 |       5.0316 |       5.0316 |       5.0227 |       5.0227 |       5.0227 |       5.0227 |       5.0227 |       5.0227 |       5.0227 |       5.0148 |       5.0148 |       5.0148 |       5.0148 |       5.0148 |       5.0148 |       5.0148 |       5.0077 |       5.0077 |       5.0077 |       5.0077 |       5.0077 |       5.0077 |       5.0077 |       5.0013 |       5.0013 |       5.0013 |       5.0013 |       5.0013 |       5.0013 |       5.0013 |
bpred_bimod.lookups                         177016 |       177016 |       177016 |xxxxxxxxxxxxx |xxxxxxxxxxxxx |xxxxxxxxxxxxx |xxxxxxxxxxxxx |       386198 |       386198 |       386198 |xxxxxxxxxxxxx |xxxxxxxxxxxxx |xxxxxxxxxxxxx |xxxxxxxxxxxxx |       836462 |       836462 |       836462 |xxxxxxxxxxxxx |xxxxxxxxxxxxx |xxxxxxxxxxxxx |xxxxxxxxxxxxx |      1803706 |      1803706 |      1803706 |xxxxxxxxxxxxx |xxxxxxxxxxxxx |xxxxxxxxxxxxx |xxxxxxxxxxxxx |      3867652 |      3867652 |      3867652 |xxxxxxxxxxxxx |xxxxxxxxxxxxx |xxxxxxxxxxxxx |xxxxxxxxxxxxx |      8259068 |      8259068 |      8259068 |xxxxxxxxxxxxx |xxxxxxxxxxxxx |xxxxxxxxxxxxx |xxxxxxxxxxxxx |     17564712 |     17564712 |     17564712 |xxxxxxxxxxxxx |xxxxxxxxxxxxx |xxxxxxxxxxxxx |xxxxxxxxxxxxx |     37228614 |     37228614 |     37228614 |xxxxxxxxxxxxx |xxxxxxxxxxxxx |xxxxxxxxxxxxx |xxxxxxxxxxxxx |     78646266 |     78646266 |     78646266 |xxxxxxxxxxxxx |xxxxxxxxxxxxx |xxxxxxxxxxxxx |xxxxxxxxxxxxx |    165684762 |    165684762 |    165684762 |xxxxxxxxxxxxx |xxxxxxxxxxxxx |xxxxxxxxxxxxx |xxxxxxxxxxxxx |    348139886 |    348139886 |    348139886 |
bpred_bimod.updates                         177016 |       177016 |       177016 |xxxxxxxxxxxxx |xxxxxxxxxxxxx |xxxxxxxxxxxxx |xxxxxxxxxxxxx |       386198 |       386198 |       386198 |xxxxxxxxxxxxx |xxxxxxxxxxxxx |xxxxxxxxxxxxx |xxxxxxxxxxxxx |       836462 |       836462 |       836462 |xxxxxxxxxxxxx |xxxxxxxxxxxxx |xxxxxxxxxxxxx |xxxxxxxxxxxxx |      1803706 |      1803706 |      1803706 |xxxxxxxxxxxxx |xxxxxxxxxxxxx |xxxxxxxxxxxxx |xxxxxxxxxxxxx |      3867652 |      3867652 |      3867652 |xxxxxxxxxxxxx |xxxxxxxxxxxxx |xxxxxxxxxxxxx |xxxxxxxxxxxxx |      8259068 |      8259068 |      8259068 |xxxxxxxxxxxxx |xxxxxxxxxxxxx |xxxxxxxxxxxxx |xxxxxxxxxxxxx |     17564712 |     17564712 |     17564712 |xxxxxxxxxxxxx |xxxxxxxxxxxxx |xxxxxxxxxxxxx |xxxxxxxxxxxxx |     37228614 |     37228614 |     37228614 |xxxxxxxxxxxxx |xxxxxxxxxxxxx |xxxxxxxxxxxxx |xxxxxxxxxxxxx |     78646266 |     78646266 |     78646266 |xxxxxxxxxxxxx |xxxxxxxxxxxxx |xxxxxxxxxxxxx |xxxxxxxxxxxxx |    165684762 |    165684762 |    165684762 |xxxxxxxxxxxxx |xxxxxxxxxxxxx |xxxxxxxxxxxxx |xxxxxxxxxxxxx |    348139886 |    348139886 |    348139886 |
bpred_bimod.addr_hits                       149212 |       149219 |       149219 |xxxxxxxxxxxxx |xxxxxxxxxxxxx |xxxxxxxxxxxxx |xxxxxxxxxxxxx |       326500 |       326504 |       326504 |xxxxxxxxxxxxx |xxxxxxxxxxxxx |xxxxxxxxxxxxx |xxxxxxxxxxxxx |       709126 |       709128 |       709128 |xxxxxxxxxxxxx |xxxxxxxxxxxxx |xxxxxxxxxxxxx |xxxxxxxxxxxxx |      1532775 |      1532778 |      1532779 |xxxxxxxxxxxxx |xxxxxxxxxxxxx |xxxxxxxxxxxxx |xxxxxxxxxxxxx |      3293284 |      3293288 |      3293289 |xxxxxxxxxxxxx |xxxxxxxxxxxxx |xxxxxxxxxxxxx |xxxxxxxxxxxxx |      7046288 |      7046288 |      7046290 |xxxxxxxxxxxxx |xxxxxxxxxxxxx |xxxxxxxxxxxxx |xxxxxxxxxxxxx |     15007471 |     15007476 |     15007477 |xxxxxxxxxxxxx |xxxxxxxxxxxxx |xxxxxxxxxxxxx |xxxxxxxxxxxxx |     31853630 |     31853632 |     31853633 |xxxxxxxxxxxxx |xxxxxxxxxxxxx |xxxxxxxxxxxxx |xxxxxxxxxxxxx |     67369719 |     67369721 |     67369722 |xxxxxxxxxxxxx |xxxxxxxxxxxxx |xxxxxxxxxxxxx |xxxxxxxxxxxxx |    142085856 |    142085856 |    142085857 |xxxxxxxxxxxxx |xxxxxxxxxxxxx |xxxxxxxxxxxxx |xxxxxxxxxxxxx |    298845447 |    298845448 |    298845449 |
bpred_bimod.dir_hits                        149324 |       149329 |       149329 |xxxxxxxxxxxxx |xxxxxxxxxxxxx |xxxxxxxxxxxxx |xxxxxxxxxxxxx |       326610 |       326614 |       326613 |xxxxxxxxxxxxx |xxxxxxxxxxxxx |xxxxxxxxxxxxx |xxxxxxxxxxxxx |       709238 |       709238 |       709238 |xxxxxxxxxxxxx |xxxxxxxxxxxxx |xxxxxxxxxxxxx |xxxxxxxxxxxxx |      1532889 |      1532891 |      1532890 |xxxxxxxxxxxxx |xxxxxxxxxxxxx |xxxxxxxxxxxxx |xxxxxxxxxxxxx |      3293394 |      3293398 |      3293397 |xxxxxxxxxxxxx |xxxxxxxxxxxxx |xxxxxxxxxxxxx |xxxxxxxxxxxxx |      7046399 |      7046398 |      7046399 |xxxxxxxxxxxxx |xxxxxxxxxxxxx |xxxxxxxxxxxxx |xxxxxxxxxxxxx |     15007585 |     15007589 |     15007589 |xxxxxxxxxxxxx |xxxxxxxxxxxxx |xxxxxxxxxxxxx |xxxxxxxxxxxxx |     31853745 |     31853745 |     31853745 |xxxxxxxxxxxxx |xxxxxxxxxxxxx |xxxxxxxxxxxxx |xxxxxxxxxxxxx |     67369832 |     67369833 |     67369833 |xxxxxxxxxxxxx |xxxxxxxxxxxxx |xxxxxxxxxxxxx |xxxxxxxxxxxxx |    142085966 |    142085966 |    142085966 |xxxxxxxxxxxxx |xxxxxxxxxxxxx |xxxxxxxxxxxxx |xxxxxxxxxxxxx |    298845560 |    298845561 |    298845560 |
bpred_bimod.misses                           27692 |        27687 |        27687 |xxxxxxxxxxxxx |xxxxxxxxxxxxx |xxxxxxxxxxxxx |xxxxxxxxxxxxx |        59588 |        59584 |        59585 |xxxxxxxxxxxxx |xxxxxxxxxxxxx |xxxxxxxxxxxxx |xxxxxxxxxxxxx |       127224 |       127224 |       127224 |xxxxxxxxxxxxx |xxxxxxxxxxxxx |xxxxxxxxxxxxx |xxxxxxxxxxxxx |       270817 |       270815 |       270816 |xxxxxxxxxxxxx |xxxxxxxxxxxxx |xxxxxxxxxxxxx |xxxxxxxxxxxxx |       574258 |       574254 |       574255 |xxxxxxxxxxxxx |xxxxxxxxxxxxx |xxxxxxxxxxxxx |xxxxxxxxxxxxx |      1212669 |      1212670 |      1212669 |xxxxxxxxxxxxx |xxxxxxxxxxxxx |xxxxxxxxxxxxx |xxxxxxxxxxxxx |      2557127 |      2557123 |      2557123 |xxxxxxxxxxxxx |xxxxxxxxxxxxx |xxxxxxxxxxxxx |xxxxxxxxxxxxx |      5374869 |      5374869 |      5374869 |xxxxxxxxxxxxx |xxxxxxxxxxxxx |xxxxxxxxxxxxx |xxxxxxxxxxxxx |     11276434 |     11276433 |     11276433 |xxxxxxxxxxxxx |xxxxxxxxxxxxx |xxxxxxxxxxxxx |xxxxxxxxxxxxx |     23598796 |     23598796 |     23598796 |xxxxxxxxxxxxx |xxxxxxxxxxxxx |xxxxxxxxxxxxx |xxxxxxxxxxxxx |     49294326 |     49294325 |     49294326 |
bpred_bimod.jr_hits                             57 |           57 |           57 |xxxxxxxxxxxxx |xxxxxxxxxxxxx |xxxxxxxxxxxxx |xxxxxxxxxxxxx |           57 |           57 |           57 |xxxxxxxxxxxxx |xxxxxxxxxxxxx |xxxxxxxxxxxxx |xxxxxxxxxxxxx |           57 |           57 |           57 |xxxxxxxxxxxxx |xxxxxxxxxxxxx |xxxxxxxxxxxxx |xxxxxxxxxxxxx |           57 |           57 |           57 |xxxxxxxxxxxxx |xxxxxxxxxxxxx |xxxxxxxxxxxxx |xxxxxxxxxxxxx |           57 |           57 |           57 |xxxxxxxxxxxxx |xxxxxxxxxxxxx |xxxxxxxxxxxxx |xxxxxxxxxxxxx |           57 |           57 |           57 |xxxxxxxxxxxxx |xxxxxxxxxxxxx |xxxxxxxxxxxxx |xxxxxxxxxxxxx |           57 |           57 |           57 |xxxxxxxxxxxxx |xxxxxxxxxxxxx |xxxxxxxxxxxxx |xxxxxxxxxxxxx |           57 |           57 |           57 |xxxxxxxxxxxxx |xxxxxxxxxxxxx |xxxxxxxxxxxxx |xxxxxxxxxxxxx |           57 |           57 |           57 |xxxxxxxxxxxxx |xxxxxxxxxxxxx |xxxxxxxxxxxxx |xxxxxxxxxxxxx |           57 |           57 |           57 |xxxxxxxxxxxxx |xxxxxxxxxxxxx |xxxxxxxxxxxxx |xxxxxxxxxxxxx |           57 |           57 |           57 |
bpred_bimod.jr_seen                             58 |           58 |           58 |xxxxxxxxxxxxx |xxxxxxxxxxxxx |xxxxxxxxxxxxx |xxxxxxxxxxxxx |           58 |           58 |           58 |xxxxxxxxxxxxx |xxxxxxxxxxxxx |xxxxxxxxxxxxx |xxxxxxxxxxxxx |           58 |           58 |           58 |xxxxxxxxxxxxx |xxxxxxxxxxxxx |xxxxxxxxxxxxx |xxxxxxxxxxxxx |           58 |           58 |           58 |xxxxxxxxxxxxx |xxxxxxxxxxxxx |xxxxxxxxxxxxx |xxxxxxxxxxxxx |           58 |           58 |           58 |xxxxxxxxxxxxx |xxxxxxxxxxxxx |xxxxxxxxxxxxx |xxxxxxxxxxxxx |           58 |           58 |           58 |xxxxxxxxxxxxx |xxxxxxxxxxxxx |xxxxxxxxxxxxx |xxxxxxxxxxxxx |           58 |           58 |           58 |xxxxxxxxxxxxx |xxxxxxxxxxxxx |xxxxxxxxxxxxx |xxxxxxxxxxxxx |           58 |           58 |           58 |xxxxxxxxxxxxx |xxxxxxxxxxxxx |xxxxxxxxxxxxx |xxxxxxxxxxxxx |           58 |           58 |           58 |xxxxxxxxxxxxx |xxxxxxxxxxxxx |xxxxxxxxxxxxx |xxxxxxxxxxxxx |           58 |           58 |           58 |xxxxxxxxxxxxx |xxxxxxxxxxxxx |xxxxxxxxxxxxx |xxxxxxxxxxxxx |           58 |           58 |           58 |
bpred_bimod.jr_non_ras_hits.PP                   0 |            0 |            0 |xxxxxxxxxxxxx |xxxxxxxxxxxxx |xxxxxxxxxxxxx |xxxxxxxxxxxxx |            0 |            0 |            0 |xxxxxxxxxxxxx |xxxxxxxxxxxxx |xxxxxxxxxxxxx |xxxxxxxxxxxxx |            0 |            0 |            0 |xxxxxxxxxxxxx |xxxxxxxxxxxxx |xxxxxxxxxxxxx |xxxxxxxxxxxxx |            0 |            0 |            0 |xxxxxxxxxxxxx |xxxxxxxxxxxxx |xxxxxxxxxxxxx |xxxxxxxxxxxxx |            0 |            0 |            0 |xxxxxxxxxxxxx |xxxxxxxxxxxxx |xxxxxxxxxxxxx |xxxxxxxxxxxxx |            0 |            0 |            0 |xxxxxxxxxxxxx |xxxxxxxxxxxxx |xxxxxxxxxxxxx |xxxxxxxxxxxxx |            0 |            0 |            0 |xxxxxxxxxxxxx |xxxxxxxxxxxxx |xxxxxxxxxxxxx |xxxxxxxxxxxxx |            0 |            0 |            0 |xxxxxxxxxxxxx |xxxxxxxxxxxxx |xxxxxxxxxxxxx |xxxxxxxxxxxxx |            0 |            0 |            0 |xxxxxxxxxxxxx |xxxxxxxxxxxxx |xxxxxxxxxxxxx |xxxxxxxxxxxxx |            0 |            0 |            0 |xxxxxxxxxxxxx |xxxxxxxxxxxxx |xxxxxxxxxxxxx |xxxxxxxxxxxxx |            0 |            0 |            0 |
bpred_bimod.jr_non_ras_seen.PP                   0 |            0 |            0 |xxxxxxxxxxxxx |xxxxxxxxxxxxx |xxxxxxxxxxxxx |xxxxxxxxxxxxx |            0 |            0 |            0 |xxxxxxxxxxxxx |xxxxxxxxxxxxx |xxxxxxxxxxxxx |xxxxxxxxxxxxx |            0 |            0 |            0 |xxxxxxxxxxxxx |xxxxxxxxxxxxx |xxxxxxxxxxxxx |xxxxxxxxxxxxx |            0 |            0 |            0 |xxxxxxxxxxxxx |xxxxxxxxxxxxx |xxxxxxxxxxxxx |xxxxxxxxxxxxx |            0 |            0 |            0 |xxxxxxxxxxxxx |xxxxxxxxxxxxx |xxxxxxxxxxxxx |xxxxxxxxxxxxx |            0 |            0 |            0 |xxxxxxxxxxxxx |xxxxxxxxxxxxx |xxxxxxxxxxxxx |xxxxxxxxxxxxx |            0 |            0 |            0 |xxxxxxxxxxxxx |xxxxxxxxxxxxx |xxxxxxxxxxxxx |xxxxxxxxxxxxx |            0 |            0 |            0 |xxxxxxxxxxxxx |xxxxxxxxxxxxx |xxxxxxxxxxxxx |xxxxxxxxxxxxx |            0 |            0 |            0 |xxxxxxxxxxxxx |xxxxxxxxxxxxx |xxxxxxxxxxxxx |xxxxxxxxxxxxx |            0 |            0 |            0 |xxxxxxxxxxxxx |xxxxxxxxxxxxx |xxxxxxxxxxxxx |xxxxxxxxxxxxx |            0 |            0 |            0 |
bpred_bimod.bpred_addr_rate                 0.8429 |       0.8430 |       0.8430 |xxxxxxxxxxxxx |xxxxxxxxxxxxx |xxxxxxxxxxxxx |xxxxxxxxxxxxx |       0.8454 |       0.8454 |       0.8454 |xxxxxxxxxxxxx |xxxxxxxxxxxxx |xxxxxxxxxxxxx |xxxxxxxxxxxxx |       0.8478 |       0.8478 |       0.8478 |xxxxxxxxxxxxx |xxxxxxxxxxxxx |xxxxxxxxxxxxx |xxxxxxxxxxxxx |       0.8498 |       0.8498 |       0.8498 |xxxxxxxxxxxxx |xxxxxxxxxxxxx |xxxxxxxxxxxxx |xxxxxxxxxxxxx |       0.8515 |       0.8515 |       0.8515 |xxxxxxxxxxxxx |xxxxxxxxxxxxx |xxxxxxxxxxxxx |xxxxxxxxxxxxx |       0.8532 |       0.8532 |       0.8532 |xxxxxxxxxxxxx |xxxxxxxxxxxxx |xxxxxxxxxxxxx |xxxxxxxxxxxxx |       0.8544 |       0.8544 |       0.8544 |xxxxxxxxxxxxx |xxxxxxxxxxxxx |xxxxxxxxxxxxx |xxxxxxxxxxxxx |       0.8556 |       0.8556 |       0.8556 |xxxxxxxxxxxxx |xxxxxxxxxxxxx |xxxxxxxxxxxxx |xxxxxxxxxxxxx |       0.8566 |       0.8566 |       0.8566 |xxxxxxxxxxxxx |xxxxxxxxxxxxx |xxxxxxxxxxxxx |xxxxxxxxxxxxx |       0.8576 |       0.8576 |       0.8576 |xxxxxxxxxxxxx |xxxxxxxxxxxxx |xxxxxxxxxxxxx |xxxxxxxxxxxxx |       0.8584 |       0.8584 |       0.8584 |
bpred_bimod.bpred_dir_rate                  0.8436 |       0.8436 |       0.8436 |xxxxxxxxxxxxx |xxxxxxxxxxxxx |xxxxxxxxxxxxx |xxxxxxxxxxxxx |       0.8457 |       0.8457 |       0.8457 |xxxxxxxxxxxxx |xxxxxxxxxxxxx |xxxxxxxxxxxxx |xxxxxxxxxxxxx |       0.8479 |       0.8479 |       0.8479 |xxxxxxxxxxxxx |xxxxxxxxxxxxx |xxxxxxxxxxxxx |xxxxxxxxxxxxx |       0.8499 |       0.8499 |       0.8499 |xxxxxxxxxxxxx |xxxxxxxxxxxxx |xxxxxxxxxxxxx |xxxxxxxxxxxxx |       0.8515 |       0.8515 |       0.8515 |xxxxxxxxxxxxx |xxxxxxxxxxxxx |xxxxxxxxxxxxx |xxxxxxxxxxxxx |       0.8532 |       0.8532 |       0.8532 |xxxxxxxxxxxxx |xxxxxxxxxxxxx |xxxxxxxxxxxxx |xxxxxxxxxxxxx |       0.8544 |       0.8544 |       0.8544 |xxxxxxxxxxxxx |xxxxxxxxxxxxx |xxxxxxxxxxxxx |xxxxxxxxxxxxx |       0.8556 |       0.8556 |       0.8556 |xxxxxxxxxxxxx |xxxxxxxxxxxxx |xxxxxxxxxxxxx |xxxxxxxxxxxxx |       0.8566 |       0.8566 |       0.8566 |xxxxxxxxxxxxx |xxxxxxxxxxxxx |xxxxxxxxxxxxx |xxxxxxxxxxxxx |       0.8576 |       0.8576 |       0.8576 |xxxxxxxxxxxxx |xxxxxxxxxxxxx |xxxxxxxxxxxxx |xxxxxxxxxxxxx |       0.8584 |       0.8584 |       0.8584 |
bpred_bimod.bpred_jr_rate                   0.9828 |       0.9828 |       0.9828 |xxxxxxxxxxxxx |xxxxxxxxxxxxx |xxxxxxxxxxxxx |xxxxxxxxxxxxx |       0.9828 |       0.9828 |       0.9828 |xxxxxxxxxxxxx |xxxxxxxxxxxxx |xxxxxxxxxxxxx |xxxxxxxxxxxxx |       0.9828 |       0.9828 |       0.9828 |xxxxxxxxxxxxx |xxxxxxxxxxxxx |xxxxxxxxxxxxx |xxxxxxxxxxxxx |       0.9828 |       0.9828 |       0.9828 |xxxxxxxxxxxxx |xxxxxxxxxxxxx |xxxxxxxxxxxxx |xxxxxxxxxxxxx |       0.9828 |       0.9828 |       0.9828 |xxxxxxxxxxxxx |xxxxxxxxxxxxx |xxxxxxxxxxxxx |xxxxxxxxxxxxx |       0.9828 |       0.9828 |       0.9828 |xxxxxxxxxxxxx |xxxxxxxxxxxxx |xxxxxxxxxxxxx |xxxxxxxxxxxxx |       0.9828 |       0.9828 |       0.9828 |xxxxxxxxxxxxx |xxxxxxxxxxxxx |xxxxxxxxxxxxx |xxxxxxxxxxxxx |       0.9828 |       0.9828 |       0.9828 |xxxxxxxxxxxxx |xxxxxxxxxxxxx |xxxxxxxxxxxxx |xxxxxxxxxxxxx |       0.9828 |       0.9828 |       0.9828 |xxxxxxxxxxxxx |xxxxxxxxxxxxx |xxxxxxxxxxxxx |xxxxxxxxxxxxx |       0.9828 |       0.9828 |       0.9828 |xxxxxxxxxxxxx |xxxxxxxxxxxxx |xxxxxxxxxxxxx |xxxxxxxxxxxxx |       0.9828 |       0.9828 |       0.9828 |
bpred_bimod.bpred_jr_non_ras_rate.PP       <error: |      <error: |      <error: |xxxxxxxxxxxxx |xxxxxxxxxxxxx |xxxxxxxxxxxxx |xxxxxxxxxxxxx |      <error: |      <error: |      <error: |xxxxxxxxxxxxx |xxxxxxxxxxxxx |xxxxxxxxxxxxx |xxxxxxxxxxxxx |      <error: |      <error: |      <error: |xxxxxxxxxxxxx |xxxxxxxxxxxxx |xxxxxxxxxxxxx |xxxxxxxxxxxxx |      <error: |      <error: |      <error: |xxxxxxxxxxxxx |xxxxxxxxxxxxx |xxxxxxxxxxxxx |xxxxxxxxxxxxx |      <error: |      <error: |      <error: |xxxxxxxxxxxxx |xxxxxxxxxxxxx |xxxxxxxxxxxxx |xxxxxxxxxxxxx |      <error: |      <error: |      <error: |xxxxxxxxxxxxx |xxxxxxxxxxxxx |xxxxxxxxxxxxx |xxxxxxxxxxxxx |      <error: |      <error: |      <error: |xxxxxxxxxxxxx |xxxxxxxxxxxxx |xxxxxxxxxxxxx |xxxxxxxxxxxxx |      <error: |      <error: |      <error: |xxxxxxxxxxxxx |xxxxxxxxxxxxx |xxxxxxxxxxxxx |xxxxxxxxxxxxx |      <error: |      <error: |      <error: |xxxxxxxxxxxxx |xxxxxxxxxxxxx |xxxxxxxxxxxxx |xxxxxxxxxxxxx |      <error: |      <error: |      <error: |xxxxxxxxxxxxx |xxxxxxxxxxxxx |xxxxxxxxxxxxx |xxxxxxxxxxxxx |      <error: |      <error: |      <error: |
bpred_bimod.retstack_pushes                     60 |           60 |           60 |xxxxxxxxxxxxx |xxxxxxxxxxxxx |xxxxxxxxxxxxx |xxxxxxxxxxxxx |           60 |           60 |           60 |xxxxxxxxxxxxx |xxxxxxxxxxxxx |xxxxxxxxxxxxx |xxxxxxxxxxxxx |           60 |           60 |           60 |xxxxxxxxxxxxx |xxxxxxxxxxxxx |xxxxxxxxxxxxx |xxxxxxxxxxxxx |           60 |           60 |           60 |xxxxxxxxxxxxx |xxxxxxxxxxxxx |xxxxxxxxxxxxx |xxxxxxxxxxxxx |           60 |           60 |           60 |xxxxxxxxxxxxx |xxxxxxxxxxxxx |xxxxxxxxxxxxx |xxxxxxxxxxxxx |           60 |           60 |           60 |xxxxxxxxxxxxx |xxxxxxxxxxxxx |xxxxxxxxxxxxx |xxxxxxxxxxxxx |           60 |           60 |           60 |xxxxxxxxxxxxx |xxxxxxxxxxxxx |xxxxxxxxxxxxx |xxxxxxxxxxxxx |           60 |           60 |           60 |xxxxxxxxxxxxx |xxxxxxxxxxxxx |xxxxxxxxxxxxx |xxxxxxxxxxxxx |           60 |           60 |           60 |xxxxxxxxxxxxx |xxxxxxxxxxxxx |xxxxxxxxxxxxx |xxxxxxxxxxxxx |           60 |           60 |           60 |xxxxxxxxxxxxx |xxxxxxxxxxxxx |xxxxxxxxxxxxx |xxxxxxxxxxxxx |           60 |           60 |           60 |
bpred_bimod.retstack_pops                       58 |           58 |           58 |xxxxxxxxxxxxx |xxxxxxxxxxxxx |xxxxxxxxxxxxx |xxxxxxxxxxxxx |           58 |           58 |           58 |xxxxxxxxxxxxx |xxxxxxxxxxxxx |xxxxxxxxxxxxx |xxxxxxxxxxxxx |           58 |           58 |           58 |xxxxxxxxxxxxx |xxxxxxxxxxxxx |xxxxxxxxxxxxx |xxxxxxxxxxxxx |           58 |           58 |           58 |xxxxxxxxxxxxx |xxxxxxxxxxxxx |xxxxxxxxxxxxx |xxxxxxxxxxxxx |           58 |           58 |           58 |xxxxxxxxxxxxx |xxxxxxxxxxxxx |xxxxxxxxxxxxx |xxxxxxxxxxxxx |           58 |           58 |           58 |xxxxxxxxxxxxx |xxxxxxxxxxxxx |xxxxxxxxxxxxx |xxxxxxxxxxxxx |           58 |           58 |           58 |xxxxxxxxxxxxx |xxxxxxxxxxxxx |xxxxxxxxxxxxx |xxxxxxxxxxxxx |           58 |           58 |           58 |xxxxxxxxxxxxx |xxxxxxxxxxxxx |xxxxxxxxxxxxx |xxxxxxxxxxxxx |           58 |           58 |           58 |xxxxxxxxxxxxx |xxxxxxxxxxxxx |xxxxxxxxxxxxx |xxxxxxxxxxxxx |           58 |           58 |           58 |xxxxxxxxxxxxx |xxxxxxxxxxxxx |xxxxxxxxxxxxx |xxxxxxxxxxxxx |           58 |           58 |           58 |
bpred_bimod.used_ras.PP                         58 |           58 |           58 |xxxxxxxxxxxxx |xxxxxxxxxxxxx |xxxxxxxxxxxxx |xxxxxxxxxxxxx |           58 |           58 |           58 |xxxxxxxxxxxxx |xxxxxxxxxxxxx |xxxxxxxxxxxxx |xxxxxxxxxxxxx |           58 |           58 |           58 |xxxxxxxxxxxxx |xxxxxxxxxxxxx |xxxxxxxxxxxxx |xxxxxxxxxxxxx |           58 |           58 |           58 |xxxxxxxxxxxxx |xxxxxxxxxxxxx |xxxxxxxxxxxxx |xxxxxxxxxxxxx |           58 |           58 |           58 |xxxxxxxxxxxxx |xxxxxxxxxxxxx |xxxxxxxxxxxxx |xxxxxxxxxxxxx |           58 |           58 |           58 |xxxxxxxxxxxxx |xxxxxxxxxxxxx |xxxxxxxxxxxxx |xxxxxxxxxxxxx |           58 |           58 |           58 |xxxxxxxxxxxxx |xxxxxxxxxxxxx |xxxxxxxxxxxxx |xxxxxxxxxxxxx |           58 |           58 |           58 |xxxxxxxxxxxxx |xxxxxxxxxxxxx |xxxxxxxxxxxxx |xxxxxxxxxxxxx |           58 |           58 |           58 |xxxxxxxxxxxxx |xxxxxxxxxxxxx |xxxxxxxxxxxxx |xxxxxxxxxxxxx |           58 |           58 |           58 |xxxxxxxxxxxxx |xxxxxxxxxxxxx |xxxxxxxxxxxxx |xxxxxxxxxxxxx |           58 |           58 |           58 |
bpred_bimod.ras_hits.PP                         57 |           57 |           57 |xxxxxxxxxxxxx |xxxxxxxxxxxxx |xxxxxxxxxxxxx |xxxxxxxxxxxxx |           57 |           57 |           57 |xxxxxxxxxxxxx |xxxxxxxxxxxxx |xxxxxxxxxxxxx |xxxxxxxxxxxxx |           57 |           57 |           57 |xxxxxxxxxxxxx |xxxxxxxxxxxxx |xxxxxxxxxxxxx |xxxxxxxxxxxxx |           57 |           57 |           57 |xxxxxxxxxxxxx |xxxxxxxxxxxxx |xxxxxxxxxxxxx |xxxxxxxxxxxxx |           57 |           57 |           57 |xxxxxxxxxxxxx |xxxxxxxxxxxxx |xxxxxxxxxxxxx |xxxxxxxxxxxxx |           57 |           57 |           57 |xxxxxxxxxxxxx |xxxxxxxxxxxxx |xxxxxxxxxxxxx |xxxxxxxxxxxxx |           57 |           57 |           57 |xxxxxxxxxxxxx |xxxxxxxxxxxxx |xxxxxxxxxxxxx |xxxxxxxxxxxxx |           57 |           57 |           57 |xxxxxxxxxxxxx |xxxxxxxxxxxxx |xxxxxxxxxxxxx |xxxxxxxxxxxxx |           57 |           57 |           57 |xxxxxxxxxxxxx |xxxxxxxxxxxxx |xxxxxxxxxxxxx |xxxxxxxxxxxxx |           57 |           57 |           57 |xxxxxxxxxxxxx |xxxxxxxxxxxxx |xxxxxxxxxxxxx |xxxxxxxxxxxxx |           57 |           57 |           57 |
bpred_bimod.ras_rate.PP                     0.9828 |       0.9828 |       0.9828 |xxxxxxxxxxxxx |xxxxxxxxxxxxx |xxxxxxxxxxxxx |xxxxxxxxxxxxx |       0.9828 |       0.9828 |       0.9828 |xxxxxxxxxxxxx |xxxxxxxxxxxxx |xxxxxxxxxxxxx |xxxxxxxxxxxxx |       0.9828 |       0.9828 |       0.9828 |xxxxxxxxxxxxx |xxxxxxxxxxxxx |xxxxxxxxxxxxx |xxxxxxxxxxxxx |       0.9828 |       0.9828 |       0.9828 |xxxxxxxxxxxxx |xxxxxxxxxxxxx |xxxxxxxxxxxxx |xxxxxxxxxxxxx |       0.9828 |       0.9828 |       0.9828 |xxxxxxxxxxxxx |xxxxxxxxxxxxx |xxxxxxxxxxxxx |xxxxxxxxxxxxx |       0.9828 |       0.9828 |       0.9828 |xxxxxxxxxxxxx |xxxxxxxxxxxxx |xxxxxxxxxxxxx |xxxxxxxxxxxxx |       0.9828 |       0.9828 |       0.9828 |xxxxxxxxxxxxx |xxxxxxxxxxxxx |xxxxxxxxxxxxx |xxxxxxxxxxxxx |       0.9828 |       0.9828 |       0.9828 |xxxxxxxxxxxxx |xxxxxxxxxxxxx |xxxxxxxxxxxxx |xxxxxxxxxxxxx |       0.9828 |       0.9828 |       0.9828 |xxxxxxxxxxxxx |xxxxxxxxxxxxx |xxxxxxxxxxxxx |xxxxxxxxxxxxx |       0.9828 |       0.9828 |       0.9828 |xxxxxxxxxxxxx |xxxxxxxxxxxxx |xxxxxxxxxxxxx |xxxxxxxxxxxxx |       0.9828 |       0.9828 |       0.9828 |
bpred_2lev.lookups                   xxxxxxxxxxxxx |xxxxxxxxxxxxx |xxxxxxxxxxxxx |       177016 |       177016 |       177016 |       177016 |xxxxxxxxxxxxx |xxxxxxxxxxxxx |xxxxxxxxxxxxx |       386198 |       386198 |       386198 |       386198 |xxxxxxxxxxxxx |xxxxxxxxxxxxx |xxxxxxxxxxxxx |       836462 |       836462 |       836462 |       836462 |xxxxxxxxxxxxx |xxxxxxxxxxxxx |xxxxxxxxxxxxx |      1803706 |      1803706 |      1803706 |      1803706 |xxxxxxxxxxxxx |xxxxxxxxxxxxx |xxxxxxxxxxxxx |      3867652 |      3867652 |      3867652 |      3867652 |xxxxxxxxxxxxx |xxxxxxxxxxxxx |xxxxxxxxxxxxx |      8259068 |      8259068 |      8259068 |      8259068 |xxxxxxxxxxxxx |xxxxxxxxxxxxx |xxxxxxxxxxxxx |     17564712 |     17564712 |     17564712 |     17564712 |xxxxxxxxxxxxx |xxxxxxxxxxxxx |xxxxxxxxxxxxx |     37228614 |     37228614 |     37228614 |     37228614 |xxxxxxxxxxxxx |xxxxxxxxxxxxx |xxxxxxxxxxxxx |     78646266 |     78646266 |     78646266 |     78646266 |xxxxxxxxxxxxx |xxxxxxxxxxxxx |xxxxxxxxxxxxx |    165684762 |    165684762 |    165684762 |    165684762 |xxxxxxxxxxxxx |xxxxxxxxxxxxx |xxxxxxxxxxxxx |    348139886 |    348139886 |    348139886 |    348139886 |
[...]
bpred_2lev.retstack_pushes           xxxxxxxxxxxxx |xxxxxxxxxxxxx |xxxxxxxxxxxxx |           60 |           60 |           60 |           60 |xxxxxxxxxxxxx |xxxxxxxxxxxxx |xxxxxxxxxxxxx |           60 |           60 |           60 |           60 |xxxxxxxxxxxxx |xxxxxxxxxxxxx |xxxxxxxxxxxxx |           60 |           60 |           60 |           60 |xxxxxxxxxxxxx |xxxxxxxxxxxxx |xxxxxxxxxxxxx |           60 |           60 |           60 |           60 |xxxxxxxxxxxxx |xxxxxxxxxxxxx |xxxxxxxxxxxxx |           60 |           60 |           60 |           60 |xxxxxxxxxxxxx |xxxxxxxxxxxxx |xxxxxxxxxxxxx |           60 |           60 |           60 |           60 |xxxxxxxxxxxxx |xxxxxxxxxxxxx |xxxxxxxxxxxxx |           60 |           60 |           60 |           60 |xxxxxxxxxxxxx |xxxxxxxxxxxxx |xxxxxxxxxxxxx |           60 |           60 |           60 |           60 |xxxxxxxxxxxxx |xxxxxxxxxxxxx |xxxxxxxxxxxxx |           60 |           60 |           60 |           60 |xxxxxxxxxxxxx |xxxxxxxxxxxxx |xxxxxxxxxxxxx |           60 |           60 |           60 |           60 |xxxxxxxxxxxxx |xxxxxxxxxxxxx |xxxxxxxxxxxxx |           60 |           60 |           60 |           60 |
bpred_2lev.retstack_pops             xxxxxxxxxxxxx |xxxxxxxxxxxxx |xxxxxxxxxxxxx |           58 |           58 |           58 |           58 |xxxxxxxxxxxxx |xxxxxxxxxxxxx |xxxxxxxxxxxxx |           58 |           58 |           58 |           58 |xxxxxxxxxxxxx |xxxxxxxxxxxxx |xxxxxxxxxxxxx |           58 |           58 |           58 |           58 |xxxxxxxxxxxxx |xxxxxxxxxxxxx |xxxxxxxxxxxxx |           58 |           58 |           58 |           58 |xxxxxxxxxxxxx |xxxxxxxxxxxxx |xxxxxxxxxxxxx |           58 |           58 |           58 |           58 |xxxxxxxxxxxxx |xxxxxxxxxxxxx |xxxxxxxxxxxxx |           58 |           58 |           58 |           58 |xxxxxxxxxxxxx |xxxxxxxxxxxxx |xxxxxxxxxxxxx |           58 |           58 |           58 |           58 |xxxxxxxxxxxxx |xxxxxxxxxxxxx |xxxxxxxxxxxxx |           58 |           58 |           58 |           58 |xxxxxxxxxxxxx |xxxxxxxxxxxxx |xxxxxxxxxxxxx |           58 |           58 |           58 |           58 |xxxxxxxxxxxxx |xxxxxxxxxxxxx |xxxxxxxxxxxxx |           58 |           58 |           58 |           58 |xxxxxxxxxxxxx |xxxxxxxxxxxxx |xxxxxxxxxxxxx |           58 |           58 |           58 |           58 |
bpred_2lev.used_ras.PP               xxxxxxxxxxxxx |xxxxxxxxxxxxx |xxxxxxxxxxxxx |           58 |           58 |           58 |           58 |xxxxxxxxxxxxx |xxxxxxxxxxxxx |xxxxxxxxxxxxx |           58 |           58 |           58 |           58 |xxxxxxxxxxxxx |xxxxxxxxxxxxx |xxxxxxxxxxxxx |           58 |           58 |           58 |           58 |xxxxxxxxxxxxx |xxxxxxxxxxxxx |xxxxxxxxxxxxx |           58 |           58 |           58 |           58 |xxxxxxxxxxxxx |xxxxxxxxxxxxx |xxxxxxxxxxxxx |           58 |           58 |           58 |           58 |xxxxxxxxxxxxx |xxxxxxxxxxxxx |xxxxxxxxxxxxx |           58 |           58 |           58 |           58 |xxxxxxxxxxxxx |xxxxxxxxxxxxx |xxxxxxxxxxxxx |           58 |           58 |           58 |           58 |xxxxxxxxxxxxx |xxxxxxxxxxxxx |xxxxxxxxxxxxx |           58 |           58 |           58 |           58 |xxxxxxxxxxxxx |xxxxxxxxxxxxx |xxxxxxxxxxxxx |           58 |           58 |           58 |           58 |xxxxxxxxxxxxx |xxxxxxxxxxxxx |xxxxxxxxxxxxx |           58 |           58 |           58 |           58 |xxxxxxxxxxxxx |xxxxxxxxxxxxx |xxxxxxxxxxxxx |           58 |           58 |           58 |           58 |
bpred_2lev.ras_hits.PP               xxxxxxxxxxxxx |xxxxxxxxxxxxx |xxxxxxxxxxxxx |           57 |           57 |           57 |           57 |xxxxxxxxxxxxx |xxxxxxxxxxxxx |xxxxxxxxxxxxx |           57 |           57 |           57 |           57 |xxxxxxxxxxxxx |xxxxxxxxxxxxx |xxxxxxxxxxxxx |           57 |           57 |           57 |           57 |xxxxxxxxxxxxx |xxxxxxxxxxxxx |xxxxxxxxxxxxx |           57 |           57 |           57 |           57 |xxxxxxxxxxxxx |xxxxxxxxxxxxx |xxxxxxxxxxxxx |           57 |           57 |           57 |           57 |xxxxxxxxxxxxx |xxxxxxxxxxxxx |xxxxxxxxxxxxx |           57 |           57 |           57 |           57 |xxxxxxxxxxxxx |xxxxxxxxxxxxx |xxxxxxxxxxxxx |           57 |           57 |           57 |           57 |xxxxxxxxxxxxx |xxxxxxxxxxxxx |xxxxxxxxxxxxx |           57 |           57 |           57 |           57 |xxxxxxxxxxxxx |xxxxxxxxxxxxx |xxxxxxxxxxxxx |           57 |           57 |           57 |           57 |xxxxxxxxxxxxx |xxxxxxxxxxxxx |xxxxxxxxxxxxx |           57 |           57 |           57 |           57 |xxxxxxxxxxxxx |xxxxxxxxxxxxx |xxxxxxxxxxxxx |           57 |           57 |           57 |           57 |
bpred_2lev.ras_rate.PP               xxxxxxxxxxxxx |xxxxxxxxxxxxx |xxxxxxxxxxxxx |       0.9828 |       0.9828 |       0.9828 |       0.9828 |xxxxxxxxxxxxx |xxxxxxxxxxxxx |xxxxxxxxxxxxx |       0.9828 |       0.9828 |       0.9828 |       0.9828 |xxxxxxxxxxxxx |xxxxxxxxxxxxx |xxxxxxxxxxxxx |       0.9828 |       0.9828 |       0.9828 |       0.9828 |xxxxxxxxxxxxx |xxxxxxxxxxxxx |xxxxxxxxxxxxx |       0.9828 |       0.9828 |       0.9828 |       0.9828 |xxxxxxxxxxxxx |xxxxxxxxxxxxx |xxxxxxxxxxxxx |       0.9828 |       0.9828 |       0.9828 |       0.9828 |xxxxxxxxxxxxx |xxxxxxxxxxxxx |xxxxxxxxxxxxx |       0.9828 |       0.9828 |       0.9828 |       0.9828 |xxxxxxxxxxxxx |xxxxxxxxxxxxx |xxxxxxxxxxxxx |       0.9828 |       0.9828 |       0.9828 |       0.9828 |xxxxxxxxxxxxx |xxxxxxxxxxxxx |xxxxxxxxxxxxx |       0.9828 |       0.9828 |       0.9828 |       0.9828 |xxxxxxxxxxxxx |xxxxxxxxxxxxx |xxxxxxxxxxxxx |       0.9828 |       0.9828 |       0.9828 |       0.9828 |xxxxxxxxxxxxx |xxxxxxxxxxxxx |xxxxxxxxxxxxx |       0.9828 |       0.9828 |       0.9828 |       0.9828 |xxxxxxxxxxxxx |xxxxxxxxxxxxx |xxxxxxxxxxxxx |       0.9828 |       0.9828 |       0.9828 |       0.9828 |

Command list: 
	sslittle-na-sstrix-gcc -Wall -O3 -funroll-loops -finline-functions  -DRANDOM_SIZE=4096 -DOFFSET=1 -DSORT=base_heapsort sorts/base_heapsort6212859.c simpleMain.c -o base_heapsort1395172864
	sim-cache -cache:dl1 dl1:256:32:1:l -cache:dl2 dl2:131072:32:1:l -cache:il1 il1:256:32:1:l -cache:il2 dl2 base_heapsort1395172864
	sim-cache -cache:dl1 dl1:256:32:1:l -cache:dl2 dl2:65536:32:1:l -cache:il1 il1:256:32:1:l -cache:il2 dl2 base_heapsort1395172864
	sim-cache -cache:dl1 dl1:1:32:256:l -cache:dl2 dl2:1:32:131072:l -cache:il1 il1:1:32:256:l -cache:il2 dl2 base_heapsort1395172864
	sim-cache -cache:dl1 dl1:1:32:256:l -cache:dl2 dl2:1:32:65536:l -cache:il1 il1:1:32:256:l -cache:il2 dl2 base_heapsort1395172864
	sim-bpred -bpred bimod -bpred:bimod 512 base_heapsort1395172864
	sim-bpred -bpred bimod -bpred:bimod 1024 base_heapsort1395172864
	sim-bpred -bpred bimod -bpred:bimod 2048 base_heapsort1395172864
	sim-bpred -bpred 2lev -bpred:2lev 1 512 10 1 base_heapsort1395172864
	sim-bpred -bpred 2lev -bpred:2lev 1 1024 10 1 base_heapsort1395172864
	sim-bpred -bpred 2lev -bpred:2lev 1 2048 10 1 base_heapsort1395172864
	sim-bpred -bpred 2lev -bpred:2lev 1 4096 10 1 base_heapsort1395172864
	sslittle-na-sstrix-gcc -Wall -O3 -funroll-loops -finline-functions  -DRANDOM_SIZE=8192 -DOFFSET=1 -DSORT=base_heapsort sorts/base_heapsort6212859.c simpleMain.c -o base_heapsort1395172864
	sim-cache -cache:dl1 dl1:256:32:1:l -cache:dl2 dl2:131072:32:1:l -cache:il1 il1:256:32:1:l -cache:il2 dl2 base_heapsort1395172864
	sim-cache -cache:dl1 dl1:256:32:1:l -cache:dl2 dl2:65536:32:1:l -cache:il1 il1:256:32:1:l -cache:il2 dl2 base_heapsort1395172864
	sim-cache -cache:dl1 dl1:1:32:256:l -cache:dl2 dl2:1:32:131072:l -cache:il1 il1:1:32:256:l -cache:il2 dl2 base_heapsort1395172864
	sim-cache -cache:dl1 dl1:1:32:256:l -cache:dl2 dl2:1:32:65536:l -cache:il1 il1:1:32:256:l -cache:il2 dl2 base_heapsort1395172864
	sim-bpred -bpred bimod -bpred:bimod 512 base_heapsort1395172864
	sim-bpred -bpred bimod -bpred:bimod 1024 base_heapsort1395172864
	sim-bpred -bpred bimod -bpred:bimod 2048 base_heapsort1395172864
	sim-bpred -bpred 2lev -bpred:2lev 1 512 10 1 base_heapsort1395172864
	sim-bpred -bpred 2lev -bpred:2lev 1 1024 10 1 base_heapsort1395172864
	sim-bpred -bpred 2lev -bpred:2lev 1 2048 10 1 base_heapsort1395172864
	sim-bpred -bpred 2lev -bpred:2lev 1 4096 10 1 base_heapsort1395172864
	sslittle-na-sstrix-gcc -Wall -O3 -funroll-loops -finline-functions  -DRANDOM_SIZE=16384 -DOFFSET=1 -DSORT=base_heapsort sorts/base_heapsort6212859.c simpleMain.c -o base_heapsort1395172864
	sim-cache -cache:dl1 dl1:256:32:1:l -cache:dl2 dl2:131072:32:1:l -cache:il1 il1:256:32:1:l -cache:il2 dl2 base_heapsort1395172864
	sim-cache -cache:dl1 dl1:256:32:1:l -cache:dl2 dl2:65536:32:1:l -cache:il1 il1:256:32:1:l -cache:il2 dl2 base_heapsort1395172864
	sim-cache -cache:dl1 dl1:1:32:256:l -cache:dl2 dl2:1:32:131072:l -cache:il1 il1:1:32:256:l -cache:il2 dl2 base_heapsort1395172864
	sim-cache -cache:dl1 dl1:1:32:256:l -cache:dl2 dl2:1:32:65536:l -cache:il1 il1:1:32:256:l -cache:il2 dl2 base_heapsort1395172864
	sim-bpred -bpred bimod -bpred:bimod 512 base_heapsort1395172864
	sim-bpred -bpred bimod -bpred:bimod 1024 base_heapsort1395172864
	sim-bpred -bpred bimod -bpred:bimod 2048 base_heapsort1395172864
	sim-bpred -bpred 2lev -bpred:2lev 1 512 10 1 base_heapsort1395172864
	sim-bpred -bpred 2lev -bpred:2lev 1 1024 10 1 base_heapsort1395172864
	sim-bpred -bpred 2lev -bpred:2lev 1 2048 10 1 base_heapsort1395172864
	sim-bpred -bpred 2lev -bpred:2lev 1 4096 10 1 base_heapsort1395172864
	sslittle-na-sstrix-gcc -Wall -O3 -funroll-loops -finline-functions  -DRANDOM_SIZE=32768 -DOFFSET=1 -DSORT=base_heapsort sorts/base_heapsort6212859.c simpleMain.c -o base_heapsort1395172864
	sim-cache -cache:dl1 dl1:256:32:1:l -cache:dl2 dl2:131072:32:1:l -cache:il1 il1:256:32:1:l -cache:il2 dl2 base_heapsort1395172864
	sim-cache -cache:dl1 dl1:256:32:1:l -cache:dl2 dl2:65536:32:1:l -cache:il1 il1:256:32:1:l -cache:il2 dl2 base_heapsort1395172864
	sim-cache -cache:dl1 dl1:1:32:256:l -cache:dl2 dl2:1:32:131072:l -cache:il1 il1:1:32:256:l -cache:il2 dl2 base_heapsort1395172864
	sim-cache -cache:dl1 dl1:1:32:256:l -cache:dl2 dl2:1:32:65536:l -cache:il1 il1:1:32:256:l -cache:il2 dl2 base_heapsort1395172864
	sim-bpred -bpred bimod -bpred:bimod 512 base_heapsort1395172864
	sim-bpred -bpred bimod -bpred:bimod 1024 base_heapsort1395172864
	sim-bpred -bpred bimod -bpred:bimod 2048 base_heapsort1395172864
	sim-bpred -bpred 2lev -bpred:2lev 1 512 10 1 base_heapsort1395172864
	sim-bpred -bpred 2lev -bpred:2lev 1 1024 10 1 base_heapsort1395172864
	sim-bpred -bpred 2lev -bpred:2lev 1 2048 10 1 base_heapsort1395172864
	sim-bpred -bpred 2lev -bpred:2lev 1 4096 10 1 base_heapsort1395172864
	sslittle-na-sstrix-gcc -Wall -O3 -funroll-loops -finline-functions  -DRANDOM_SIZE=65536 -DOFFSET=1 -DSORT=base_heapsort sorts/base_heapsort6212859.c simpleMain.c -o base_heapsort1395172864
	sim-cache -cache:dl1 dl1:256:32:1:l -cache:dl2 dl2:131072:32:1:l -cache:il1 il1:256:32:1:l -cache:il2 dl2 base_heapsort1395172864
	sim-cache -cache:dl1 dl1:256:32:1:l -cache:dl2 dl2:65536:32:1:l -cache:il1 il1:256:32:1:l -cache:il2 dl2 base_heapsort1395172864
	sim-cache -cache:dl1 dl1:1:32:256:l -cache:dl2 dl2:1:32:131072:l -cache:il1 il1:1:32:256:l -cache:il2 dl2 base_heapsort1395172864
	sim-cache -cache:dl1 dl1:1:32:256:l -cache:dl2 dl2:1:32:65536:l -cache:il1 il1:1:32:256:l -cache:il2 dl2 base_heapsort1395172864
	sim-bpred -bpred bimod -bpred:bimod 512 base_heapsort1395172864
	sim-bpred -bpred bimod -bpred:bimod 1024 base_heapsort1395172864
	sim-bpred -bpred bimod -bpred:bimod 2048 base_heapsort1395172864
	sim-bpred -bpred 2lev -bpred:2lev 1 512 10 1 base_heapsort1395172864
	sim-bpred -bpred 2lev -bpred:2lev 1 1024 10 1 base_heapsort1395172864
	sim-bpred -bpred 2lev -bpred:2lev 1 2048 10 1 base_heapsort1395172864
	sim-bpred -bpred 2lev -bpred:2lev 1 4096 10 1 base_heapsort1395172864
	sslittle-na-sstrix-gcc -Wall -O3 -funroll-loops -finline-functions  -DRANDOM_SIZE=131072 -DOFFSET=1 -DSORT=base_heapsort sorts/base_heapsort6212859.c simpleMain.c -o base_heapsort1395172864
	sim-cache -cache:dl1 dl1:256:32:1:l -cache:dl2 dl2:131072:32:1:l -cache:il1 il1:256:32:1:l -cache:il2 dl2 base_heapsort1395172864
	sim-cache -cache:dl1 dl1:256:32:1:l -cache:dl2 dl2:65536:32:1:l -cache:il1 il1:256:32:1:l -cache:il2 dl2 base_heapsort1395172864
	sim-cache -cache:dl1 dl1:1:32:256:l -cache:dl2 dl2:1:32:131072:l -cache:il1 il1:1:32:256:l -cache:il2 dl2 base_heapsort1395172864
	sim-cache -cache:dl1 dl1:1:32:256:l -cache:dl2 dl2:1:32:65536:l -cache:il1 il1:1:32:256:l -cache:il2 dl2 base_heapsort1395172864
	sim-bpred -bpred bimod -bpred:bimod 512 base_heapsort1395172864
	sim-bpred -bpred bimod -bpred:bimod 1024 base_heapsort1395172864
	sim-bpred -bpred bimod -bpred:bimod 2048 base_heapsort1395172864
	sim-bpred -bpred 2lev -bpred:2lev 1 512 10 1 base_heapsort1395172864
	sim-bpred -bpred 2lev -bpred:2lev 1 1024 10 1 base_heapsort1395172864
	sim-bpred -bpred 2lev -bpred:2lev 1 2048 10 1 base_heapsort1395172864
	sim-bpred -bpred 2lev -bpred:2lev 1 4096 10 1 base_heapsort1395172864
	sslittle-na-sstrix-gcc -Wall -O3 -funroll-loops -finline-functions  -DRANDOM_SIZE=262144 -DOFFSET=1 -DSORT=base_heapsort sorts/base_heapsort6212859.c simpleMain.c -o base_heapsort1395172864
	sim-cache -cache:dl1 dl1:256:32:1:l -cache:dl2 dl2:131072:32:1:l -cache:il1 il1:256:32:1:l -cache:il2 dl2 base_heapsort1395172864
	sim-cache -cache:dl1 dl1:256:32:1:l -cache:dl2 dl2:65536:32:1:l -cache:il1 il1:256:32:1:l -cache:il2 dl2 base_heapsort1395172864
	sim-cache -cache:dl1 dl1:1:32:256:l -cache:dl2 dl2:1:32:131072:l -cache:il1 il1:1:32:256:l -cache:il2 dl2 base_heapsort1395172864
	sim-cache -cache:dl1 dl1:1:32:256:l -cache:dl2 dl2:1:32:65536:l -cache:il1 il1:1:32:256:l -cache:il2 dl2 base_heapsort1395172864
	sim-bpred -bpred bimod -bpred:bimod 512 base_heapsort1395172864
	sim-bpred -bpred bimod -bpred:bimod 1024 base_heapsort1395172864
	sim-bpred -bpred bimod -bpred:bimod 2048 base_heapsort1395172864
	sim-bpred -bpred 2lev -bpred:2lev 1 512 10 1 base_heapsort1395172864
	sim-bpred -bpred 2lev -bpred:2lev 1 1024 10 1 base_heapsort1395172864
	sim-bpred -bpred 2lev -bpred:2lev 1 2048 10 1 base_heapsort1395172864
	sim-bpred -bpred 2lev -bpred:2lev 1 4096 10 1 base_heapsort1395172864
	sslittle-na-sstrix-gcc -Wall -O3 -funroll-loops -finline-functions  -DRANDOM_SIZE=524288 -DOFFSET=1 -DSORT=base_heapsort sorts/base_heapsort6212859.c simpleMain.c -o base_heapsort1395172864
	sim-cache -cache:dl1 dl1:256:32:1:l -cache:dl2 dl2:131072:32:1:l -cache:il1 il1:256:32:1:l -cache:il2 dl2 base_heapsort1395172864
	sim-cache -cache:dl1 dl1:256:32:1:l -cache:dl2 dl2:65536:32:1:l -cache:il1 il1:256:32:1:l -cache:il2 dl2 base_heapsort1395172864
	sim-cache -cache:dl1 dl1:1:32:256:l -cache:dl2 dl2:1:32:131072:l -cache:il1 il1:1:32:256:l -cache:il2 dl2 base_heapsort1395172864
	sim-cache -cache:dl1 dl1:1:32:256:l -cache:dl2 dl2:1:32:65536:l -cache:il1 il1:1:32:256:l -cache:il2 dl2 base_heapsort1395172864
	sim-bpred -bpred bimod -bpred:bimod 512 base_heapsort1395172864
	sim-bpred -bpred bimod -bpred:bimod 1024 base_heapsort1395172864
	sim-bpred -bpred bimod -bpred:bimod 2048 base_heapsort1395172864
	sim-bpred -bpred 2lev -bpred:2lev 1 512 10 1 base_heapsort1395172864
	sim-bpred -bpred 2lev -bpred:2lev 1 1024 10 1 base_heapsort1395172864
	sim-bpred -bpred 2lev -bpred:2lev 1 2048 10 1 base_heapsort1395172864
	sim-bpred -bpred 2lev -bpred:2lev 1 4096 10 1 base_heapsort1395172864
	sslittle-na-sstrix-gcc -Wall -O3 -funroll-loops -finline-functions  -DRANDOM_SIZE=1048576 -DOFFSET=1 -DSORT=base_heapsort sorts/base_heapsort6212859.c simpleMain.c -o base_heapsort1395172864
	sim-cache -cache:dl1 dl1:256:32:1:l -cache:dl2 dl2:131072:32:1:l -cache:il1 il1:256:32:1:l -cache:il2 dl2 base_heapsort1395172864
	sim-cache -cache:dl1 dl1:256:32:1:l -cache:dl2 dl2:65536:32:1:l -cache:il1 il1:256:32:1:l -cache:il2 dl2 base_heapsort1395172864
	sim-cache -cache:dl1 dl1:1:32:256:l -cache:dl2 dl2:1:32:131072:l -cache:il1 il1:1:32:256:l -cache:il2 dl2 base_heapsort1395172864
	sim-cache -cache:dl1 dl1:1:32:256:l -cache:dl2 dl2:1:32:65536:l -cache:il1 il1:1:32:256:l -cache:il2 dl2 base_heapsort1395172864
	sim-bpred -bpred bimod -bpred:bimod 512 base_heapsort1395172864
	sim-bpred -bpred bimod -bpred:bimod 1024 base_heapsort1395172864
	sim-bpred -bpred bimod -bpred:bimod 2048 base_heapsort1395172864
	sim-bpred -bpred 2lev -bpred:2lev 1 512 10 1 base_heapsort1395172864
	sim-bpred -bpred 2lev -bpred:2lev 1 1024 10 1 base_heapsort1395172864
	sim-bpred -bpred 2lev -bpred:2lev 1 2048 10 1 base_heapsort1395172864
	sim-bpred -bpred 2lev -bpred:2lev 1 4096 10 1 base_heapsort1395172864
	sslittle-na-sstrix-gcc -Wall -O3 -funroll-loops -finline-functions  -DRANDOM_SIZE=2097152 -DOFFSET=1 -DSORT=base_heapsort sorts/base_heapsort6212859.c simpleMain.c -o base_heapsort1395172864
	sim-cache -cache:dl1 dl1:256:32:1:l -cache:dl2 dl2:131072:32:1:l -cache:il1 il1:256:32:1:l -cache:il2 dl2 base_heapsort1395172864
	sim-cache -cache:dl1 dl1:256:32:1:l -cache:dl2 dl2:65536:32:1:l -cache:il1 il1:256:32:1:l -cache:il2 dl2 base_heapsort1395172864
	sim-cache -cache:dl1 dl1:1:32:256:l -cache:dl2 dl2:1:32:131072:l -cache:il1 il1:1:32:256:l -cache:il2 dl2 base_heapsort1395172864
	sim-cache -cache:dl1 dl1:1:32:256:l -cache:dl2 dl2:1:32:65536:l -cache:il1 il1:1:32:256:l -cache:il2 dl2 base_heapsort1395172864
	sim-bpred -bpred bimod -bpred:bimod 512 base_heapsort1395172864
	sim-bpred -bpred bimod -bpred:bimod 1024 base_heapsort1395172864
	sim-bpred -bpred bimod -bpred:bimod 2048 base_heapsort1395172864
	sim-bpred -bpred 2lev -bpred:2lev 1 512 10 1 base_heapsort1395172864
	sim-bpred -bpred 2lev -bpred:2lev 1 1024 10 1 base_heapsort1395172864
	sim-bpred -bpred 2lev -bpred:2lev 1 2048 10 1 base_heapsort1395172864
	sim-bpred -bpred 2lev -bpred:2lev 1 4096 10 1 base_heapsort1395172864
	sslittle-na-sstrix-gcc -Wall -O3 -funroll-loops -finline-functions  -DRANDOM_SIZE=4194304 -DOFFSET=1 -DSORT=base_heapsort sorts/base_heapsort6212859.c simpleMain.c -o base_heapsort1395172864
	sim-cache -cache:dl1 dl1:256:32:1:l -cache:dl2 dl2:131072:32:1:l -cache:il1 il1:256:32:1:l -cache:il2 dl2 base_heapsort1395172864
	sim-cache -cache:dl1 dl1:256:32:1:l -cache:dl2 dl2:65536:32:1:l -cache:il1 il1:256:32:1:l -cache:il2 dl2 base_heapsort1395172864
	sim-cache -cache:dl1 dl1:1:32:256:l -cache:dl2 dl2:1:32:131072:l -cache:il1 il1:1:32:256:l -cache:il2 dl2 base_heapsort1395172864
	sim-cache -cache:dl1 dl1:1:32:256:l -cache:dl2 dl2:1:32:65536:l -cache:il1 il1:1:32:256:l -cache:il2 dl2 base_heapsort1395172864
	sim-bpred -bpred bimod -bpred:bimod 512 base_heapsort1395172864
	sim-bpred -bpred bimod -bpred:bimod 1024 base_heapsort1395172864
	sim-bpred -bpred bimod -bpred:bimod 2048 base_heapsort1395172864
	sim-bpred -bpred 2lev -bpred:2lev 1 512 10 1 base_heapsort1395172864
	sim-bpred -bpred 2lev -bpred:2lev 1 1024 10 1 base_heapsort1395172864
	sim-bpred -bpred 2lev -bpred:2lev 1 2048 10 1 base_heapsort1395172864
	sim-bpred -bpred 2lev -bpred:2lev 1 4096 10 1 base_heapsort1395172864
