Sat Jul 30 05:00:56 2005
Run as: "./do_simple -c random.org8 -o 8 base_quicksort5"
-------------------------------------------------------------------------------------------------
sim-cache                                     4096 |         4096 |         4096 |         4096 |         8192 |         8192 |         8192 |         8192 |        16384 |        16384 |        16384 |        16384 |        32768 |        32768 |        32768 |        32768 |        65536 |        65536 |        65536 |        65536 |       131072 |       131072 |       131072 |       131072 |       262144 |       262144 |       262144 |       262144 |       524288 |       524288 |       524288 |       524288 |      1048576 |      1048576 |      1048576 |      1048576 |      2097152 |      2097152 |      2097152 |      2097152 |      4194304 |      4194304 |      4194304 |      4194304 |
-cache:dl1 dl1:256:32:1:l -cache:dl2 dl2:131072:32:1:l -cache:il1 il1:256:32:1:l -cache:il2 dl2
-cache:dl1 dl1:256:32:1:l -cache:dl2 dl2:65536:32:1:l -cache:il1 il1:256:32:1:l -cache:il2 dl2
-cache:dl1 dl1:1:32:256:l -cache:dl2 dl2:1:32:131072:l -cache:il1 il1:1:32:256:l -cache:il2 dl2
-cache:dl1 dl1:1:32:256:l -cache:dl2 dl2:1:32:65536:l -cache:il1 il1:1:32:256:l -cache:il2 dl2
-------------------------------------------------------------------------------------------------
sim_num_insn                                460113 |       460113 |       460113 |       460113 |       988516 |       988516 |       988516 |       988516 |      2131722 |      2131722 |      2131722 |      2131722 |      4531357 |      4531357 |      4531357 |      4531357 |      9787156 |      9787156 |      9787156 |      9787156 |     20546317 |     20546317 |     20546317 |     20546317 |     44360050 |     44360050 |     44360050 |     44360050 |     92847284 |     92847284 |     92847284 |     92847284 |    195558716 |    195558716 |    195558716 |    195558716 |    410646219 |    410646219 |    410646219 |    410646219 |    851977447 |    851977447 |    851977447 |    851977447 |
sim_num_refs                                123082 |       123082 |       123082 |       123082 |       261453 |       261453 |       261453 |       261453 |       555127 |       555127 |       555127 |       555127 |      1170783 |      1170783 |      1170783 |      1170783 |      2497128 |      2497128 |      2497128 |      2497128 |      5230019 |      5230019 |      5230019 |      5230019 |     11149512 |     11149512 |     11149512 |     11149512 |     23311830 |     23311830 |     23311830 |     23311830 |     48882692 |     48882692 |     48882692 |     48882692 |    102238620 |    102238620 |    102238620 |    102238620 |    212263791 |    212263791 |    212263791 |    212263791 |
sim_elapsed_time                                 1 |            1 |            7 |            3 |            1 |            1 |           10 |            5 |            1 |            1 |           16 |            7 |            1 |            1 |           27 |           13 |            3 |            3 |           48 |           24 |            5 |            6 |           89 |           44 |           12 |           12 |          164 |           77 |           25 |           24 |          282 |          110 |           51 |           52 |          393 |          146 |          109 |          109 |          455 |          203 |          226 |          224 |          582 |          330 |
sim_inst_rate                          460113.0000 |  460113.0000 |   65730.4286 |  153371.0000 |  988516.0000 |  988516.0000 |   98851.6000 |  197703.2000 | 2131722.0000 | 2131722.0000 |  133232.6250 |  304531.7143 | 4531357.0000 | 4531357.0000 |  167828.0370 |  348565.9231 | 3262385.3333 | 3262385.3333 |  203899.0833 |  407798.1667 | 4109263.4000 | 3424386.1667 |  230857.4944 |  466961.7500 | 3696670.8333 | 3696670.8333 |  270488.1098 |  576104.5455 | 3713891.3600 | 3868636.8333 |  329245.6879 |  844066.2182 | 3834484.6275 | 3760744.5385 |  497604.8753 | 1339443.2603 | 3767396.5046 | 3767396.5046 |  902519.1626 | 2022887.7783 | 3769811.7124 | 3803470.7455 | 1463878.7749 | 2581749.8394 |
il1.accesses                                460113 |       460113 |       460113 |       460113 |       988516 |       988516 |       988516 |       988516 |      2131722 |      2131722 |      2131722 |      2131722 |      4531357 |      4531357 |      4531357 |      4531357 |      9787156 |      9787156 |      9787156 |      9787156 |     20546317 |     20546317 |     20546317 |     20546317 |     44360050 |     44360050 |     44360050 |     44360050 |     92847284 |     92847284 |     92847284 |     92847284 |    195558716 |    195558716 |    195558716 |    195558716 |    410646219 |    410646219 |    410646219 |    410646219 |    851977447 |    851977447 |    851977447 |    851977447 |
il1.hits                                    459648 |       459648 |       459684 |       459684 |       988054 |       988054 |       988087 |       988087 |      2131270 |      2131270 |      2131296 |      2131296 |      4530892 |      4530892 |      4530926 |      4530926 |      9786691 |      9786691 |      9786725 |      9786725 |     20545852 |     20545852 |     20545886 |     20545886 |     44359585 |     44359585 |     44359619 |     44359619 |     92846819 |     92846819 |     92846853 |     92846853 |    195558251 |    195558251 |    195558285 |    195558285 |    410645754 |    410645754 |    410645788 |    410645788 |    851976982 |    851976982 |    851977016 |    851977016 |
il1.misses                                     465 |          465 |          429 |          429 |          462 |          462 |          429 |          429 |          452 |          452 |          426 |          426 |          465 |          465 |          431 |          431 |          465 |          465 |          431 |          431 |          465 |          465 |          431 |          431 |          465 |          465 |          431 |          431 |          465 |          465 |          431 |          431 |          465 |          465 |          431 |          431 |          465 |          465 |          431 |          431 |          465 |          465 |          431 |          431 |
il1.replacements                               225 |          225 |          173 |          173 |          223 |          223 |          173 |          173 |          214 |          214 |          170 |          170 |          227 |          227 |          175 |          175 |          227 |          227 |          175 |          175 |          227 |          227 |          175 |          175 |          227 |          227 |          175 |          175 |          227 |          227 |          175 |          175 |          227 |          227 |          175 |          175 |          227 |          227 |          175 |          175 |          227 |          227 |          175 |          175 |
il1.writebacks                                   0 |            0 |            0 |            0 |            0 |            0 |            0 |            0 |            0 |            0 |            0 |            0 |            0 |            0 |            0 |            0 |            0 |            0 |            0 |            0 |            0 |            0 |            0 |            0 |            0 |            0 |            0 |            0 |            0 |            0 |            0 |            0 |            0 |            0 |            0 |            0 |            0 |            0 |            0 |            0 |            0 |            0 |            0 |            0 |
il1.invalidations                                0 |            0 |            0 |            0 |            0 |            0 |            0 |            0 |            0 |            0 |            0 |            0 |            0 |            0 |            0 |            0 |            0 |            0 |            0 |            0 |            0 |            0 |            0 |            0 |            0 |            0 |            0 |            0 |            0 |            0 |            0 |            0 |            0 |            0 |            0 |            0 |            0 |            0 |            0 |            0 |            0 |            0 |            0 |            0 |
il1.miss_rate                               0.0010 |       0.0010 |       0.0009 |       0.0009 |       0.0005 |       0.0005 |       0.0004 |       0.0004 |       0.0002 |       0.0002 |       0.0002 |       0.0002 |       0.0001 |       0.0001 |       0.0001 |       0.0001 |       0.0000 |       0.0000 |       0.0000 |       0.0000 |       0.0000 |       0.0000 |       0.0000 |       0.0000 |       0.0000 |       0.0000 |       0.0000 |       0.0000 |       0.0000 |       0.0000 |       0.0000 |       0.0000 |       0.0000 |       0.0000 |       0.0000 |       0.0000 |       0.0000 |       0.0000 |       0.0000 |       0.0000 |       0.0000 |       0.0000 |       0.0000 |       0.0000 |
il1.repl_rate                               0.0005 |       0.0005 |       0.0004 |       0.0004 |       0.0002 |       0.0002 |       0.0002 |       0.0002 |       0.0001 |       0.0001 |       0.0001 |       0.0001 |       0.0001 |       0.0001 |       0.0000 |       0.0000 |       0.0000 |       0.0000 |       0.0000 |       0.0000 |       0.0000 |       0.0000 |       0.0000 |       0.0000 |       0.0000 |       0.0000 |       0.0000 |       0.0000 |       0.0000 |       0.0000 |       0.0000 |       0.0000 |       0.0000 |       0.0000 |       0.0000 |       0.0000 |       0.0000 |       0.0000 |       0.0000 |       0.0000 |       0.0000 |       0.0000 |       0.0000 |       0.0000 |
il1.wb_rate                                 0.0000 |       0.0000 |       0.0000 |       0.0000 |       0.0000 |       0.0000 |       0.0000 |       0.0000 |       0.0000 |       0.0000 |       0.0000 |       0.0000 |       0.0000 |       0.0000 |       0.0000 |       0.0000 |       0.0000 |       0.0000 |       0.0000 |       0.0000 |       0.0000 |       0.0000 |       0.0000 |       0.0000 |       0.0000 |       0.0000 |       0.0000 |       0.0000 |       0.0000 |       0.0000 |       0.0000 |       0.0000 |       0.0000 |       0.0000 |       0.0000 |       0.0000 |       0.0000 |       0.0000 |       0.0000 |       0.0000 |       0.0000 |       0.0000 |       0.0000 |       0.0000 |
il1.inv_rate                                0.0000 |       0.0000 |       0.0000 |       0.0000 |       0.0000 |       0.0000 |       0.0000 |       0.0000 |       0.0000 |       0.0000 |       0.0000 |       0.0000 |       0.0000 |       0.0000 |       0.0000 |       0.0000 |       0.0000 |       0.0000 |       0.0000 |       0.0000 |       0.0000 |       0.0000 |       0.0000 |       0.0000 |       0.0000 |       0.0000 |       0.0000 |       0.0000 |       0.0000 |       0.0000 |       0.0000 |       0.0000 |       0.0000 |       0.0000 |       0.0000 |       0.0000 |       0.0000 |       0.0000 |       0.0000 |       0.0000 |       0.0000 |       0.0000 |       0.0000 |       0.0000 |
dl1.accesses                                139548 |       139548 |       139548 |       139548 |       294303 |       294303 |       294303 |       294303 |       620745 |       620745 |       620745 |       620745 |      1301937 |      1301937 |      1301937 |      1301937 |      2759354 |      2759354 |      2759354 |      2759354 |      5754389 |      5754389 |      5754389 |      5754389 |     12198170 |     12198170 |     12198170 |     12198170 |     25409064 |     25409064 |     25409064 |     25409064 |     53077078 |     53077078 |     53077078 |     53077078 |    110627310 |    110627310 |    110627310 |    110627310 |    229041089 |    229041089 |    229041089 |    229041089 |
dl1.hits                                    136842 |       136842 |       136840 |       136840 |       288899 |       288899 |       288696 |       288696 |       607425 |       607425 |       607310 |       607310 |      1271080 |      1271080 |      1270870 |      1270870 |      2685369 |      2685369 |      2685298 |      2685298 |      5593418 |      5593418 |      5593383 |      5593383 |     11813008 |     11813008 |     11814823 |     11814823 |     24578747 |     24578747 |     24585194 |     24585194 |     51251982 |     51251982 |     51265964 |     51265964 |    106660752 |    106660752 |    106699210 |    106699210 |    220650598 |    220650598 |    220748789 |    220748789 |
dl1.misses                                    2706 |         2706 |         2708 |         2708 |         5404 |         5404 |         5607 |         5607 |        13320 |        13320 |        13435 |        13435 |        30857 |        30857 |        31067 |        31067 |        73985 |        73985 |        74056 |        74056 |       160971 |       160971 |       161006 |       161006 |       385162 |       385162 |       383347 |       383347 |       830317 |       830317 |       823870 |       823870 |      1825096 |      1825096 |      1811114 |      1811114 |      3966558 |      3966558 |      3928100 |      3928100 |      8390491 |      8390491 |      8292300 |      8292300 |
dl1.replacements                              2450 |         2450 |         2452 |         2452 |         5148 |         5148 |         5351 |         5351 |        13064 |        13064 |        13179 |        13179 |        30601 |        30601 |        30811 |        30811 |        73729 |        73729 |        73800 |        73800 |       160715 |       160715 |       160750 |       160750 |       384906 |       384906 |       383091 |       383091 |       830061 |       830061 |       823614 |       823614 |      1824840 |      1824840 |      1810858 |      1810858 |      3966302 |      3966302 |      3927844 |      3927844 |      8390235 |      8390235 |      8292044 |      8292044 |
dl1.writebacks                                2389 |         2389 |         2409 |         2409 |         5072 |         5072 |         5295 |         5295 |        12724 |        12724 |        12936 |        12936 |        29426 |        29426 |        29863 |        29863 |        68641 |        68641 |        69284 |        69284 |       153887 |       153887 |       155225 |       155225 |       350444 |       350444 |       351866 |       351866 |       762138 |       762138 |       763717 |       763717 |      1678339 |      1678339 |      1681922 |      1681922 |      3638433 |      3638433 |      3641003 |      3641003 |      7814087 |      7814087 |      7806132 |      7806132 |
dl1.invalidations                                0 |            0 |            0 |            0 |            0 |            0 |            0 |            0 |            0 |            0 |            0 |            0 |            0 |            0 |            0 |            0 |            0 |            0 |            0 |            0 |            0 |            0 |            0 |            0 |            0 |            0 |            0 |            0 |            0 |            0 |            0 |            0 |            0 |            0 |            0 |            0 |            0 |            0 |            0 |            0 |            0 |            0 |            0 |            0 |
dl1.miss_rate                               0.0194 |       0.0194 |       0.0194 |       0.0194 |       0.0184 |       0.0184 |       0.0191 |       0.0191 |       0.0215 |       0.0215 |       0.0216 |       0.0216 |       0.0237 |       0.0237 |       0.0239 |       0.0239 |       0.0268 |       0.0268 |       0.0268 |       0.0268 |       0.0280 |       0.0280 |       0.0280 |       0.0280 |       0.0316 |       0.0316 |       0.0314 |       0.0314 |       0.0327 |       0.0327 |       0.0324 |       0.0324 |       0.0344 |       0.0344 |       0.0341 |       0.0341 |       0.0359 |       0.0359 |       0.0355 |       0.0355 |       0.0366 |       0.0366 |       0.0362 |       0.0362 |
dl1.repl_rate                               0.0176 |       0.0176 |       0.0176 |       0.0176 |       0.0175 |       0.0175 |       0.0182 |       0.0182 |       0.0210 |       0.0210 |       0.0212 |       0.0212 |       0.0235 |       0.0235 |       0.0237 |       0.0237 |       0.0267 |       0.0267 |       0.0267 |       0.0267 |       0.0279 |       0.0279 |       0.0279 |       0.0279 |       0.0316 |       0.0316 |       0.0314 |       0.0314 |       0.0327 |       0.0327 |       0.0324 |       0.0324 |       0.0344 |       0.0344 |       0.0341 |       0.0341 |       0.0359 |       0.0359 |       0.0355 |       0.0355 |       0.0366 |       0.0366 |       0.0362 |       0.0362 |
dl1.wb_rate                                 0.0171 |       0.0171 |       0.0173 |       0.0173 |       0.0172 |       0.0172 |       0.0180 |       0.0180 |       0.0205 |       0.0205 |       0.0208 |       0.0208 |       0.0226 |       0.0226 |       0.0229 |       0.0229 |       0.0249 |       0.0249 |       0.0251 |       0.0251 |       0.0267 |       0.0267 |       0.0270 |       0.0270 |       0.0287 |       0.0287 |       0.0288 |       0.0288 |       0.0300 |       0.0300 |       0.0301 |       0.0301 |       0.0316 |       0.0316 |       0.0317 |       0.0317 |       0.0329 |       0.0329 |       0.0329 |       0.0329 |       0.0341 |       0.0341 |       0.0341 |       0.0341 |
dl1.inv_rate                                0.0000 |       0.0000 |       0.0000 |       0.0000 |       0.0000 |       0.0000 |       0.0000 |       0.0000 |       0.0000 |       0.0000 |       0.0000 |       0.0000 |       0.0000 |       0.0000 |       0.0000 |       0.0000 |       0.0000 |       0.0000 |       0.0000 |       0.0000 |       0.0000 |       0.0000 |       0.0000 |       0.0000 |       0.0000 |       0.0000 |       0.0000 |       0.0000 |       0.0000 |       0.0000 |       0.0000 |       0.0000 |       0.0000 |       0.0000 |       0.0000 |       0.0000 |       0.0000 |       0.0000 |       0.0000 |       0.0000 |       0.0000 |       0.0000 |       0.0000 |       0.0000 |
dl2.accesses                                  5560 |         5560 |         5546 |         5546 |        10938 |        10938 |        11331 |        11331 |        26496 |        26496 |        26797 |        26797 |        60748 |        60748 |        61361 |        61361 |       143091 |       143091 |       143771 |       143771 |       315323 |       315323 |       316662 |       316662 |       736071 |       736071 |       735644 |       735644 |      1592920 |      1592920 |      1588018 |      1588018 |      3503900 |      3503900 |      3493467 |      3493467 |      7605456 |      7605456 |      7569534 |      7569534 |     16205043 |     16205043 |     16098863 |     16098863 |
dl2.hits                                      4185 |         4185 |         4185 |         4185 |         9050 |         9050 |         9458 |         9458 |        23596 |        23596 |        23909 |        23909 |        55794 |        55794 |        56422 |        56422 |       134040 |       134040 |       134735 |       134735 |       298080 |       298080 |       299434 |       299434 |       702444 |       702444 |       702032 |       702032 |      1526525 |      1525769 |      1521638 |      1494062 |      3371229 |      3004219 |      3332220 |      2929813 |      6517740 |      6209551 |      6437211 |      6045754 |     13645612 |     13023896 |     13407004 |     12725951 |
dl2.misses                                    1375 |         1375 |         1361 |         1361 |         1888 |         1888 |         1873 |         1873 |         2900 |         2900 |         2888 |         2888 |         4954 |         4954 |         4939 |         4939 |         9051 |         9051 |         9036 |         9036 |        17243 |        17243 |        17228 |        17228 |        33627 |        33627 |        33612 |        33612 |        66395 |        67151 |        66380 |        93956 |       132671 |       499681 |       161247 |       563654 |      1087716 |      1395905 |      1132323 |      1523780 |      2559431 |      3181147 |      2691859 |      3372912 |
dl2.replacements                               152 |          152 |            0 |            0 |          155 |          155 |            0 |            0 |          151 |          151 |            0 |            0 |          157 |          157 |            0 |            0 |          157 |          157 |            0 |            0 |          157 |          157 |            0 |            0 |          157 |          157 |            0 |            0 |          157 |         1615 |            0 |        28420 |         1599 |       434145 |        30175 |       498118 |       956644 |      1330369 |      1001251 |      1458244 |      2428359 |      3115611 |      2560787 |      3307376 |
dl2.writebacks                                  91 |           91 |            0 |            0 |           92 |           92 |            0 |            0 |           90 |           90 |            0 |            0 |           93 |           93 |            0 |            0 |           93 |           93 |            0 |            0 |           93 |           93 |            0 |            0 |           93 |           93 |            0 |            0 |           93 |         1296 |            0 |        28124 |         1282 |       420873 |        29879 |       483498 |       913167 |      1242118 |       956633 |      1354147 |      2382960 |      3039320 |      2508706 |      3200921 |
dl2.invalidations                                0 |            0 |            0 |            0 |            0 |            0 |            0 |            0 |            0 |            0 |            0 |            0 |            0 |            0 |            0 |            0 |            0 |            0 |            0 |            0 |            0 |            0 |            0 |            0 |            0 |            0 |            0 |            0 |            0 |            0 |            0 |            0 |            0 |            0 |            0 |            0 |            0 |            0 |            0 |            0 |            0 |            0 |            0 |            0 |
dl2.miss_rate                               0.2473 |       0.2473 |       0.2454 |       0.2454 |       0.1726 |       0.1726 |       0.1653 |       0.1653 |       0.1095 |       0.1095 |       0.1078 |       0.1078 |       0.0816 |       0.0816 |       0.0805 |       0.0805 |       0.0633 |       0.0633 |       0.0628 |       0.0628 |       0.0547 |       0.0547 |       0.0544 |       0.0544 |       0.0457 |       0.0457 |       0.0457 |       0.0457 |       0.0417 |       0.0422 |       0.0418 |       0.0592 |       0.0379 |       0.1426 |       0.0462 |       0.1613 |       0.1430 |       0.1835 |       0.1496 |       0.2013 |       0.1579 |       0.1963 |       0.1672 |       0.2095 |
dl2.repl_rate                               0.0273 |       0.0273 |       0.0000 |       0.0000 |       0.0142 |       0.0142 |       0.0000 |       0.0000 |       0.0057 |       0.0057 |       0.0000 |       0.0000 |       0.0026 |       0.0026 |       0.0000 |       0.0000 |       0.0011 |       0.0011 |       0.0000 |       0.0000 |       0.0005 |       0.0005 |       0.0000 |       0.0000 |       0.0002 |       0.0002 |       0.0000 |       0.0000 |       0.0001 |       0.0010 |       0.0000 |       0.0179 |       0.0005 |       0.1239 |       0.0086 |       0.1426 |       0.1258 |       0.1749 |       0.1323 |       0.1926 |       0.1499 |       0.1923 |       0.1591 |       0.2054 |
dl2.wb_rate                                 0.0164 |       0.0164 |       0.0000 |       0.0000 |       0.0084 |       0.0084 |       0.0000 |       0.0000 |       0.0034 |       0.0034 |       0.0000 |       0.0000 |       0.0015 |       0.0015 |       0.0000 |       0.0000 |       0.0006 |       0.0006 |       0.0000 |       0.0000 |       0.0003 |       0.0003 |       0.0000 |       0.0000 |       0.0001 |       0.0001 |       0.0000 |       0.0000 |       0.0001 |       0.0008 |       0.0000 |       0.0177 |       0.0004 |       0.1201 |       0.0086 |       0.1384 |       0.1201 |       0.1633 |       0.1264 |       0.1789 |       0.1471 |       0.1876 |       0.1558 |       0.1988 |
dl2.inv_rate                                0.0000 |       0.0000 |       0.0000 |       0.0000 |       0.0000 |       0.0000 |       0.0000 |       0.0000 |       0.0000 |       0.0000 |       0.0000 |       0.0000 |       0.0000 |       0.0000 |       0.0000 |       0.0000 |       0.0000 |       0.0000 |       0.0000 |       0.0000 |       0.0000 |       0.0000 |       0.0000 |       0.0000 |       0.0000 |       0.0000 |       0.0000 |       0.0000 |       0.0000 |       0.0000 |       0.0000 |       0.0000 |       0.0000 |       0.0000 |       0.0000 |       0.0000 |       0.0000 |       0.0000 |       0.0000 |       0.0000 |       0.0000 |       0.0000 |       0.0000 |       0.0000 |
itlb.accesses                               460113 |       460113 |       460113 |       460113 |       988516 |       988516 |       988516 |       988516 |      2131722 |      2131722 |      2131722 |      2131722 |      4531357 |      4531357 |      4531357 |      4531357 |      9787156 |      9787156 |      9787156 |      9787156 |     20546317 |     20546317 |     20546317 |     20546317 |     44360050 |     44360050 |     44360050 |     44360050 |     92847284 |     92847284 |     92847284 |     92847284 |    195558716 |    195558716 |    195558716 |    195558716 |    410646219 |    410646219 |    410646219 |    410646219 |    851977447 |    851977447 |    851977447 |    851977447 |
itlb.hits                                   460103 |       460103 |       460103 |       460103 |       988506 |       988506 |       988506 |       988506 |      2131712 |      2131712 |      2131712 |      2131712 |      4531347 |      4531347 |      4531347 |      4531347 |      9787146 |      9787146 |      9787146 |      9787146 |     20546307 |     20546307 |     20546307 |     20546307 |     44360040 |     44360040 |     44360040 |     44360040 |     92847274 |     92847274 |     92847274 |     92847274 |    195558706 |    195558706 |    195558706 |    195558706 |    410646209 |    410646209 |    410646209 |    410646209 |    851977437 |    851977437 |    851977437 |    851977437 |
itlb.misses                                     10 |           10 |           10 |           10 |           10 |           10 |           10 |           10 |           10 |           10 |           10 |           10 |           10 |           10 |           10 |           10 |           10 |           10 |           10 |           10 |           10 |           10 |           10 |           10 |           10 |           10 |           10 |           10 |           10 |           10 |           10 |           10 |           10 |           10 |           10 |           10 |           10 |           10 |           10 |           10 |           10 |           10 |           10 |           10 |
itlb.replacements                                0 |            0 |            0 |            0 |            0 |            0 |            0 |            0 |            0 |            0 |            0 |            0 |            0 |            0 |            0 |            0 |            0 |            0 |            0 |            0 |            0 |            0 |            0 |            0 |            0 |            0 |            0 |            0 |            0 |            0 |            0 |            0 |            0 |            0 |            0 |            0 |            0 |            0 |            0 |            0 |            0 |            0 |            0 |            0 |
itlb.writebacks                                  0 |            0 |            0 |            0 |            0 |            0 |            0 |            0 |            0 |            0 |            0 |            0 |            0 |            0 |            0 |            0 |            0 |            0 |            0 |            0 |            0 |            0 |            0 |            0 |            0 |            0 |            0 |            0 |            0 |            0 |            0 |            0 |            0 |            0 |            0 |            0 |            0 |            0 |            0 |            0 |            0 |            0 |            0 |            0 |
itlb.invalidations                               0 |            0 |            0 |            0 |            0 |            0 |            0 |            0 |            0 |            0 |            0 |            0 |            0 |            0 |            0 |            0 |            0 |            0 |            0 |            0 |            0 |            0 |            0 |            0 |            0 |            0 |            0 |            0 |            0 |            0 |            0 |            0 |            0 |            0 |            0 |            0 |            0 |            0 |            0 |            0 |            0 |            0 |            0 |            0 |
itlb.miss_rate                              0.0000 |       0.0000 |       0.0000 |       0.0000 |       0.0000 |       0.0000 |       0.0000 |       0.0000 |       0.0000 |       0.0000 |       0.0000 |       0.0000 |       0.0000 |       0.0000 |       0.0000 |       0.0000 |       0.0000 |       0.0000 |       0.0000 |       0.0000 |       0.0000 |       0.0000 |       0.0000 |       0.0000 |       0.0000 |       0.0000 |       0.0000 |       0.0000 |       0.0000 |       0.0000 |       0.0000 |       0.0000 |       0.0000 |       0.0000 |       0.0000 |       0.0000 |       0.0000 |       0.0000 |       0.0000 |       0.0000 |       0.0000 |       0.0000 |       0.0000 |       0.0000 |
itlb.repl_rate                              0.0000 |       0.0000 |       0.0000 |       0.0000 |       0.0000 |       0.0000 |       0.0000 |       0.0000 |       0.0000 |       0.0000 |       0.0000 |       0.0000 |       0.0000 |       0.0000 |       0.0000 |       0.0000 |       0.0000 |       0.0000 |       0.0000 |       0.0000 |       0.0000 |       0.0000 |       0.0000 |       0.0000 |       0.0000 |       0.0000 |       0.0000 |       0.0000 |       0.0000 |       0.0000 |       0.0000 |       0.0000 |       0.0000 |       0.0000 |       0.0000 |       0.0000 |       0.0000 |       0.0000 |       0.0000 |       0.0000 |       0.0000 |       0.0000 |       0.0000 |       0.0000 |
itlb.wb_rate                                0.0000 |       0.0000 |       0.0000 |       0.0000 |       0.0000 |       0.0000 |       0.0000 |       0.0000 |       0.0000 |       0.0000 |       0.0000 |       0.0000 |       0.0000 |       0.0000 |       0.0000 |       0.0000 |       0.0000 |       0.0000 |       0.0000 |       0.0000 |       0.0000 |       0.0000 |       0.0000 |       0.0000 |       0.0000 |       0.0000 |       0.0000 |       0.0000 |       0.0000 |       0.0000 |       0.0000 |       0.0000 |       0.0000 |       0.0000 |       0.0000 |       0.0000 |       0.0000 |       0.0000 |       0.0000 |       0.0000 |       0.0000 |       0.0000 |       0.0000 |       0.0000 |
itlb.inv_rate                               0.0000 |       0.0000 |       0.0000 |       0.0000 |       0.0000 |       0.0000 |       0.0000 |       0.0000 |       0.0000 |       0.0000 |       0.0000 |       0.0000 |       0.0000 |       0.0000 |       0.0000 |       0.0000 |       0.0000 |       0.0000 |       0.0000 |       0.0000 |       0.0000 |       0.0000 |       0.0000 |       0.0000 |       0.0000 |       0.0000 |       0.0000 |       0.0000 |       0.0000 |       0.0000 |       0.0000 |       0.0000 |       0.0000 |       0.0000 |       0.0000 |       0.0000 |       0.0000 |       0.0000 |       0.0000 |       0.0000 |       0.0000 |       0.0000 |       0.0000 |       0.0000 |
dtlb.accesses                               139548 |       139548 |       139548 |       139548 |       294303 |       294303 |       294303 |       294303 |       620745 |       620745 |       620745 |       620745 |      1301937 |      1301937 |      1301937 |      1301937 |      2759354 |      2759354 |      2759354 |      2759354 |      5754389 |      5754389 |      5754389 |      5754389 |     12198170 |     12198170 |     12198170 |     12198170 |     25409064 |     25409064 |     25409064 |     25409064 |     53077078 |     53077078 |     53077078 |     53077078 |    110627310 |    110627310 |    110627310 |    110627310 |    229041089 |    229041089 |    229041089 |    229041089 |
dtlb.hits                                   139536 |       139536 |       139536 |       139536 |       294287 |       294287 |       294287 |       294287 |       620721 |       620721 |       620721 |       620721 |      1301897 |      1301897 |      1301897 |      1301897 |      2759282 |      2759282 |      2759282 |      2759282 |      5754212 |      5754212 |      5754212 |      5754212 |     12196967 |     12196967 |     12196967 |     12196967 |     25406233 |     25406233 |     25406233 |     25406233 |     53069998 |     53069998 |     53069998 |     53069998 |    110610685 |    110610685 |    110610685 |    110610685 |    229004470 |    229004470 |    229004470 |    229004470 |
dtlb.misses                                     12 |           12 |           12 |           12 |           16 |           16 |           16 |           16 |           24 |           24 |           24 |           24 |           40 |           40 |           40 |           40 |           72 |           72 |           72 |           72 |          177 |          177 |          177 |          177 |         1203 |         1203 |         1203 |         1203 |         2831 |         2831 |         2831 |         2831 |         7080 |         7080 |         7080 |         7080 |        16625 |        16625 |        16625 |        16625 |        36619 |        36619 |        36619 |        36619 |
dtlb.replacements                                0 |            0 |            0 |            0 |            0 |            0 |            0 |            0 |            0 |            0 |            0 |            0 |            0 |            0 |            0 |            0 |            0 |            0 |            0 |            0 |           49 |           49 |           49 |           49 |         1075 |         1075 |         1075 |         1075 |         2703 |         2703 |         2703 |         2703 |         6952 |         6952 |         6952 |         6952 |        16497 |        16497 |        16497 |        16497 |        36491 |        36491 |        36491 |        36491 |
dtlb.writebacks                                  0 |            0 |            0 |            0 |            0 |            0 |            0 |            0 |            0 |            0 |            0 |            0 |            0 |            0 |            0 |            0 |            0 |            0 |            0 |            0 |           46 |           46 |           46 |           46 |         1070 |         1070 |         1070 |         1070 |         2695 |         2695 |         2695 |         2695 |         6934 |         6934 |         6934 |         6934 |        16465 |        16465 |        16465 |        16465 |        36423 |        36423 |        36423 |        36423 |
dtlb.invalidations                               0 |            0 |            0 |            0 |            0 |            0 |            0 |            0 |            0 |            0 |            0 |            0 |            0 |            0 |            0 |            0 |            0 |            0 |            0 |            0 |            0 |            0 |            0 |            0 |            0 |            0 |            0 |            0 |            0 |            0 |            0 |            0 |            0 |            0 |            0 |            0 |            0 |            0 |            0 |            0 |            0 |            0 |            0 |            0 |
dtlb.miss_rate                              0.0001 |       0.0001 |       0.0001 |       0.0001 |       0.0001 |       0.0001 |       0.0001 |       0.0001 |       0.0000 |       0.0000 |       0.0000 |       0.0000 |       0.0000 |       0.0000 |       0.0000 |       0.0000 |       0.0000 |       0.0000 |       0.0000 |       0.0000 |       0.0000 |       0.0000 |       0.0000 |       0.0000 |       0.0001 |       0.0001 |       0.0001 |       0.0001 |       0.0001 |       0.0001 |       0.0001 |       0.0001 |       0.0001 |       0.0001 |       0.0001 |       0.0001 |       0.0002 |       0.0002 |       0.0002 |       0.0002 |       0.0002 |       0.0002 |       0.0002 |       0.0002 |
dtlb.repl_rate                              0.0000 |       0.0000 |       0.0000 |       0.0000 |       0.0000 |       0.0000 |       0.0000 |       0.0000 |       0.0000 |       0.0000 |       0.0000 |       0.0000 |       0.0000 |       0.0000 |       0.0000 |       0.0000 |       0.0000 |       0.0000 |       0.0000 |       0.0000 |       0.0000 |       0.0000 |       0.0000 |       0.0000 |       0.0001 |       0.0001 |       0.0001 |       0.0001 |       0.0001 |       0.0001 |       0.0001 |       0.0001 |       0.0001 |       0.0001 |       0.0001 |       0.0001 |       0.0001 |       0.0001 |       0.0001 |       0.0001 |       0.0002 |       0.0002 |       0.0002 |       0.0002 |
dtlb.wb_rate                                0.0000 |       0.0000 |       0.0000 |       0.0000 |       0.0000 |       0.0000 |       0.0000 |       0.0000 |       0.0000 |       0.0000 |       0.0000 |       0.0000 |       0.0000 |       0.0000 |       0.0000 |       0.0000 |       0.0000 |       0.0000 |       0.0000 |       0.0000 |       0.0000 |       0.0000 |       0.0000 |       0.0000 |       0.0001 |       0.0001 |       0.0001 |       0.0001 |       0.0001 |       0.0001 |       0.0001 |       0.0001 |       0.0001 |       0.0001 |       0.0001 |       0.0001 |       0.0001 |       0.0001 |       0.0001 |       0.0001 |       0.0002 |       0.0002 |       0.0002 |       0.0002 |
dtlb.inv_rate                               0.0000 |       0.0000 |       0.0000 |       0.0000 |       0.0000 |       0.0000 |       0.0000 |       0.0000 |       0.0000 |       0.0000 |       0.0000 |       0.0000 |       0.0000 |       0.0000 |       0.0000 |       0.0000 |       0.0000 |       0.0000 |       0.0000 |       0.0000 |       0.0000 |       0.0000 |       0.0000 |       0.0000 |       0.0000 |       0.0000 |       0.0000 |       0.0000 |       0.0000 |       0.0000 |       0.0000 |       0.0000 |       0.0000 |       0.0000 |       0.0000 |       0.0000 |       0.0000 |       0.0000 |       0.0000 |       0.0000 |       0.0000 |       0.0000 |       0.0000 |       0.0000 |
ld_text_base                            0x00400000 |   0x00400000 |   0x00400000 |   0x00400000 |   0x00400000 |   0x00400000 |   0x00400000 |   0x00400000 |   0x00400000 |   0x00400000 |   0x00400000 |   0x00400000 |   0x00400000 |   0x00400000 |   0x00400000 |   0x00400000 |   0x00400000 |   0x00400000 |   0x00400000 |   0x00400000 |   0x00400000 |   0x00400000 |   0x00400000 |   0x00400000 |   0x00400000 |   0x00400000 |   0x00400000 |   0x00400000 |   0x00400000 |   0x00400000 |   0x00400000 |   0x00400000 |   0x00400000 |   0x00400000 |   0x00400000 |   0x00400000 |   0x00400000 |   0x00400000 |   0x00400000 |   0x00400000 |   0x00400000 |   0x00400000 |   0x00400000 |   0x00400000 |
ld_text_size                                 73600 |        73600 |        73600 |        73600 |        73632 |        73632 |        73632 |        73632 |        73648 |        73648 |        73648 |        73648 |        73664 |        73664 |        73664 |        73664 |        73664 |        73664 |        73664 |        73664 |        73664 |        73664 |        73664 |        73664 |        73664 |        73664 |        73664 |        73664 |        73664 |        73664 |        73664 |        73664 |        73664 |        73664 |        73664 |        73664 |        73664 |        73664 |        73664 |        73664 |        73664 |        73664 |        73664 |        73664 |
ld_data_base                            0x10000000 |   0x10000000 |   0x10000000 |   0x10000000 |   0x10000000 |   0x10000000 |   0x10000000 |   0x10000000 |   0x10000000 |   0x10000000 |   0x10000000 |   0x10000000 |   0x10000000 |   0x10000000 |   0x10000000 |   0x10000000 |   0x10000000 |   0x10000000 |   0x10000000 |   0x10000000 |   0x10000000 |   0x10000000 |   0x10000000 |   0x10000000 |   0x10000000 |   0x10000000 |   0x10000000 |   0x10000000 |   0x10000000 |   0x10000000 |   0x10000000 |   0x10000000 |   0x10000000 |   0x10000000 |   0x10000000 |   0x10000000 |   0x10000000 |   0x10000000 |   0x10000000 |   0x10000000 |   0x10000000 |   0x10000000 |   0x10000000 |   0x10000000 |
ld_data_size                                  8192 |         8192 |         8192 |         8192 |         8192 |         8192 |         8192 |         8192 |         8192 |         8192 |         8192 |         8192 |         8192 |         8192 |         8192 |         8192 |         8192 |         8192 |         8192 |         8192 |         8192 |         8192 |         8192 |         8192 |         8192 |         8192 |         8192 |         8192 |         8192 |         8192 |         8192 |         8192 |         8192 |         8192 |         8192 |         8192 |         8192 |         8192 |         8192 |         8192 |         8192 |         8192 |         8192 |         8192 |
ld_stack_base                           0x7fffc000 |   0x7fffc000 |   0x7fffc000 |   0x7fffc000 |   0x7fffc000 |   0x7fffc000 |   0x7fffc000 |   0x7fffc000 |   0x7fffc000 |   0x7fffc000 |   0x7fffc000 |   0x7fffc000 |   0x7fffc000 |   0x7fffc000 |   0x7fffc000 |   0x7fffc000 |   0x7fffc000 |   0x7fffc000 |   0x7fffc000 |   0x7fffc000 |   0x7fffc000 |   0x7fffc000 |   0x7fffc000 |   0x7fffc000 |   0x7fffc000 |   0x7fffc000 |   0x7fffc000 |   0x7fffc000 |   0x7fffc000 |   0x7fffc000 |   0x7fffc000 |   0x7fffc000 |   0x7fffc000 |   0x7fffc000 |   0x7fffc000 |   0x7fffc000 |   0x7fffc000 |   0x7fffc000 |   0x7fffc000 |   0x7fffc000 |   0x7fffc000 |   0x7fffc000 |   0x7fffc000 |   0x7fffc000 |
ld_stack_size                                16384 |        16384 |        16384 |        16384 |        16384 |        16384 |        16384 |        16384 |        16384 |        16384 |        16384 |        16384 |        16384 |        16384 |        16384 |        16384 |        16384 |        16384 |        16384 |        16384 |        16384 |        16384 |        16384 |        16384 |        16384 |        16384 |        16384 |        16384 |        16384 |        16384 |        16384 |        16384 |        16384 |        16384 |        16384 |        16384 |        16384 |        16384 |        16384 |        16384 |        16384 |        16384 |        16384 |        16384 |
ld_prog_entry                           0x00400140 |   0x00400140 |   0x00400140 |   0x00400140 |   0x00400140 |   0x00400140 |   0x00400140 |   0x00400140 |   0x00400140 |   0x00400140 |   0x00400140 |   0x00400140 |   0x00400140 |   0x00400140 |   0x00400140 |   0x00400140 |   0x00400140 |   0x00400140 |   0x00400140 |   0x00400140 |   0x00400140 |   0x00400140 |   0x00400140 |   0x00400140 |   0x00400140 |   0x00400140 |   0x00400140 |   0x00400140 |   0x00400140 |   0x00400140 |   0x00400140 |   0x00400140 |   0x00400140 |   0x00400140 |   0x00400140 |   0x00400140 |   0x00400140 |   0x00400140 |   0x00400140 |   0x00400140 |   0x00400140 |   0x00400140 |   0x00400140 |   0x00400140 |
ld_environ_base                         0x7fff8000 |   0x7fff8000 |   0x7fff8000 |   0x7fff8000 |   0x7fff8000 |   0x7fff8000 |   0x7fff8000 |   0x7fff8000 |   0x7fff8000 |   0x7fff8000 |   0x7fff8000 |   0x7fff8000 |   0x7fff8000 |   0x7fff8000 |   0x7fff8000 |   0x7fff8000 |   0x7fff8000 |   0x7fff8000 |   0x7fff8000 |   0x7fff8000 |   0x7fff8000 |   0x7fff8000 |   0x7fff8000 |   0x7fff8000 |   0x7fff8000 |   0x7fff8000 |   0x7fff8000 |   0x7fff8000 |   0x7fff8000 |   0x7fff8000 |   0x7fff8000 |   0x7fff8000 |   0x7fff8000 |   0x7fff8000 |   0x7fff8000 |   0x7fff8000 |   0x7fff8000 |   0x7fff8000 |   0x7fff8000 |   0x7fff8000 |   0x7fff8000 |   0x7fff8000 |   0x7fff8000 |   0x7fff8000 |
ld_target_big_endian                             0 |            0 |            0 |            0 |            0 |            0 |            0 |            0 |            0 |            0 |            0 |            0 |            0 |            0 |            0 |            0 |            0 |            0 |            0 |            0 |            0 |            0 |            0 |            0 |            0 |            0 |            0 |            0 |            0 |            0 |            0 |            0 |            0 |            0 |            0 |            0 |            0 |            0 |            0 |            0 |            0 |            0 |            0 |            0 |
mem.page_count                                  30 |           30 |           30 |           30 |           34 |           34 |           34 |           34 |           42 |           42 |           42 |           42 |           58 |           58 |           58 |           58 |           90 |           90 |           90 |           90 |          154 |          154 |          154 |          154 |          282 |          282 |          282 |          282 |          538 |          538 |          538 |          538 |         1050 |         1050 |         1050 |         1050 |         2074 |         2074 |         2074 |         2074 |         4122 |         4122 |         4122 |         4122 |
mem.page_mem                                  120k |         120k |         120k |         120k |         136k |         136k |         136k |         136k |         168k |         168k |         168k |         168k |         232k |         232k |         232k |         232k |         360k |         360k |         360k |         360k |         616k |         616k |         616k |         616k |        1128k |        1128k |        1128k |        1128k |        2152k |        2152k |        2152k |        2152k |        4200k |        4200k |        4200k |        4200k |        8296k |        8296k |        8296k |        8296k |       16488k |       16488k |       16488k |       16488k |
mem.ptab_misses                                 30 |           30 |           30 |           30 |           34 |           34 |           34 |           34 |           42 |           42 |           42 |           42 |           58 |           58 |           58 |           58 |           90 |           90 |           90 |           90 |          154 |          154 |          154 |          154 |          282 |          282 |          282 |          282 |          538 |          538 |          538 |          538 |         1050 |         1050 |         1050 |         1050 |         2074 |         2074 |         2074 |         2074 |         4122 |         4122 |         4122 |         4122 |
mem.ptab_accesses                          2575760 |      2575760 |      2575760 |      2575760 |      4999074 |      4999074 |      4999074 |      4999074 |     10224878 |     10224878 |     10224878 |     10224878 |     21185898 |     21185898 |     21185898 |     21185898 |     45123928 |     45123928 |     45123928 |     45123928 |     94150642 |     94150642 |     94150642 |     94150642 |    202293136 |    202293136 |    202293136 |    202293136 |    422663860 |    422663860 |    422663860 |    422663860 |    888845616 |    888845616 |    888845616 |    888845616 |   1864296092 |   1864296092 |   1864296092 |   1864296092 |   3866448562 |   3866448562 |   3866448562 |   3866448562 |
mem.ptab_miss_rate                          0.0000 |       0.0000 |       0.0000 |       0.0000 |       0.0000 |       0.0000 |       0.0000 |       0.0000 |       0.0000 |       0.0000 |       0.0000 |       0.0000 |       0.0000 |       0.0000 |       0.0000 |       0.0000 |       0.0000 |       0.0000 |       0.0000 |       0.0000 |       0.0000 |       0.0000 |       0.0000 |       0.0000 |       0.0000 |       0.0000 |       0.0000 |       0.0000 |       0.0000 |       0.0000 |       0.0000 |       0.0000 |       0.0000 |       0.0000 |       0.0000 |       0.0000 |       0.0000 |       0.0000 |       0.0000 |       0.0000 |       0.0000 |       0.0000 |       0.0000 |       0.0000 |
-------------------------------------------------------------------------------------------------
sim-bpred                                     4096 |         4096 |         4096 |         4096 |         4096 |         4096 |         4096 |         8192 |         8192 |         8192 |         8192 |         8192 |         8192 |         8192 |        16384 |        16384 |        16384 |        16384 |        16384 |        16384 |        16384 |        32768 |        32768 |        32768 |        32768 |        32768 |        32768 |        32768 |        65536 |        65536 |        65536 |        65536 |        65536 |        65536 |        65536 |       131072 |       131072 |       131072 |       131072 |       131072 |       131072 |       131072 |       262144 |       262144 |       262144 |       262144 |       262144 |       262144 |       262144 |       524288 |       524288 |       524288 |       524288 |       524288 |       524288 |       524288 |      1048576 |      1048576 |      1048576 |      1048576 |      1048576 |      1048576 |      1048576 |      2097152 |      2097152 |      2097152 |      2097152 |      2097152 |      2097152 |      2097152 |      4194304 |      4194304 |      4194304 |      4194304 |      4194304 |      4194304 |      4194304 |
-bpred bimod -bpred:bimod 512
-bpred bimod -bpred:bimod 1024
-bpred bimod -bpred:bimod 2048
-bpred 2lev -bpred:2lev 1 512 10 1
-bpred 2lev -bpred:2lev 1 1024 10 1
-bpred 2lev -bpred:2lev 1 2048 10 1
-bpred 2lev -bpred:2lev 1 4096 10 1
-------------------------------------------------------------------------------------------------
sim_num_insn                                460113 |       460113 |       460113 |       460113 |       460113 |       460113 |       460113 |       988516 |       988516 |       988516 |       988516 |       988516 |       988516 |       988516 |      2131722 |      2131722 |      2131722 |      2131722 |      2131722 |      2131722 |      2131722 |      4531357 |      4531357 |      4531357 |      4531357 |      4531357 |      4531357 |      4531357 |      9787156 |      9787156 |      9787156 |      9787156 |      9787156 |      9787156 |      9787156 |     20546317 |     20546317 |     20546317 |     20546317 |     20546317 |     20546317 |     20546317 |     44360050 |     44360050 |     44360050 |     44360050 |     44360050 |     44360050 |     44360050 |     92847284 |     92847284 |     92847284 |     92847284 |     92847284 |     92847284 |     92847284 |    195558716 |    195558716 |    195558716 |    195558716 |    195558716 |    195558716 |    195558716 |    410646219 |    410646219 |    410646219 |    410646219 |    410646219 |    410646219 |    410646219 |    851977447 |    851977447 |    851977447 |    851977447 |    851977447 |    851977447 |    851977447 |
sim_num_refs                                123082 |       123082 |       123082 |       123082 |       123082 |       123082 |       123082 |       261453 |       261453 |       261453 |       261453 |       261453 |       261453 |       261453 |       555127 |       555127 |       555127 |       555127 |       555127 |       555127 |       555127 |      1170783 |      1170783 |      1170783 |      1170783 |      1170783 |      1170783 |      1170783 |      2497128 |      2497128 |      2497128 |      2497128 |      2497128 |      2497128 |      2497128 |      5230019 |      5230019 |      5230019 |      5230019 |      5230019 |      5230019 |      5230019 |     11149512 |     11149512 |     11149512 |     11149512 |     11149512 |     11149512 |     11149512 |     23311830 |     23311830 |     23311830 |     23311830 |     23311830 |     23311830 |     23311830 |     48882692 |     48882692 |     48882692 |     48882692 |     48882692 |     48882692 |     48882692 |    102238620 |    102238620 |    102238620 |    102238620 |    102238620 |    102238620 |    102238620 |    212263791 |    212263791 |    212263791 |    212263791 |    212263791 |    212263791 |    212263791 |
sim_elapsed_time                                 1 |            1 |            1 |            1 |            1 |            1 |            1 |            1 |            1 |            1 |            1 |            1 |            1 |            1 |            1 |            1 |            1 |            1 |            1 |            1 |            1 |            1 |            1 |            1 |            1 |            1 |            1 |            1 |            1 |            1 |            1 |            1 |            1 |            1 |            2 |            3 |            2 |            3 |            2 |            3 |            2 |            2 |            5 |            5 |            5 |            5 |            6 |            5 |            6 |           11 |           11 |           12 |           11 |           12 |           11 |           11 |           24 |           23 |           24 |           24 |           24 |           24 |           24 |           50 |           49 |           50 |           50 |           51 |           50 |           51 |          103 |          103 |          103 |          109 |          105 |          104 |          104 |
sim_inst_rate                          460113.0000 |  460113.0000 |  460113.0000 |  460113.0000 |  460113.0000 |  460113.0000 |  460113.0000 |  988516.0000 |  988516.0000 |  988516.0000 |  988516.0000 |  988516.0000 |  988516.0000 |  988516.0000 | 2131722.0000 | 2131722.0000 | 2131722.0000 | 2131722.0000 | 2131722.0000 | 2131722.0000 | 2131722.0000 | 4531357.0000 | 4531357.0000 | 4531357.0000 | 4531357.0000 | 4531357.0000 | 4531357.0000 | 4531357.0000 | 9787156.0000 | 9787156.0000 | 9787156.0000 | 9787156.0000 | 9787156.0000 | 9787156.0000 | 4893578.0000 | 6848772.3333 |10273158.5000 | 6848772.3333 |10273158.5000 | 6848772.3333 |10273158.5000 |10273158.5000 | 8872010.0000 | 8872010.0000 | 8872010.0000 | 8872010.0000 | 7393341.6667 | 8872010.0000 | 7393341.6667 | 8440662.1818 | 8440662.1818 | 7737273.6667 | 8440662.1818 | 7737273.6667 | 8440662.1818 | 8440662.1818 | 8148279.8333 | 8502552.8696 | 8148279.8333 | 8148279.8333 | 8148279.8333 | 8148279.8333 | 8148279.8333 | 8212924.3800 | 8380535.0816 | 8212924.3800 | 8212924.3800 | 8051886.6471 | 8212924.3800 | 8051886.6471 | 8271625.6990 | 8271625.6990 | 8271625.6990 | 7816306.8532 | 8114070.9238 | 8192090.8365 | 8192090.8365 |
sim_num_branches                             75801 |        75801 |        75801 |        75801 |        75801 |        75801 |        75801 |       164024 |       164024 |       164024 |       164024 |       164024 |       164024 |       164024 |       355945 |       355945 |       355945 |       355945 |       355945 |       355945 |       355945 |       761587 |       761587 |       761587 |       761587 |       761587 |       761587 |       761587 |      1651047 |      1651047 |      1651047 |      1651047 |      1651047 |      1651047 |      1651047 |      3475945 |      3475945 |      3475945 |      3475945 |      3475945 |      3475945 |      3475945 |      7537055 |      7537055 |      7537055 |      7537055 |      7537055 |      7537055 |      7537055 |     15826133 |     15826133 |     15826133 |     15826133 |     15826133 |     15826133 |     15826133 |     33423369 |     33423369 |     33423369 |     33423369 |     33423369 |     33423369 |     33423369 |     70323150 |     70323150 |     70323150 |     70323150 |     70323150 |     70323150 |     70323150 |    146326486 |    146326486 |    146326486 |    146326486 |    146326486 |    146326486 |    146326486 |
sim_IPB                                     6.0700 |       6.0700 |       6.0700 |       6.0700 |       6.0700 |       6.0700 |       6.0700 |       6.0267 |       6.0267 |       6.0267 |       6.0267 |       6.0267 |       6.0267 |       6.0267 |       5.9889 |       5.9889 |       5.9889 |       5.9889 |       5.9889 |       5.9889 |       5.9889 |       5.9499 |       5.9499 |       5.9499 |       5.9499 |       5.9499 |       5.9499 |       5.9499 |       5.9278 |       5.9278 |       5.9278 |       5.9278 |       5.9278 |       5.9278 |       5.9278 |       5.9110 |       5.9110 |       5.9110 |       5.9110 |       5.9110 |       5.9110 |       5.9110 |       5.8856 |       5.8856 |       5.8856 |       5.8856 |       5.8856 |       5.8856 |       5.8856 |       5.8667 |       5.8667 |       5.8667 |       5.8667 |       5.8667 |       5.8667 |       5.8667 |       5.8510 |       5.8510 |       5.8510 |       5.8510 |       5.8510 |       5.8510 |       5.8510 |       5.8394 |       5.8394 |       5.8394 |       5.8394 |       5.8394 |       5.8394 |       5.8394 |       5.8224 |       5.8224 |       5.8224 |       5.8224 |       5.8224 |       5.8224 |       5.8224 |
bpred_bimod.lookups                          75801 |        75801 |        75801 |xxxxxxxxxxxxx |xxxxxxxxxxxxx |xxxxxxxxxxxxx |xxxxxxxxxxxxx |       164024 |       164024 |       164024 |xxxxxxxxxxxxx |xxxxxxxxxxxxx |xxxxxxxxxxxxx |xxxxxxxxxxxxx |       355945 |       355945 |       355945 |xxxxxxxxxxxxx |xxxxxxxxxxxxx |xxxxxxxxxxxxx |xxxxxxxxxxxxx |       761587 |       761587 |       761587 |xxxxxxxxxxxxx |xxxxxxxxxxxxx |xxxxxxxxxxxxx |xxxxxxxxxxxxx |      1651047 |      1651047 |      1651047 |xxxxxxxxxxxxx |xxxxxxxxxxxxx |xxxxxxxxxxxxx |xxxxxxxxxxxxx |      3475945 |      3475945 |      3475945 |xxxxxxxxxxxxx |xxxxxxxxxxxxx |xxxxxxxxxxxxx |xxxxxxxxxxxxx |      7537055 |      7537055 |      7537055 |xxxxxxxxxxxxx |xxxxxxxxxxxxx |xxxxxxxxxxxxx |xxxxxxxxxxxxx |     15826133 |     15826133 |     15826133 |xxxxxxxxxxxxx |xxxxxxxxxxxxx |xxxxxxxxxxxxx |xxxxxxxxxxxxx |     33423369 |     33423369 |     33423369 |xxxxxxxxxxxxx |xxxxxxxxxxxxx |xxxxxxxxxxxxx |xxxxxxxxxxxxx |     70323150 |     70323150 |     70323150 |xxxxxxxxxxxxx |xxxxxxxxxxxxx |xxxxxxxxxxxxx |xxxxxxxxxxxxx |    146326486 |    146326486 |    146326486 |
bpred_bimod.updates                          75801 |        75801 |        75801 |xxxxxxxxxxxxx |xxxxxxxxxxxxx |xxxxxxxxxxxxx |xxxxxxxxxxxxx |       164024 |       164024 |       164024 |xxxxxxxxxxxxx |xxxxxxxxxxxxx |xxxxxxxxxxxxx |xxxxxxxxxxxxx |       355945 |       355945 |       355945 |xxxxxxxxxxxxx |xxxxxxxxxxxxx |xxxxxxxxxxxxx |xxxxxxxxxxxxx |       761587 |       761587 |       761587 |xxxxxxxxxxxxx |xxxxxxxxxxxxx |xxxxxxxxxxxxx |xxxxxxxxxxxxx |      1651047 |      1651047 |      1651047 |xxxxxxxxxxxxx |xxxxxxxxxxxxx |xxxxxxxxxxxxx |xxxxxxxxxxxxx |      3475945 |      3475945 |      3475945 |xxxxxxxxxxxxx |xxxxxxxxxxxxx |xxxxxxxxxxxxx |xxxxxxxxxxxxx |      7537055 |      7537055 |      7537055 |xxxxxxxxxxxxx |xxxxxxxxxxxxx |xxxxxxxxxxxxx |xxxxxxxxxxxxx |     15826133 |     15826133 |     15826133 |xxxxxxxxxxxxx |xxxxxxxxxxxxx |xxxxxxxxxxxxx |xxxxxxxxxxxxx |     33423369 |     33423369 |     33423369 |xxxxxxxxxxxxx |xxxxxxxxxxxxx |xxxxxxxxxxxxx |xxxxxxxxxxxxx |     70323150 |     70323150 |     70323150 |xxxxxxxxxxxxx |xxxxxxxxxxxxx |xxxxxxxxxxxxx |xxxxxxxxxxxxx |    146326486 |    146326486 |    146326486 |
bpred_bimod.addr_hits                        53069 |        53074 |        53074 |xxxxxxxxxxxxx |xxxxxxxxxxxxx |xxxxxxxxxxxxx |xxxxxxxxxxxxx |       114173 |       114172 |       114172 |xxxxxxxxxxxxx |xxxxxxxxxxxxx |xxxxxxxxxxxxx |xxxxxxxxxxxxx |       252095 |       252096 |       252095 |xxxxxxxxxxxxx |xxxxxxxxxxxxx |xxxxxxxxxxxxx |xxxxxxxxxxxxx |       536853 |       536853 |       536856 |xxxxxxxxxxxxx |xxxxxxxxxxxxx |xxxxxxxxxxxxx |xxxxxxxxxxxxx |      1176598 |      1176601 |      1176601 |xxxxxxxxxxxxx |xxxxxxxxxxxxx |xxxxxxxxxxxxx |xxxxxxxxxxxxx |      2471992 |      2471994 |      2471994 |xxxxxxxxxxxxx |xxxxxxxxxxxxx |xxxxxxxxxxxxx |xxxxxxxxxxxxx |      5452203 |      5452202 |      5452203 |xxxxxxxxxxxxx |xxxxxxxxxxxxx |xxxxxxxxxxxxx |xxxxxxxxxxxxx |     11383269 |     11383271 |     11383274 |xxxxxxxxxxxxx |xxxxxxxxxxxxx |xxxxxxxxxxxxx |xxxxxxxxxxxxx |     24163075 |     24163075 |     24163078 |xxxxxxxxxxxxx |xxxxxxxxxxxxx |xxxxxxxxxxxxx |xxxxxxxxxxxxx |     50892198 |     50892199 |     50892201 |xxxxxxxxxxxxx |xxxxxxxxxxxxx |xxxxxxxxxxxxx |xxxxxxxxxxxxx |    105480317 |    105480318 |    105480317 |
bpred_bimod.dir_hits                         53186 |        53188 |        53188 |xxxxxxxxxxxxx |xxxxxxxxxxxxx |xxxxxxxxxxxxx |xxxxxxxxxxxxx |       114287 |       114284 |       114285 |xxxxxxxxxxxxx |xxxxxxxxxxxxx |xxxxxxxxxxxxx |xxxxxxxxxxxxx |       252212 |       252211 |       252210 |xxxxxxxxxxxxx |xxxxxxxxxxxxx |xxxxxxxxxxxxx |xxxxxxxxxxxxx |       536971 |       536967 |       536969 |xxxxxxxxxxxxx |xxxxxxxxxxxxx |xxxxxxxxxxxxx |xxxxxxxxxxxxx |      1176713 |      1176713 |      1176712 |xxxxxxxxxxxxx |xxxxxxxxxxxxx |xxxxxxxxxxxxx |xxxxxxxxxxxxx |      2472110 |      2472108 |      2472107 |xxxxxxxxxxxxx |xxxxxxxxxxxxx |xxxxxxxxxxxxx |xxxxxxxxxxxxx |      5452318 |      5452314 |      5452315 |xxxxxxxxxxxxx |xxxxxxxxxxxxx |xxxxxxxxxxxxx |xxxxxxxxxxxxx |     11383383 |     11383382 |     11383384 |xxxxxxxxxxxxx |xxxxxxxxxxxxx |xxxxxxxxxxxxx |xxxxxxxxxxxxx |     24163194 |     24163190 |     24163193 |xxxxxxxxxxxxx |xxxxxxxxxxxxx |xxxxxxxxxxxxx |xxxxxxxxxxxxx |     50892313 |     50892311 |     50892312 |xxxxxxxxxxxxx |xxxxxxxxxxxxx |xxxxxxxxxxxxx |xxxxxxxxxxxxx |    105480435 |    105480433 |    105480431 |
bpred_bimod.misses                           22615 |        22613 |        22613 |xxxxxxxxxxxxx |xxxxxxxxxxxxx |xxxxxxxxxxxxx |xxxxxxxxxxxxx |        49737 |        49740 |        49739 |xxxxxxxxxxxxx |xxxxxxxxxxxxx |xxxxxxxxxxxxx |xxxxxxxxxxxxx |       103733 |       103734 |       103735 |xxxxxxxxxxxxx |xxxxxxxxxxxxx |xxxxxxxxxxxxx |xxxxxxxxxxxxx |       224616 |       224620 |       224618 |xxxxxxxxxxxxx |xxxxxxxxxxxxx |xxxxxxxxxxxxx |xxxxxxxxxxxxx |       474334 |       474334 |       474335 |xxxxxxxxxxxxx |xxxxxxxxxxxxx |xxxxxxxxxxxxx |xxxxxxxxxxxxx |      1003835 |      1003837 |      1003838 |xxxxxxxxxxxxx |xxxxxxxxxxxxx |xxxxxxxxxxxxx |xxxxxxxxxxxxx |      2084737 |      2084741 |      2084740 |xxxxxxxxxxxxx |xxxxxxxxxxxxx |xxxxxxxxxxxxx |xxxxxxxxxxxxx |      4442750 |      4442751 |      4442749 |xxxxxxxxxxxxx |xxxxxxxxxxxxx |xxxxxxxxxxxxx |xxxxxxxxxxxxx |      9260175 |      9260179 |      9260176 |xxxxxxxxxxxxx |xxxxxxxxxxxxx |xxxxxxxxxxxxx |xxxxxxxxxxxxx |     19430837 |     19430839 |     19430838 |xxxxxxxxxxxxx |xxxxxxxxxxxxx |xxxxxxxxxxxxx |xxxxxxxxxxxxx |     40846051 |     40846053 |     40846055 |
bpred_bimod.jr_hits                             64 |           64 |           64 |xxxxxxxxxxxxx |xxxxxxxxxxxxx |xxxxxxxxxxxxx |xxxxxxxxxxxxx |           64 |           64 |           64 |xxxxxxxxxxxxx |xxxxxxxxxxxxx |xxxxxxxxxxxxx |xxxxxxxxxxxxx |           64 |           64 |           64 |xxxxxxxxxxxxx |xxxxxxxxxxxxx |xxxxxxxxxxxxx |xxxxxxxxxxxxx |           64 |           64 |           64 |xxxxxxxxxxxxx |xxxxxxxxxxxxx |xxxxxxxxxxxxx |xxxxxxxxxxxxx |           64 |           64 |           64 |xxxxxxxxxxxxx |xxxxxxxxxxxxx |xxxxxxxxxxxxx |xxxxxxxxxxxxx |           64 |           64 |           64 |xxxxxxxxxxxxx |xxxxxxxxxxxxx |xxxxxxxxxxxxx |xxxxxxxxxxxxx |           64 |           64 |           64 |xxxxxxxxxxxxx |xxxxxxxxxxxxx |xxxxxxxxxxxxx |xxxxxxxxxxxxx |           64 |           64 |           64 |xxxxxxxxxxxxx |xxxxxxxxxxxxx |xxxxxxxxxxxxx |xxxxxxxxxxxxx |           64 |           64 |           64 |xxxxxxxxxxxxx |xxxxxxxxxxxxx |xxxxxxxxxxxxx |xxxxxxxxxxxxx |           64 |           64 |           64 |xxxxxxxxxxxxx |xxxxxxxxxxxxx |xxxxxxxxxxxxx |xxxxxxxxxxxxx |           64 |           64 |           64 |
bpred_bimod.jr_seen                             64 |           64 |           64 |xxxxxxxxxxxxx |xxxxxxxxxxxxx |xxxxxxxxxxxxx |xxxxxxxxxxxxx |           64 |           64 |           64 |xxxxxxxxxxxxx |xxxxxxxxxxxxx |xxxxxxxxxxxxx |xxxxxxxxxxxxx |           64 |           64 |           64 |xxxxxxxxxxxxx |xxxxxxxxxxxxx |xxxxxxxxxxxxx |xxxxxxxxxxxxx |           64 |           64 |           64 |xxxxxxxxxxxxx |xxxxxxxxxxxxx |xxxxxxxxxxxxx |xxxxxxxxxxxxx |           64 |           64 |           64 |xxxxxxxxxxxxx |xxxxxxxxxxxxx |xxxxxxxxxxxxx |xxxxxxxxxxxxx |           64 |           64 |           64 |xxxxxxxxxxxxx |xxxxxxxxxxxxx |xxxxxxxxxxxxx |xxxxxxxxxxxxx |           64 |           64 |           64 |xxxxxxxxxxxxx |xxxxxxxxxxxxx |xxxxxxxxxxxxx |xxxxxxxxxxxxx |           64 |           64 |           64 |xxxxxxxxxxxxx |xxxxxxxxxxxxx |xxxxxxxxxxxxx |xxxxxxxxxxxxx |           64 |           64 |           64 |xxxxxxxxxxxxx |xxxxxxxxxxxxx |xxxxxxxxxxxxx |xxxxxxxxxxxxx |           64 |           64 |           64 |xxxxxxxxxxxxx |xxxxxxxxxxxxx |xxxxxxxxxxxxx |xxxxxxxxxxxxx |           64 |           64 |           64 |
bpred_bimod.jr_non_ras_hits.PP                   0 |            0 |            0 |xxxxxxxxxxxxx |xxxxxxxxxxxxx |xxxxxxxxxxxxx |xxxxxxxxxxxxx |            0 |            0 |            0 |xxxxxxxxxxxxx |xxxxxxxxxxxxx |xxxxxxxxxxxxx |xxxxxxxxxxxxx |            0 |            0 |            0 |xxxxxxxxxxxxx |xxxxxxxxxxxxx |xxxxxxxxxxxxx |xxxxxxxxxxxxx |            0 |            0 |            0 |xxxxxxxxxxxxx |xxxxxxxxxxxxx |xxxxxxxxxxxxx |xxxxxxxxxxxxx |            0 |            0 |            0 |xxxxxxxxxxxxx |xxxxxxxxxxxxx |xxxxxxxxxxxxx |xxxxxxxxxxxxx |            0 |            0 |            0 |xxxxxxxxxxxxx |xxxxxxxxxxxxx |xxxxxxxxxxxxx |xxxxxxxxxxxxx |            0 |            0 |            0 |xxxxxxxxxxxxx |xxxxxxxxxxxxx |xxxxxxxxxxxxx |xxxxxxxxxxxxx |            0 |            0 |            0 |xxxxxxxxxxxxx |xxxxxxxxxxxxx |xxxxxxxxxxxxx |xxxxxxxxxxxxx |            0 |            0 |            0 |xxxxxxxxxxxxx |xxxxxxxxxxxxx |xxxxxxxxxxxxx |xxxxxxxxxxxxx |            0 |            0 |            0 |xxxxxxxxxxxxx |xxxxxxxxxxxxx |xxxxxxxxxxxxx |xxxxxxxxxxxxx |            0 |            0 |            0 |
bpred_bimod.jr_non_ras_seen.PP                   0 |            0 |            0 |xxxxxxxxxxxxx |xxxxxxxxxxxxx |xxxxxxxxxxxxx |xxxxxxxxxxxxx |            0 |            0 |            0 |xxxxxxxxxxxxx |xxxxxxxxxxxxx |xxxxxxxxxxxxx |xxxxxxxxxxxxx |            0 |            0 |            0 |xxxxxxxxxxxxx |xxxxxxxxxxxxx |xxxxxxxxxxxxx |xxxxxxxxxxxxx |            0 |            0 |            0 |xxxxxxxxxxxxx |xxxxxxxxxxxxx |xxxxxxxxxxxxx |xxxxxxxxxxxxx |            0 |            0 |            0 |xxxxxxxxxxxxx |xxxxxxxxxxxxx |xxxxxxxxxxxxx |xxxxxxxxxxxxx |            0 |            0 |            0 |xxxxxxxxxxxxx |xxxxxxxxxxxxx |xxxxxxxxxxxxx |xxxxxxxxxxxxx |            0 |            0 |            0 |xxxxxxxxxxxxx |xxxxxxxxxxxxx |xxxxxxxxxxxxx |xxxxxxxxxxxxx |            0 |            0 |            0 |xxxxxxxxxxxxx |xxxxxxxxxxxxx |xxxxxxxxxxxxx |xxxxxxxxxxxxx |            0 |            0 |            0 |xxxxxxxxxxxxx |xxxxxxxxxxxxx |xxxxxxxxxxxxx |xxxxxxxxxxxxx |            0 |            0 |            0 |xxxxxxxxxxxxx |xxxxxxxxxxxxx |xxxxxxxxxxxxx |xxxxxxxxxxxxx |            0 |            0 |            0 |
bpred_bimod.bpred_addr_rate                 0.7001 |       0.7002 |       0.7002 |xxxxxxxxxxxxx |xxxxxxxxxxxxx |xxxxxxxxxxxxx |xxxxxxxxxxxxx |       0.6961 |       0.6961 |       0.6961 |xxxxxxxxxxxxx |xxxxxxxxxxxxx |xxxxxxxxxxxxx |xxxxxxxxxxxxx |       0.7082 |       0.7082 |       0.7082 |xxxxxxxxxxxxx |xxxxxxxxxxxxx |xxxxxxxxxxxxx |xxxxxxxxxxxxx |       0.7049 |       0.7049 |       0.7049 |xxxxxxxxxxxxx |xxxxxxxxxxxxx |xxxxxxxxxxxxx |xxxxxxxxxxxxx |       0.7126 |       0.7126 |       0.7126 |xxxxxxxxxxxxx |xxxxxxxxxxxxx |xxxxxxxxxxxxx |xxxxxxxxxxxxx |       0.7112 |       0.7112 |       0.7112 |xxxxxxxxxxxxx |xxxxxxxxxxxxx |xxxxxxxxxxxxx |xxxxxxxxxxxxx |       0.7234 |       0.7234 |       0.7234 |xxxxxxxxxxxxx |xxxxxxxxxxxxx |xxxxxxxxxxxxx |xxxxxxxxxxxxx |       0.7193 |       0.7193 |       0.7193 |xxxxxxxxxxxxx |xxxxxxxxxxxxx |xxxxxxxxxxxxx |xxxxxxxxxxxxx |       0.7229 |       0.7229 |       0.7229 |xxxxxxxxxxxxx |xxxxxxxxxxxxx |xxxxxxxxxxxxx |xxxxxxxxxxxxx |       0.7237 |       0.7237 |       0.7237 |xxxxxxxxxxxxx |xxxxxxxxxxxxx |xxxxxxxxxxxxx |xxxxxxxxxxxxx |       0.7209 |       0.7209 |       0.7209 |
bpred_bimod.bpred_dir_rate                  0.7017 |       0.7017 |       0.7017 |xxxxxxxxxxxxx |xxxxxxxxxxxxx |xxxxxxxxxxxxx |xxxxxxxxxxxxx |       0.6968 |       0.6968 |       0.6968 |xxxxxxxxxxxxx |xxxxxxxxxxxxx |xxxxxxxxxxxxx |xxxxxxxxxxxxx |       0.7086 |       0.7086 |       0.7086 |xxxxxxxxxxxxx |xxxxxxxxxxxxx |xxxxxxxxxxxxx |xxxxxxxxxxxxx |       0.7051 |       0.7051 |       0.7051 |xxxxxxxxxxxxx |xxxxxxxxxxxxx |xxxxxxxxxxxxx |xxxxxxxxxxxxx |       0.7127 |       0.7127 |       0.7127 |xxxxxxxxxxxxx |xxxxxxxxxxxxx |xxxxxxxxxxxxx |xxxxxxxxxxxxx |       0.7112 |       0.7112 |       0.7112 |xxxxxxxxxxxxx |xxxxxxxxxxxxx |xxxxxxxxxxxxx |xxxxxxxxxxxxx |       0.7234 |       0.7234 |       0.7234 |xxxxxxxxxxxxx |xxxxxxxxxxxxx |xxxxxxxxxxxxx |xxxxxxxxxxxxx |       0.7193 |       0.7193 |       0.7193 |xxxxxxxxxxxxx |xxxxxxxxxxxxx |xxxxxxxxxxxxx |xxxxxxxxxxxxx |       0.7229 |       0.7229 |       0.7229 |xxxxxxxxxxxxx |xxxxxxxxxxxxx |xxxxxxxxxxxxx |xxxxxxxxxxxxx |       0.7237 |       0.7237 |       0.7237 |xxxxxxxxxxxxx |xxxxxxxxxxxxx |xxxxxxxxxxxxx |xxxxxxxxxxxxx |       0.7209 |       0.7209 |       0.7209 |
bpred_bimod.bpred_jr_rate                   1.0000 |       1.0000 |       1.0000 |xxxxxxxxxxxxx |xxxxxxxxxxxxx |xxxxxxxxxxxxx |xxxxxxxxxxxxx |       1.0000 |       1.0000 |       1.0000 |xxxxxxxxxxxxx |xxxxxxxxxxxxx |xxxxxxxxxxxxx |xxxxxxxxxxxxx |       1.0000 |       1.0000 |       1.0000 |xxxxxxxxxxxxx |xxxxxxxxxxxxx |xxxxxxxxxxxxx |xxxxxxxxxxxxx |       1.0000 |       1.0000 |       1.0000 |xxxxxxxxxxxxx |xxxxxxxxxxxxx |xxxxxxxxxxxxx |xxxxxxxxxxxxx |       1.0000 |       1.0000 |       1.0000 |xxxxxxxxxxxxx |xxxxxxxxxxxxx |xxxxxxxxxxxxx |xxxxxxxxxxxxx |       1.0000 |       1.0000 |       1.0000 |xxxxxxxxxxxxx |xxxxxxxxxxxxx |xxxxxxxxxxxxx |xxxxxxxxxxxxx |       1.0000 |       1.0000 |       1.0000 |xxxxxxxxxxxxx |xxxxxxxxxxxxx |xxxxxxxxxxxxx |xxxxxxxxxxxxx |       1.0000 |       1.0000 |       1.0000 |xxxxxxxxxxxxx |xxxxxxxxxxxxx |xxxxxxxxxxxxx |xxxxxxxxxxxxx |       1.0000 |       1.0000 |       1.0000 |xxxxxxxxxxxxx |xxxxxxxxxxxxx |xxxxxxxxxxxxx |xxxxxxxxxxxxx |       1.0000 |       1.0000 |       1.0000 |xxxxxxxxxxxxx |xxxxxxxxxxxxx |xxxxxxxxxxxxx |xxxxxxxxxxxxx |       1.0000 |       1.0000 |       1.0000 |
bpred_bimod.bpred_jr_non_ras_rate.PP       <error: |      <error: |      <error: |xxxxxxxxxxxxx |xxxxxxxxxxxxx |xxxxxxxxxxxxx |xxxxxxxxxxxxx |      <error: |      <error: |      <error: |xxxxxxxxxxxxx |xxxxxxxxxxxxx |xxxxxxxxxxxxx |xxxxxxxxxxxxx |      <error: |      <error: |      <error: |xxxxxxxxxxxxx |xxxxxxxxxxxxx |xxxxxxxxxxxxx |xxxxxxxxxxxxx |      <error: |      <error: |      <error: |xxxxxxxxxxxxx |xxxxxxxxxxxxx |xxxxxxxxxxxxx |xxxxxxxxxxxxx |      <error: |      <error: |      <error: |xxxxxxxxxxxxx |xxxxxxxxxxxxx |xxxxxxxxxxxxx |xxxxxxxxxxxxx |      <error: |      <error: |      <error: |xxxxxxxxxxxxx |xxxxxxxxxxxxx |xxxxxxxxxxxxx |xxxxxxxxxxxxx |      <error: |      <error: |      <error: |xxxxxxxxxxxxx |xxxxxxxxxxxxx |xxxxxxxxxxxxx |xxxxxxxxxxxxx |      <error: |      <error: |      <error: |xxxxxxxxxxxxx |xxxxxxxxxxxxx |xxxxxxxxxxxxx |xxxxxxxxxxxxx |      <error: |      <error: |      <error: |xxxxxxxxxxxxx |xxxxxxxxxxxxx |xxxxxxxxxxxxx |xxxxxxxxxxxxx |      <error: |      <error: |      <error: |xxxxxxxxxxxxx |xxxxxxxxxxxxx |xxxxxxxxxxxxx |xxxxxxxxxxxxx |      <error: |      <error: |      <error: |
bpred_bimod.retstack_pushes                     66 |           66 |           66 |xxxxxxxxxxxxx |xxxxxxxxxxxxx |xxxxxxxxxxxxx |xxxxxxxxxxxxx |           66 |           66 |           66 |xxxxxxxxxxxxx |xxxxxxxxxxxxx |xxxxxxxxxxxxx |xxxxxxxxxxxxx |           66 |           66 |           66 |xxxxxxxxxxxxx |xxxxxxxxxxxxx |xxxxxxxxxxxxx |xxxxxxxxxxxxx |           66 |           66 |           66 |xxxxxxxxxxxxx |xxxxxxxxxxxxx |xxxxxxxxxxxxx |xxxxxxxxxxxxx |           66 |           66 |           66 |xxxxxxxxxxxxx |xxxxxxxxxxxxx |xxxxxxxxxxxxx |xxxxxxxxxxxxx |           66 |           66 |           66 |xxxxxxxxxxxxx |xxxxxxxxxxxxx |xxxxxxxxxxxxx |xxxxxxxxxxxxx |           66 |           66 |           66 |xxxxxxxxxxxxx |xxxxxxxxxxxxx |xxxxxxxxxxxxx |xxxxxxxxxxxxx |           66 |           66 |           66 |xxxxxxxxxxxxx |xxxxxxxxxxxxx |xxxxxxxxxxxxx |xxxxxxxxxxxxx |           66 |           66 |           66 |xxxxxxxxxxxxx |xxxxxxxxxxxxx |xxxxxxxxxxxxx |xxxxxxxxxxxxx |           66 |           66 |           66 |xxxxxxxxxxxxx |xxxxxxxxxxxxx |xxxxxxxxxxxxx |xxxxxxxxxxxxx |           66 |           66 |           66 |
bpred_bimod.retstack_pops                       64 |           64 |           64 |xxxxxxxxxxxxx |xxxxxxxxxxxxx |xxxxxxxxxxxxx |xxxxxxxxxxxxx |           64 |           64 |           64 |xxxxxxxxxxxxx |xxxxxxxxxxxxx |xxxxxxxxxxxxx |xxxxxxxxxxxxx |           64 |           64 |           64 |xxxxxxxxxxxxx |xxxxxxxxxxxxx |xxxxxxxxxxxxx |xxxxxxxxxxxxx |           64 |           64 |           64 |xxxxxxxxxxxxx |xxxxxxxxxxxxx |xxxxxxxxxxxxx |xxxxxxxxxxxxx |           64 |           64 |           64 |xxxxxxxxxxxxx |xxxxxxxxxxxxx |xxxxxxxxxxxxx |xxxxxxxxxxxxx |           64 |           64 |           64 |xxxxxxxxxxxxx |xxxxxxxxxxxxx |xxxxxxxxxxxxx |xxxxxxxxxxxxx |           64 |           64 |           64 |xxxxxxxxxxxxx |xxxxxxxxxxxxx |xxxxxxxxxxxxx |xxxxxxxxxxxxx |           64 |           64 |           64 |xxxxxxxxxxxxx |xxxxxxxxxxxxx |xxxxxxxxxxxxx |xxxxxxxxxxxxx |           64 |           64 |           64 |xxxxxxxxxxxxx |xxxxxxxxxxxxx |xxxxxxxxxxxxx |xxxxxxxxxxxxx |           64 |           64 |           64 |xxxxxxxxxxxxx |xxxxxxxxxxxxx |xxxxxxxxxxxxx |xxxxxxxxxxxxx |           64 |           64 |           64 |
bpred_bimod.used_ras.PP                         64 |           64 |           64 |xxxxxxxxxxxxx |xxxxxxxxxxxxx |xxxxxxxxxxxxx |xxxxxxxxxxxxx |           64 |           64 |           64 |xxxxxxxxxxxxx |xxxxxxxxxxxxx |xxxxxxxxxxxxx |xxxxxxxxxxxxx |           64 |           64 |           64 |xxxxxxxxxxxxx |xxxxxxxxxxxxx |xxxxxxxxxxxxx |xxxxxxxxxxxxx |           64 |           64 |           64 |xxxxxxxxxxxxx |xxxxxxxxxxxxx |xxxxxxxxxxxxx |xxxxxxxxxxxxx |           64 |           64 |           64 |xxxxxxxxxxxxx |xxxxxxxxxxxxx |xxxxxxxxxxxxx |xxxxxxxxxxxxx |           64 |           64 |           64 |xxxxxxxxxxxxx |xxxxxxxxxxxxx |xxxxxxxxxxxxx |xxxxxxxxxxxxx |           64 |           64 |           64 |xxxxxxxxxxxxx |xxxxxxxxxxxxx |xxxxxxxxxxxxx |xxxxxxxxxxxxx |           64 |           64 |           64 |xxxxxxxxxxxxx |xxxxxxxxxxxxx |xxxxxxxxxxxxx |xxxxxxxxxxxxx |           64 |           64 |           64 |xxxxxxxxxxxxx |xxxxxxxxxxxxx |xxxxxxxxxxxxx |xxxxxxxxxxxxx |           64 |           64 |           64 |xxxxxxxxxxxxx |xxxxxxxxxxxxx |xxxxxxxxxxxxx |xxxxxxxxxxxxx |           64 |           64 |           64 |
bpred_bimod.ras_hits.PP                         64 |           64 |           64 |xxxxxxxxxxxxx |xxxxxxxxxxxxx |xxxxxxxxxxxxx |xxxxxxxxxxxxx |           64 |           64 |           64 |xxxxxxxxxxxxx |xxxxxxxxxxxxx |xxxxxxxxxxxxx |xxxxxxxxxxxxx |           64 |           64 |           64 |xxxxxxxxxxxxx |xxxxxxxxxxxxx |xxxxxxxxxxxxx |xxxxxxxxxxxxx |           64 |           64 |           64 |xxxxxxxxxxxxx |xxxxxxxxxxxxx |xxxxxxxxxxxxx |xxxxxxxxxxxxx |           64 |           64 |           64 |xxxxxxxxxxxxx |xxxxxxxxxxxxx |xxxxxxxxxxxxx |xxxxxxxxxxxxx |           64 |           64 |           64 |xxxxxxxxxxxxx |xxxxxxxxxxxxx |xxxxxxxxxxxxx |xxxxxxxxxxxxx |           64 |           64 |           64 |xxxxxxxxxxxxx |xxxxxxxxxxxxx |xxxxxxxxxxxxx |xxxxxxxxxxxxx |           64 |           64 |           64 |xxxxxxxxxxxxx |xxxxxxxxxxxxx |xxxxxxxxxxxxx |xxxxxxxxxxxxx |           64 |           64 |           64 |xxxxxxxxxxxxx |xxxxxxxxxxxxx |xxxxxxxxxxxxx |xxxxxxxxxxxxx |           64 |           64 |           64 |xxxxxxxxxxxxx |xxxxxxxxxxxxx |xxxxxxxxxxxxx |xxxxxxxxxxxxx |           64 |           64 |           64 |
bpred_bimod.ras_rate.PP                     1.0000 |       1.0000 |       1.0000 |xxxxxxxxxxxxx |xxxxxxxxxxxxx |xxxxxxxxxxxxx |xxxxxxxxxxxxx |       1.0000 |       1.0000 |       1.0000 |xxxxxxxxxxxxx |xxxxxxxxxxxxx |xxxxxxxxxxxxx |xxxxxxxxxxxxx |       1.0000 |       1.0000 |       1.0000 |xxxxxxxxxxxxx |xxxxxxxxxxxxx |xxxxxxxxxxxxx |xxxxxxxxxxxxx |       1.0000 |       1.0000 |       1.0000 |xxxxxxxxxxxxx |xxxxxxxxxxxxx |xxxxxxxxxxxxx |xxxxxxxxxxxxx |       1.0000 |       1.0000 |       1.0000 |xxxxxxxxxxxxx |xxxxxxxxxxxxx |xxxxxxxxxxxxx |xxxxxxxxxxxxx |       1.0000 |       1.0000 |       1.0000 |xxxxxxxxxxxxx |xxxxxxxxxxxxx |xxxxxxxxxxxxx |xxxxxxxxxxxxx |       1.0000 |       1.0000 |       1.0000 |xxxxxxxxxxxxx |xxxxxxxxxxxxx |xxxxxxxxxxxxx |xxxxxxxxxxxxx |       1.0000 |       1.0000 |       1.0000 |xxxxxxxxxxxxx |xxxxxxxxxxxxx |xxxxxxxxxxxxx |xxxxxxxxxxxxx |       1.0000 |       1.0000 |       1.0000 |xxxxxxxxxxxxx |xxxxxxxxxxxxx |xxxxxxxxxxxxx |xxxxxxxxxxxxx |       1.0000 |       1.0000 |       1.0000 |xxxxxxxxxxxxx |xxxxxxxxxxxxx |xxxxxxxxxxxxx |xxxxxxxxxxxxx |       1.0000 |       1.0000 |       1.0000 |
bpred_2lev.lookups                   xxxxxxxxxxxxx |xxxxxxxxxxxxx |xxxxxxxxxxxxx |        75801 |        75801 |        75801 |        75801 |xxxxxxxxxxxxx |xxxxxxxxxxxxx |xxxxxxxxxxxxx |       164024 |       164024 |       164024 |       164024 |xxxxxxxxxxxxx |xxxxxxxxxxxxx |xxxxxxxxxxxxx |       355945 |       355945 |       355945 |       355945 |xxxxxxxxxxxxx |xxxxxxxxxxxxx |xxxxxxxxxxxxx |       761587 |       761587 |       761587 |       761587 |xxxxxxxxxxxxx |xxxxxxxxxxxxx |xxxxxxxxxxxxx |      1651047 |      1651047 |      1651047 |      1651047 |xxxxxxxxxxxxx |xxxxxxxxxxxxx |xxxxxxxxxxxxx |      3475945 |      3475945 |      3475945 |      3475945 |xxxxxxxxxxxxx |xxxxxxxxxxxxx |xxxxxxxxxxxxx |      7537055 |      7537055 |      7537055 |      7537055 |xxxxxxxxxxxxx |xxxxxxxxxxxxx |xxxxxxxxxxxxx |     15826133 |     15826133 |     15826133 |     15826133 |xxxxxxxxxxxxx |xxxxxxxxxxxxx |xxxxxxxxxxxxx |     33423369 |     33423369 |     33423369 |     33423369 |xxxxxxxxxxxxx |xxxxxxxxxxxxx |xxxxxxxxxxxxx |     70323150 |     70323150 |     70323150 |     70323150 |xxxxxxxxxxxxx |xxxxxxxxxxxxx |xxxxxxxxxxxxx |    146326486 |    146326486 |    146326486 |    146326486 |
[...]
bpred_2lev.retstack_pushes           xxxxxxxxxxxxx |xxxxxxxxxxxxx |xxxxxxxxxxxxx |           66 |           66 |           66 |           66 |xxxxxxxxxxxxx |xxxxxxxxxxxxx |xxxxxxxxxxxxx |           66 |           66 |           66 |           66 |xxxxxxxxxxxxx |xxxxxxxxxxxxx |xxxxxxxxxxxxx |           66 |           66 |           66 |           66 |xxxxxxxxxxxxx |xxxxxxxxxxxxx |xxxxxxxxxxxxx |           66 |           66 |           66 |           66 |xxxxxxxxxxxxx |xxxxxxxxxxxxx |xxxxxxxxxxxxx |           66 |           66 |           66 |           66 |xxxxxxxxxxxxx |xxxxxxxxxxxxx |xxxxxxxxxxxxx |           66 |           66 |           66 |           66 |xxxxxxxxxxxxx |xxxxxxxxxxxxx |xxxxxxxxxxxxx |           66 |           66 |           66 |           66 |xxxxxxxxxxxxx |xxxxxxxxxxxxx |xxxxxxxxxxxxx |           66 |           66 |           66 |           66 |xxxxxxxxxxxxx |xxxxxxxxxxxxx |xxxxxxxxxxxxx |           66 |           66 |           66 |           66 |xxxxxxxxxxxxx |xxxxxxxxxxxxx |xxxxxxxxxxxxx |           66 |           66 |           66 |           66 |xxxxxxxxxxxxx |xxxxxxxxxxxxx |xxxxxxxxxxxxx |           66 |           66 |           66 |           66 |
bpred_2lev.retstack_pops             xxxxxxxxxxxxx |xxxxxxxxxxxxx |xxxxxxxxxxxxx |           64 |           64 |           64 |           64 |xxxxxxxxxxxxx |xxxxxxxxxxxxx |xxxxxxxxxxxxx |           64 |           64 |           64 |           64 |xxxxxxxxxxxxx |xxxxxxxxxxxxx |xxxxxxxxxxxxx |           64 |           64 |           64 |           64 |xxxxxxxxxxxxx |xxxxxxxxxxxxx |xxxxxxxxxxxxx |           64 |           64 |           64 |           64 |xxxxxxxxxxxxx |xxxxxxxxxxxxx |xxxxxxxxxxxxx |           64 |           64 |           64 |           64 |xxxxxxxxxxxxx |xxxxxxxxxxxxx |xxxxxxxxxxxxx |           64 |           64 |           64 |           64 |xxxxxxxxxxxxx |xxxxxxxxxxxxx |xxxxxxxxxxxxx |           64 |           64 |           64 |           64 |xxxxxxxxxxxxx |xxxxxxxxxxxxx |xxxxxxxxxxxxx |           64 |           64 |           64 |           64 |xxxxxxxxxxxxx |xxxxxxxxxxxxx |xxxxxxxxxxxxx |           64 |           64 |           64 |           64 |xxxxxxxxxxxxx |xxxxxxxxxxxxx |xxxxxxxxxxxxx |           64 |           64 |           64 |           64 |xxxxxxxxxxxxx |xxxxxxxxxxxxx |xxxxxxxxxxxxx |           64 |           64 |           64 |           64 |
bpred_2lev.used_ras.PP               xxxxxxxxxxxxx |xxxxxxxxxxxxx |xxxxxxxxxxxxx |           64 |           64 |           64 |           64 |xxxxxxxxxxxxx |xxxxxxxxxxxxx |xxxxxxxxxxxxx |           64 |           64 |           64 |           64 |xxxxxxxxxxxxx |xxxxxxxxxxxxx |xxxxxxxxxxxxx |           64 |           64 |           64 |           64 |xxxxxxxxxxxxx |xxxxxxxxxxxxx |xxxxxxxxxxxxx |           64 |           64 |           64 |           64 |xxxxxxxxxxxxx |xxxxxxxxxxxxx |xxxxxxxxxxxxx |           64 |           64 |           64 |           64 |xxxxxxxxxxxxx |xxxxxxxxxxxxx |xxxxxxxxxxxxx |           64 |           64 |           64 |           64 |xxxxxxxxxxxxx |xxxxxxxxxxxxx |xxxxxxxxxxxxx |           64 |           64 |           64 |           64 |xxxxxxxxxxxxx |xxxxxxxxxxxxx |xxxxxxxxxxxxx |           64 |           64 |           64 |           64 |xxxxxxxxxxxxx |xxxxxxxxxxxxx |xxxxxxxxxxxxx |           64 |           64 |           64 |           64 |xxxxxxxxxxxxx |xxxxxxxxxxxxx |xxxxxxxxxxxxx |           64 |           64 |           64 |           64 |xxxxxxxxxxxxx |xxxxxxxxxxxxx |xxxxxxxxxxxxx |           64 |           64 |           64 |           64 |
bpred_2lev.ras_hits.PP               xxxxxxxxxxxxx |xxxxxxxxxxxxx |xxxxxxxxxxxxx |           64 |           64 |           64 |           64 |xxxxxxxxxxxxx |xxxxxxxxxxxxx |xxxxxxxxxxxxx |           64 |           64 |           64 |           64 |xxxxxxxxxxxxx |xxxxxxxxxxxxx |xxxxxxxxxxxxx |           64 |           64 |           64 |           64 |xxxxxxxxxxxxx |xxxxxxxxxxxxx |xxxxxxxxxxxxx |           64 |           64 |           64 |           64 |xxxxxxxxxxxxx |xxxxxxxxxxxxx |xxxxxxxxxxxxx |           64 |           64 |           64 |           64 |xxxxxxxxxxxxx |xxxxxxxxxxxxx |xxxxxxxxxxxxx |           64 |           64 |           64 |           64 |xxxxxxxxxxxxx |xxxxxxxxxxxxx |xxxxxxxxxxxxx |           64 |           64 |           64 |           64 |xxxxxxxxxxxxx |xxxxxxxxxxxxx |xxxxxxxxxxxxx |           64 |           64 |           64 |           64 |xxxxxxxxxxxxx |xxxxxxxxxxxxx |xxxxxxxxxxxxx |           64 |           64 |           64 |           64 |xxxxxxxxxxxxx |xxxxxxxxxxxxx |xxxxxxxxxxxxx |           64 |           64 |           64 |           64 |xxxxxxxxxxxxx |xxxxxxxxxxxxx |xxxxxxxxxxxxx |           64 |           64 |           64 |           64 |
bpred_2lev.ras_rate.PP               xxxxxxxxxxxxx |xxxxxxxxxxxxx |xxxxxxxxxxxxx |       1.0000 |       1.0000 |       1.0000 |       1.0000 |xxxxxxxxxxxxx |xxxxxxxxxxxxx |xxxxxxxxxxxxx |       1.0000 |       1.0000 |       1.0000 |       1.0000 |xxxxxxxxxxxxx |xxxxxxxxxxxxx |xxxxxxxxxxxxx |       1.0000 |       1.0000 |       1.0000 |       1.0000 |xxxxxxxxxxxxx |xxxxxxxxxxxxx |xxxxxxxxxxxxx |       1.0000 |       1.0000 |       1.0000 |       1.0000 |xxxxxxxxxxxxx |xxxxxxxxxxxxx |xxxxxxxxxxxxx |       1.0000 |       1.0000 |       1.0000 |       1.0000 |xxxxxxxxxxxxx |xxxxxxxxxxxxx |xxxxxxxxxxxxx |       1.0000 |       1.0000 |       1.0000 |       1.0000 |xxxxxxxxxxxxx |xxxxxxxxxxxxx |xxxxxxxxxxxxx |       1.0000 |       1.0000 |       1.0000 |       1.0000 |xxxxxxxxxxxxx |xxxxxxxxxxxxx |xxxxxxxxxxxxx |       1.0000 |       1.0000 |       1.0000 |       1.0000 |xxxxxxxxxxxxx |xxxxxxxxxxxxx |xxxxxxxxxxxxx |       1.0000 |       1.0000 |       1.0000 |       1.0000 |xxxxxxxxxxxxx |xxxxxxxxxxxxx |xxxxxxxxxxxxx |       1.0000 |       1.0000 |       1.0000 |       1.0000 |xxxxxxxxxxxxx |xxxxxxxxxxxxx |xxxxxxxxxxxxx |       1.0000 |       1.0000 |       1.0000 |       1.0000 |

Command list: 
	sslittle-na-sstrix-gcc -Wall -O3 -funroll-loops -finline-functions  -DRANDOM_SIZE=4096 -DOFFSET=8 -DSORT=base_quicksort5 sorts/base_quicksort5615440366.c simpleMain.c -o base_quicksort51816856951
	sim-cache -cache:dl1 dl1:256:32:1:l -cache:dl2 dl2:131072:32:1:l -cache:il1 il1:256:32:1:l -cache:il2 dl2 base_quicksort51816856951
	sim-cache -cache:dl1 dl1:256:32:1:l -cache:dl2 dl2:65536:32:1:l -cache:il1 il1:256:32:1:l -cache:il2 dl2 base_quicksort51816856951
	sim-cache -cache:dl1 dl1:1:32:256:l -cache:dl2 dl2:1:32:131072:l -cache:il1 il1:1:32:256:l -cache:il2 dl2 base_quicksort51816856951
	sim-cache -cache:dl1 dl1:1:32:256:l -cache:dl2 dl2:1:32:65536:l -cache:il1 il1:1:32:256:l -cache:il2 dl2 base_quicksort51816856951
	sim-bpred -bpred bimod -bpred:bimod 512 base_quicksort51816856951
	sim-bpred -bpred bimod -bpred:bimod 1024 base_quicksort51816856951
	sim-bpred -bpred bimod -bpred:bimod 2048 base_quicksort51816856951
	sim-bpred -bpred 2lev -bpred:2lev 1 512 10 1 base_quicksort51816856951
	sim-bpred -bpred 2lev -bpred:2lev 1 1024 10 1 base_quicksort51816856951
	sim-bpred -bpred 2lev -bpred:2lev 1 2048 10 1 base_quicksort51816856951
	sim-bpred -bpred 2lev -bpred:2lev 1 4096 10 1 base_quicksort51816856951
	sslittle-na-sstrix-gcc -Wall -O3 -funroll-loops -finline-functions  -DRANDOM_SIZE=8192 -DOFFSET=8 -DSORT=base_quicksort5 sorts/base_quicksort5615440366.c simpleMain.c -o base_quicksort51816856951
	sim-cache -cache:dl1 dl1:256:32:1:l -cache:dl2 dl2:131072:32:1:l -cache:il1 il1:256:32:1:l -cache:il2 dl2 base_quicksort51816856951
	sim-cache -cache:dl1 dl1:256:32:1:l -cache:dl2 dl2:65536:32:1:l -cache:il1 il1:256:32:1:l -cache:il2 dl2 base_quicksort51816856951
	sim-cache -cache:dl1 dl1:1:32:256:l -cache:dl2 dl2:1:32:131072:l -cache:il1 il1:1:32:256:l -cache:il2 dl2 base_quicksort51816856951
	sim-cache -cache:dl1 dl1:1:32:256:l -cache:dl2 dl2:1:32:65536:l -cache:il1 il1:1:32:256:l -cache:il2 dl2 base_quicksort51816856951
	sim-bpred -bpred bimod -bpred:bimod 512 base_quicksort51816856951
	sim-bpred -bpred bimod -bpred:bimod 1024 base_quicksort51816856951
	sim-bpred -bpred bimod -bpred:bimod 2048 base_quicksort51816856951
	sim-bpred -bpred 2lev -bpred:2lev 1 512 10 1 base_quicksort51816856951
	sim-bpred -bpred 2lev -bpred:2lev 1 1024 10 1 base_quicksort51816856951
	sim-bpred -bpred 2lev -bpred:2lev 1 2048 10 1 base_quicksort51816856951
	sim-bpred -bpred 2lev -bpred:2lev 1 4096 10 1 base_quicksort51816856951
	sslittle-na-sstrix-gcc -Wall -O3 -funroll-loops -finline-functions  -DRANDOM_SIZE=16384 -DOFFSET=8 -DSORT=base_quicksort5 sorts/base_quicksort5615440366.c simpleMain.c -o base_quicksort51816856951
	sim-cache -cache:dl1 dl1:256:32:1:l -cache:dl2 dl2:131072:32:1:l -cache:il1 il1:256:32:1:l -cache:il2 dl2 base_quicksort51816856951
	sim-cache -cache:dl1 dl1:256:32:1:l -cache:dl2 dl2:65536:32:1:l -cache:il1 il1:256:32:1:l -cache:il2 dl2 base_quicksort51816856951
	sim-cache -cache:dl1 dl1:1:32:256:l -cache:dl2 dl2:1:32:131072:l -cache:il1 il1:1:32:256:l -cache:il2 dl2 base_quicksort51816856951
	sim-cache -cache:dl1 dl1:1:32:256:l -cache:dl2 dl2:1:32:65536:l -cache:il1 il1:1:32:256:l -cache:il2 dl2 base_quicksort51816856951
	sim-bpred -bpred bimod -bpred:bimod 512 base_quicksort51816856951
	sim-bpred -bpred bimod -bpred:bimod 1024 base_quicksort51816856951
	sim-bpred -bpred bimod -bpred:bimod 2048 base_quicksort51816856951
	sim-bpred -bpred 2lev -bpred:2lev 1 512 10 1 base_quicksort51816856951
	sim-bpred -bpred 2lev -bpred:2lev 1 1024 10 1 base_quicksort51816856951
	sim-bpred -bpred 2lev -bpred:2lev 1 2048 10 1 base_quicksort51816856951
	sim-bpred -bpred 2lev -bpred:2lev 1 4096 10 1 base_quicksort51816856951
	sslittle-na-sstrix-gcc -Wall -O3 -funroll-loops -finline-functions  -DRANDOM_SIZE=32768 -DOFFSET=8 -DSORT=base_quicksort5 sorts/base_quicksort5615440366.c simpleMain.c -o base_quicksort51816856951
	sim-cache -cache:dl1 dl1:256:32:1:l -cache:dl2 dl2:131072:32:1:l -cache:il1 il1:256:32:1:l -cache:il2 dl2 base_quicksort51816856951
	sim-cache -cache:dl1 dl1:256:32:1:l -cache:dl2 dl2:65536:32:1:l -cache:il1 il1:256:32:1:l -cache:il2 dl2 base_quicksort51816856951
	sim-cache -cache:dl1 dl1:1:32:256:l -cache:dl2 dl2:1:32:131072:l -cache:il1 il1:1:32:256:l -cache:il2 dl2 base_quicksort51816856951
	sim-cache -cache:dl1 dl1:1:32:256:l -cache:dl2 dl2:1:32:65536:l -cache:il1 il1:1:32:256:l -cache:il2 dl2 base_quicksort51816856951
	sim-bpred -bpred bimod -bpred:bimod 512 base_quicksort51816856951
	sim-bpred -bpred bimod -bpred:bimod 1024 base_quicksort51816856951
	sim-bpred -bpred bimod -bpred:bimod 2048 base_quicksort51816856951
	sim-bpred -bpred 2lev -bpred:2lev 1 512 10 1 base_quicksort51816856951
	sim-bpred -bpred 2lev -bpred:2lev 1 1024 10 1 base_quicksort51816856951
	sim-bpred -bpred 2lev -bpred:2lev 1 2048 10 1 base_quicksort51816856951
	sim-bpred -bpred 2lev -bpred:2lev 1 4096 10 1 base_quicksort51816856951
	sslittle-na-sstrix-gcc -Wall -O3 -funroll-loops -finline-functions  -DRANDOM_SIZE=65536 -DOFFSET=8 -DSORT=base_quicksort5 sorts/base_quicksort5615440366.c simpleMain.c -o base_quicksort51816856951
	sim-cache -cache:dl1 dl1:256:32:1:l -cache:dl2 dl2:131072:32:1:l -cache:il1 il1:256:32:1:l -cache:il2 dl2 base_quicksort51816856951
	sim-cache -cache:dl1 dl1:256:32:1:l -cache:dl2 dl2:65536:32:1:l -cache:il1 il1:256:32:1:l -cache:il2 dl2 base_quicksort51816856951
	sim-cache -cache:dl1 dl1:1:32:256:l -cache:dl2 dl2:1:32:131072:l -cache:il1 il1:1:32:256:l -cache:il2 dl2 base_quicksort51816856951
	sim-cache -cache:dl1 dl1:1:32:256:l -cache:dl2 dl2:1:32:65536:l -cache:il1 il1:1:32:256:l -cache:il2 dl2 base_quicksort51816856951
	sim-bpred -bpred bimod -bpred:bimod 512 base_quicksort51816856951
	sim-bpred -bpred bimod -bpred:bimod 1024 base_quicksort51816856951
	sim-bpred -bpred bimod -bpred:bimod 2048 base_quicksort51816856951
	sim-bpred -bpred 2lev -bpred:2lev 1 512 10 1 base_quicksort51816856951
	sim-bpred -bpred 2lev -bpred:2lev 1 1024 10 1 base_quicksort51816856951
	sim-bpred -bpred 2lev -bpred:2lev 1 2048 10 1 base_quicksort51816856951
	sim-bpred -bpred 2lev -bpred:2lev 1 4096 10 1 base_quicksort51816856951
	sslittle-na-sstrix-gcc -Wall -O3 -funroll-loops -finline-functions  -DRANDOM_SIZE=131072 -DOFFSET=8 -DSORT=base_quicksort5 sorts/base_quicksort5615440366.c simpleMain.c -o base_quicksort51816856951
	sim-cache -cache:dl1 dl1:256:32:1:l -cache:dl2 dl2:131072:32:1:l -cache:il1 il1:256:32:1:l -cache:il2 dl2 base_quicksort51816856951
	sim-cache -cache:dl1 dl1:256:32:1:l -cache:dl2 dl2:65536:32:1:l -cache:il1 il1:256:32:1:l -cache:il2 dl2 base_quicksort51816856951
	sim-cache -cache:dl1 dl1:1:32:256:l -cache:dl2 dl2:1:32:131072:l -cache:il1 il1:1:32:256:l -cache:il2 dl2 base_quicksort51816856951
	sim-cache -cache:dl1 dl1:1:32:256:l -cache:dl2 dl2:1:32:65536:l -cache:il1 il1:1:32:256:l -cache:il2 dl2 base_quicksort51816856951
	sim-bpred -bpred bimod -bpred:bimod 512 base_quicksort51816856951
	sim-bpred -bpred bimod -bpred:bimod 1024 base_quicksort51816856951
	sim-bpred -bpred bimod -bpred:bimod 2048 base_quicksort51816856951
	sim-bpred -bpred 2lev -bpred:2lev 1 512 10 1 base_quicksort51816856951
	sim-bpred -bpred 2lev -bpred:2lev 1 1024 10 1 base_quicksort51816856951
	sim-bpred -bpred 2lev -bpred:2lev 1 2048 10 1 base_quicksort51816856951
	sim-bpred -bpred 2lev -bpred:2lev 1 4096 10 1 base_quicksort51816856951
	sslittle-na-sstrix-gcc -Wall -O3 -funroll-loops -finline-functions  -DRANDOM_SIZE=262144 -DOFFSET=8 -DSORT=base_quicksort5 sorts/base_quicksort5615440366.c simpleMain.c -o base_quicksort51816856951
	sim-cache -cache:dl1 dl1:256:32:1:l -cache:dl2 dl2:131072:32:1:l -cache:il1 il1:256:32:1:l -cache:il2 dl2 base_quicksort51816856951
	sim-cache -cache:dl1 dl1:256:32:1:l -cache:dl2 dl2:65536:32:1:l -cache:il1 il1:256:32:1:l -cache:il2 dl2 base_quicksort51816856951
	sim-cache -cache:dl1 dl1:1:32:256:l -cache:dl2 dl2:1:32:131072:l -cache:il1 il1:1:32:256:l -cache:il2 dl2 base_quicksort51816856951
	sim-cache -cache:dl1 dl1:1:32:256:l -cache:dl2 dl2:1:32:65536:l -cache:il1 il1:1:32:256:l -cache:il2 dl2 base_quicksort51816856951
	sim-bpred -bpred bimod -bpred:bimod 512 base_quicksort51816856951
	sim-bpred -bpred bimod -bpred:bimod 1024 base_quicksort51816856951
	sim-bpred -bpred bimod -bpred:bimod 2048 base_quicksort51816856951
	sim-bpred -bpred 2lev -bpred:2lev 1 512 10 1 base_quicksort51816856951
	sim-bpred -bpred 2lev -bpred:2lev 1 1024 10 1 base_quicksort51816856951
	sim-bpred -bpred 2lev -bpred:2lev 1 2048 10 1 base_quicksort51816856951
	sim-bpred -bpred 2lev -bpred:2lev 1 4096 10 1 base_quicksort51816856951
	sslittle-na-sstrix-gcc -Wall -O3 -funroll-loops -finline-functions  -DRANDOM_SIZE=524288 -DOFFSET=8 -DSORT=base_quicksort5 sorts/base_quicksort5615440366.c simpleMain.c -o base_quicksort51816856951
	sim-cache -cache:dl1 dl1:256:32:1:l -cache:dl2 dl2:131072:32:1:l -cache:il1 il1:256:32:1:l -cache:il2 dl2 base_quicksort51816856951
	sim-cache -cache:dl1 dl1:256:32:1:l -cache:dl2 dl2:65536:32:1:l -cache:il1 il1:256:32:1:l -cache:il2 dl2 base_quicksort51816856951
	sim-cache -cache:dl1 dl1:1:32:256:l -cache:dl2 dl2:1:32:131072:l -cache:il1 il1:1:32:256:l -cache:il2 dl2 base_quicksort51816856951
	sim-cache -cache:dl1 dl1:1:32:256:l -cache:dl2 dl2:1:32:65536:l -cache:il1 il1:1:32:256:l -cache:il2 dl2 base_quicksort51816856951
	sim-bpred -bpred bimod -bpred:bimod 512 base_quicksort51816856951
	sim-bpred -bpred bimod -bpred:bimod 1024 base_quicksort51816856951
	sim-bpred -bpred bimod -bpred:bimod 2048 base_quicksort51816856951
	sim-bpred -bpred 2lev -bpred:2lev 1 512 10 1 base_quicksort51816856951
	sim-bpred -bpred 2lev -bpred:2lev 1 1024 10 1 base_quicksort51816856951
	sim-bpred -bpred 2lev -bpred:2lev 1 2048 10 1 base_quicksort51816856951
	sim-bpred -bpred 2lev -bpred:2lev 1 4096 10 1 base_quicksort51816856951
	sslittle-na-sstrix-gcc -Wall -O3 -funroll-loops -finline-functions  -DRANDOM_SIZE=1048576 -DOFFSET=8 -DSORT=base_quicksort5 sorts/base_quicksort5615440366.c simpleMain.c -o base_quicksort51816856951
	sim-cache -cache:dl1 dl1:256:32:1:l -cache:dl2 dl2:131072:32:1:l -cache:il1 il1:256:32:1:l -cache:il2 dl2 base_quicksort51816856951
	sim-cache -cache:dl1 dl1:256:32:1:l -cache:dl2 dl2:65536:32:1:l -cache:il1 il1:256:32:1:l -cache:il2 dl2 base_quicksort51816856951
	sim-cache -cache:dl1 dl1:1:32:256:l -cache:dl2 dl2:1:32:131072:l -cache:il1 il1:1:32:256:l -cache:il2 dl2 base_quicksort51816856951
	sim-cache -cache:dl1 dl1:1:32:256:l -cache:dl2 dl2:1:32:65536:l -cache:il1 il1:1:32:256:l -cache:il2 dl2 base_quicksort51816856951
	sim-bpred -bpred bimod -bpred:bimod 512 base_quicksort51816856951
	sim-bpred -bpred bimod -bpred:bimod 1024 base_quicksort51816856951
	sim-bpred -bpred bimod -bpred:bimod 2048 base_quicksort51816856951
	sim-bpred -bpred 2lev -bpred:2lev 1 512 10 1 base_quicksort51816856951
	sim-bpred -bpred 2lev -bpred:2lev 1 1024 10 1 base_quicksort51816856951
	sim-bpred -bpred 2lev -bpred:2lev 1 2048 10 1 base_quicksort51816856951
	sim-bpred -bpred 2lev -bpred:2lev 1 4096 10 1 base_quicksort51816856951
	sslittle-na-sstrix-gcc -Wall -O3 -funroll-loops -finline-functions  -DRANDOM_SIZE=2097152 -DOFFSET=8 -DSORT=base_quicksort5 sorts/base_quicksort5615440366.c simpleMain.c -o base_quicksort51816856951
	sim-cache -cache:dl1 dl1:256:32:1:l -cache:dl2 dl2:131072:32:1:l -cache:il1 il1:256:32:1:l -cache:il2 dl2 base_quicksort51816856951
	sim-cache -cache:dl1 dl1:256:32:1:l -cache:dl2 dl2:65536:32:1:l -cache:il1 il1:256:32:1:l -cache:il2 dl2 base_quicksort51816856951
	sim-cache -cache:dl1 dl1:1:32:256:l -cache:dl2 dl2:1:32:131072:l -cache:il1 il1:1:32:256:l -cache:il2 dl2 base_quicksort51816856951
	sim-cache -cache:dl1 dl1:1:32:256:l -cache:dl2 dl2:1:32:65536:l -cache:il1 il1:1:32:256:l -cache:il2 dl2 base_quicksort51816856951
	sim-bpred -bpred bimod -bpred:bimod 512 base_quicksort51816856951
	sim-bpred -bpred bimod -bpred:bimod 1024 base_quicksort51816856951
	sim-bpred -bpred bimod -bpred:bimod 2048 base_quicksort51816856951
	sim-bpred -bpred 2lev -bpred:2lev 1 512 10 1 base_quicksort51816856951
	sim-bpred -bpred 2lev -bpred:2lev 1 1024 10 1 base_quicksort51816856951
	sim-bpred -bpred 2lev -bpred:2lev 1 2048 10 1 base_quicksort51816856951
	sim-bpred -bpred 2lev -bpred:2lev 1 4096 10 1 base_quicksort51816856951
	sslittle-na-sstrix-gcc -Wall -O3 -funroll-loops -finline-functions  -DRANDOM_SIZE=4194304 -DOFFSET=8 -DSORT=base_quicksort5 sorts/base_quicksort5615440366.c simpleMain.c -o base_quicksort51816856951
	sim-cache -cache:dl1 dl1:256:32:1:l -cache:dl2 dl2:131072:32:1:l -cache:il1 il1:256:32:1:l -cache:il2 dl2 base_quicksort51816856951
	sim-cache -cache:dl1 dl1:256:32:1:l -cache:dl2 dl2:65536:32:1:l -cache:il1 il1:256:32:1:l -cache:il2 dl2 base_quicksort51816856951
	sim-cache -cache:dl1 dl1:1:32:256:l -cache:dl2 dl2:1:32:131072:l -cache:il1 il1:1:32:256:l -cache:il2 dl2 base_quicksort51816856951
	sim-cache -cache:dl1 dl1:1:32:256:l -cache:dl2 dl2:1:32:65536:l -cache:il1 il1:1:32:256:l -cache:il2 dl2 base_quicksort51816856951
	sim-bpred -bpred bimod -bpred:bimod 512 base_quicksort51816856951
	sim-bpred -bpred bimod -bpred:bimod 1024 base_quicksort51816856951
	sim-bpred -bpred bimod -bpred:bimod 2048 base_quicksort51816856951
	sim-bpred -bpred 2lev -bpred:2lev 1 512 10 1 base_quicksort51816856951
	sim-bpred -bpred 2lev -bpred:2lev 1 1024 10 1 base_quicksort51816856951
	sim-bpred -bpred 2lev -bpred:2lev 1 2048 10 1 base_quicksort51816856951
	sim-bpred -bpred 2lev -bpred:2lev 1 4096 10 1 base_quicksort51816856951
