Thu Aug  4 06:45:18 2005
Run as: "./do_simple -c random.org9 -o 9 base_quicksort7"
-------------------------------------------------------------------------------------------------
sim-cache                                     4096 |         4096 |         4096 |         4096 |         8192 |         8192 |         8192 |         8192 |        16384 |        16384 |        16384 |        16384 |        32768 |        32768 |        32768 |        32768 |        65536 |        65536 |        65536 |        65536 |       131072 |       131072 |       131072 |       131072 |       262144 |       262144 |       262144 |       262144 |       524288 |       524288 |       524288 |       524288 |      1048576 |      1048576 |      1048576 |      1048576 |      2097152 |      2097152 |      2097152 |      2097152 |      4194304 |      4194304 |      4194304 |      4194304 |
-cache:dl1 dl1:256:32:1:l -cache:dl2 dl2:131072:32:1:l -cache:il1 il1:256:32:1:l -cache:il2 dl2
-cache:dl1 dl1:256:32:1:l -cache:dl2 dl2:65536:32:1:l -cache:il1 il1:256:32:1:l -cache:il2 dl2
-cache:dl1 dl1:1:32:256:l -cache:dl2 dl2:1:32:131072:l -cache:il1 il1:1:32:256:l -cache:il2 dl2
-cache:dl1 dl1:1:32:256:l -cache:dl2 dl2:1:32:65536:l -cache:il1 il1:1:32:256:l -cache:il2 dl2
-------------------------------------------------------------------------------------------------
sim_num_insn                                477456 |       477456 |       477456 |       477456 |      1010154 |      1010154 |      1010154 |      1010154 |      2167636 |      2167636 |      2167636 |      2167636 |      4612752 |      4612752 |      4612752 |      4612752 |      9926059 |      9926059 |      9926059 |      9926059 |     20813861 |     20813861 |     20813861 |     20813861 |     43842463 |     43842463 |     43842463 |     43842463 |     92748465 |     92748465 |     92748465 |     92748465 |    195153792 |    195153792 |    195153792 |    195153792 |    408504259 |    408504259 |    408504259 |    408504259 |    856107174 |    856107174 |    856107174 |    856107174 |
sim_num_refs                                125785 |       125785 |       125785 |       125785 |       265184 |       265184 |       265184 |       265184 |       558804 |       558804 |       558804 |       558804 |      1180976 |      1180976 |      1180976 |      1180976 |      2512601 |      2512601 |      2512601 |      2512601 |      5273522 |      5273522 |      5273522 |      5273522 |     11071445 |     11071445 |     11071445 |     11071445 |     23297156 |     23297156 |     23297156 |     23297156 |     48831056 |     48831056 |     48831056 |     48831056 |    101891650 |    101891650 |    101891650 |    101891650 |    212780218 |    212780218 |    212780218 |    212780218 |
sim_elapsed_time                                 1 |            1 |            7 |            4 |            1 |            1 |           10 |            5 |            1 |            1 |           16 |            8 |            1 |            2 |           26 |           14 |            3 |            3 |           47 |           25 |            6 |            5 |           89 |           45 |           12 |           12 |          163 |           77 |           25 |           25 |          282 |          110 |           53 |           52 |          392 |          139 |          110 |          110 |          453 |          200 |          230 |          230 |          579 |          327 |
sim_inst_rate                          477456.0000 |  477456.0000 |   68208.0000 |  119364.0000 | 1010154.0000 | 1010154.0000 |  101015.4000 |  202030.8000 | 2167636.0000 | 2167636.0000 |  135477.2500 |  270954.5000 | 4612752.0000 | 2306376.0000 |  177413.5385 |  329482.2857 | 3308686.3333 | 3308686.3333 |  211192.7447 |  397042.3600 | 3468976.8333 | 4162772.2000 |  233863.6067 |  462530.2444 | 3653538.5833 | 3653538.5833 |  268972.1656 |  569382.6364 | 3709938.6000 | 3709938.6000 |  328895.2660 |  843167.8636 | 3682147.0189 | 3752957.5385 |  497841.3061 | 1403984.1151 | 3713675.0818 | 3713675.0818 |  901775.4062 | 2042521.2950 | 3722205.1043 | 3722205.1043 | 1478596.1554 | 2618064.7523 |
il1.accesses                                477456 |       477456 |       477456 |       477456 |      1010154 |      1010154 |      1010154 |      1010154 |      2167636 |      2167636 |      2167636 |      2167636 |      4612752 |      4612752 |      4612752 |      4612752 |      9926059 |      9926059 |      9926059 |      9926059 |     20813861 |     20813861 |     20813861 |     20813861 |     43842463 |     43842463 |     43842463 |     43842463 |     92748465 |     92748465 |     92748465 |     92748465 |    195153792 |    195153792 |    195153792 |    195153792 |    408504259 |    408504259 |    408504259 |    408504259 |    856107174 |    856107174 |    856107174 |    856107174 |
il1.hits                                    476989 |       476989 |       477018 |       477018 |      1009686 |      1009686 |      1009714 |      1009714 |      2167156 |      2167156 |      2167192 |      2167192 |      4612283 |      4612283 |      4612311 |      4612311 |      9925590 |      9925590 |      9925618 |      9925618 |     20813393 |     20813393 |     20813421 |     20813421 |     43841995 |     43841995 |     43842023 |     43842023 |     92747997 |     92747997 |     92748025 |     92748025 |    195153324 |    195153324 |    195153352 |    195153352 |    408503791 |    408503791 |    408503819 |    408503819 |    856106706 |    856106706 |    856106734 |    856106734 |
il1.misses                                     467 |          467 |          438 |          438 |          468 |          468 |          440 |          440 |          480 |          480 |          444 |          444 |          469 |          469 |          441 |          441 |          469 |          469 |          441 |          441 |          468 |          468 |          440 |          440 |          468 |          468 |          440 |          440 |          468 |          468 |          440 |          440 |          468 |          468 |          440 |          440 |          468 |          468 |          440 |          440 |          468 |          468 |          440 |          440 |
il1.replacements                               225 |          225 |          182 |          182 |          226 |          226 |          184 |          184 |          240 |          240 |          188 |          188 |          228 |          228 |          185 |          185 |          228 |          228 |          185 |          185 |          228 |          228 |          184 |          184 |          228 |          228 |          184 |          184 |          228 |          228 |          184 |          184 |          228 |          228 |          184 |          184 |          228 |          228 |          184 |          184 |          228 |          228 |          184 |          184 |
il1.writebacks                                   0 |            0 |            0 |            0 |            0 |            0 |            0 |            0 |            0 |            0 |            0 |            0 |            0 |            0 |            0 |            0 |            0 |            0 |            0 |            0 |            0 |            0 |            0 |            0 |            0 |            0 |            0 |            0 |            0 |            0 |            0 |            0 |            0 |            0 |            0 |            0 |            0 |            0 |            0 |            0 |            0 |            0 |            0 |            0 |
il1.invalidations                                0 |            0 |            0 |            0 |            0 |            0 |            0 |            0 |            0 |            0 |            0 |            0 |            0 |            0 |            0 |            0 |            0 |            0 |            0 |            0 |            0 |            0 |            0 |            0 |            0 |            0 |            0 |            0 |            0 |            0 |            0 |            0 |            0 |            0 |            0 |            0 |            0 |            0 |            0 |            0 |            0 |            0 |            0 |            0 |
il1.miss_rate                               0.0010 |       0.0010 |       0.0009 |       0.0009 |       0.0005 |       0.0005 |       0.0004 |       0.0004 |       0.0002 |       0.0002 |       0.0002 |       0.0002 |       0.0001 |       0.0001 |       0.0001 |       0.0001 |       0.0000 |       0.0000 |       0.0000 |       0.0000 |       0.0000 |       0.0000 |       0.0000 |       0.0000 |       0.0000 |       0.0000 |       0.0000 |       0.0000 |       0.0000 |       0.0000 |       0.0000 |       0.0000 |       0.0000 |       0.0000 |       0.0000 |       0.0000 |       0.0000 |       0.0000 |       0.0000 |       0.0000 |       0.0000 |       0.0000 |       0.0000 |       0.0000 |
il1.repl_rate                               0.0005 |       0.0005 |       0.0004 |       0.0004 |       0.0002 |       0.0002 |       0.0002 |       0.0002 |       0.0001 |       0.0001 |       0.0001 |       0.0001 |       0.0000 |       0.0000 |       0.0000 |       0.0000 |       0.0000 |       0.0000 |       0.0000 |       0.0000 |       0.0000 |       0.0000 |       0.0000 |       0.0000 |       0.0000 |       0.0000 |       0.0000 |       0.0000 |       0.0000 |       0.0000 |       0.0000 |       0.0000 |       0.0000 |       0.0000 |       0.0000 |       0.0000 |       0.0000 |       0.0000 |       0.0000 |       0.0000 |       0.0000 |       0.0000 |       0.0000 |       0.0000 |
il1.wb_rate                                 0.0000 |       0.0000 |       0.0000 |       0.0000 |       0.0000 |       0.0000 |       0.0000 |       0.0000 |       0.0000 |       0.0000 |       0.0000 |       0.0000 |       0.0000 |       0.0000 |       0.0000 |       0.0000 |       0.0000 |       0.0000 |       0.0000 |       0.0000 |       0.0000 |       0.0000 |       0.0000 |       0.0000 |       0.0000 |       0.0000 |       0.0000 |       0.0000 |       0.0000 |       0.0000 |       0.0000 |       0.0000 |       0.0000 |       0.0000 |       0.0000 |       0.0000 |       0.0000 |       0.0000 |       0.0000 |       0.0000 |       0.0000 |       0.0000 |       0.0000 |       0.0000 |
il1.inv_rate                                0.0000 |       0.0000 |       0.0000 |       0.0000 |       0.0000 |       0.0000 |       0.0000 |       0.0000 |       0.0000 |       0.0000 |       0.0000 |       0.0000 |       0.0000 |       0.0000 |       0.0000 |       0.0000 |       0.0000 |       0.0000 |       0.0000 |       0.0000 |       0.0000 |       0.0000 |       0.0000 |       0.0000 |       0.0000 |       0.0000 |       0.0000 |       0.0000 |       0.0000 |       0.0000 |       0.0000 |       0.0000 |       0.0000 |       0.0000 |       0.0000 |       0.0000 |       0.0000 |       0.0000 |       0.0000 |       0.0000 |       0.0000 |       0.0000 |       0.0000 |       0.0000 |
dl1.accesses                                142251 |       142251 |       142251 |       142251 |       298034 |       298034 |       298034 |       298034 |       624422 |       624422 |       624422 |       624422 |      1312130 |      1312130 |      1312130 |      1312130 |      2774827 |      2774827 |      2774827 |      2774827 |      5797892 |      5797892 |      5797892 |      5797892 |     12120103 |     12120103 |     12120103 |     12120103 |     25394390 |     25394390 |     25394390 |     25394390 |     53025442 |     53025442 |     53025442 |     53025442 |    110280340 |    110280340 |    110280340 |    110280340 |    229557516 |    229557516 |    229557516 |    229557516 |
dl1.hits                                    139714 |       139714 |       139717 |       139717 |       292442 |       292442 |       292360 |       292360 |       611265 |       611265 |       611191 |       611191 |      1281960 |      1281960 |      1282218 |      1282218 |      2702114 |      2702114 |      2702207 |      2702207 |      5639723 |      5639723 |      5640874 |      5640874 |     11768576 |     11768576 |     11771455 |     11771455 |     24606331 |     24606331 |     24612140 |     24612140 |     51287541 |     51287541 |     51305070 |     51305070 |    106524555 |    106524555 |    106568109 |    106568109 |    221417276 |    221417276 |    221513139 |    221513139 |
dl1.misses                                    2537 |         2537 |         2534 |         2534 |         5592 |         5592 |         5674 |         5674 |        13157 |        13157 |        13231 |        13231 |        30170 |        30170 |        29912 |        29912 |        72713 |        72713 |        72620 |        72620 |       158169 |       158169 |       157018 |       157018 |       351527 |       351527 |       348648 |       348648 |       788059 |       788059 |       782250 |       782250 |      1737901 |      1737901 |      1720372 |      1720372 |      3755785 |      3755785 |      3712231 |      3712231 |      8140240 |      8140240 |      8044377 |      8044377 |
dl1.replacements                              2281 |         2281 |         2278 |         2278 |         5336 |         5336 |         5418 |         5418 |        12901 |        12901 |        12975 |        12975 |        29914 |        29914 |        29656 |        29656 |        72457 |        72457 |        72364 |        72364 |       157913 |       157913 |       156762 |       156762 |       351271 |       351271 |       348392 |       348392 |       787803 |       787803 |       781994 |       781994 |      1737645 |      1737645 |      1720116 |      1720116 |      3755529 |      3755529 |      3711975 |      3711975 |      8139984 |      8139984 |      8044121 |      8044121 |
dl1.writebacks                                2237 |         2237 |         2250 |         2250 |         5258 |         5258 |         5373 |         5373 |        12621 |        12621 |        12794 |        12794 |        29171 |        29171 |        29206 |        29206 |        68766 |        68766 |        69372 |        69372 |       151814 |       151814 |       152248 |       152248 |       339640 |       339640 |       340378 |       340378 |       752597 |       752597 |       755124 |       755124 |      1651933 |      1651933 |      1653187 |      1653187 |      3579107 |      3579107 |      3577860 |      3577860 |      7707875 |      7707875 |      7703933 |      7703933 |
dl1.invalidations                                0 |            0 |            0 |            0 |            0 |            0 |            0 |            0 |            0 |            0 |            0 |            0 |            0 |            0 |            0 |            0 |            0 |            0 |            0 |            0 |            0 |            0 |            0 |            0 |            0 |            0 |            0 |            0 |            0 |            0 |            0 |            0 |            0 |            0 |            0 |            0 |            0 |            0 |            0 |            0 |            0 |            0 |            0 |            0 |
dl1.miss_rate                               0.0178 |       0.0178 |       0.0178 |       0.0178 |       0.0188 |       0.0188 |       0.0190 |       0.0190 |       0.0211 |       0.0211 |       0.0212 |       0.0212 |       0.0230 |       0.0230 |       0.0228 |       0.0228 |       0.0262 |       0.0262 |       0.0262 |       0.0262 |       0.0273 |       0.0273 |       0.0271 |       0.0271 |       0.0290 |       0.0290 |       0.0288 |       0.0288 |       0.0310 |       0.0310 |       0.0308 |       0.0308 |       0.0328 |       0.0328 |       0.0324 |       0.0324 |       0.0341 |       0.0341 |       0.0337 |       0.0337 |       0.0355 |       0.0355 |       0.0350 |       0.0350 |
dl1.repl_rate                               0.0160 |       0.0160 |       0.0160 |       0.0160 |       0.0179 |       0.0179 |       0.0182 |       0.0182 |       0.0207 |       0.0207 |       0.0208 |       0.0208 |       0.0228 |       0.0228 |       0.0226 |       0.0226 |       0.0261 |       0.0261 |       0.0261 |       0.0261 |       0.0272 |       0.0272 |       0.0270 |       0.0270 |       0.0290 |       0.0290 |       0.0287 |       0.0287 |       0.0310 |       0.0310 |       0.0308 |       0.0308 |       0.0328 |       0.0328 |       0.0324 |       0.0324 |       0.0341 |       0.0341 |       0.0337 |       0.0337 |       0.0355 |       0.0355 |       0.0350 |       0.0350 |
dl1.wb_rate                                 0.0157 |       0.0157 |       0.0158 |       0.0158 |       0.0176 |       0.0176 |       0.0180 |       0.0180 |       0.0202 |       0.0202 |       0.0205 |       0.0205 |       0.0222 |       0.0222 |       0.0223 |       0.0223 |       0.0248 |       0.0248 |       0.0250 |       0.0250 |       0.0262 |       0.0262 |       0.0263 |       0.0263 |       0.0280 |       0.0280 |       0.0281 |       0.0281 |       0.0296 |       0.0296 |       0.0297 |       0.0297 |       0.0312 |       0.0312 |       0.0312 |       0.0312 |       0.0325 |       0.0325 |       0.0324 |       0.0324 |       0.0336 |       0.0336 |       0.0336 |       0.0336 |
dl1.inv_rate                                0.0000 |       0.0000 |       0.0000 |       0.0000 |       0.0000 |       0.0000 |       0.0000 |       0.0000 |       0.0000 |       0.0000 |       0.0000 |       0.0000 |       0.0000 |       0.0000 |       0.0000 |       0.0000 |       0.0000 |       0.0000 |       0.0000 |       0.0000 |       0.0000 |       0.0000 |       0.0000 |       0.0000 |       0.0000 |       0.0000 |       0.0000 |       0.0000 |       0.0000 |       0.0000 |       0.0000 |       0.0000 |       0.0000 |       0.0000 |       0.0000 |       0.0000 |       0.0000 |       0.0000 |       0.0000 |       0.0000 |       0.0000 |       0.0000 |       0.0000 |       0.0000 |
dl2.accesses                                  5241 |         5241 |         5222 |         5222 |        11318 |        11318 |        11487 |        11487 |        26258 |        26258 |        26469 |        26469 |        59810 |        59810 |        59559 |        59559 |       141948 |       141948 |       142433 |       142433 |       310451 |       310451 |       309706 |       309706 |       691635 |       691635 |       689466 |       689466 |      1541124 |      1541124 |      1537814 |      1537814 |      3390302 |      3390302 |      3373999 |      3373999 |      7335360 |      7335360 |      7290531 |      7290531 |     15848583 |     15848583 |     15748750 |     15748750 |
dl2.hits                                      3856 |         3856 |         3851 |         3851 |         9419 |         9419 |         9602 |         9602 |        23338 |        23338 |        23566 |        23566 |        54845 |        54845 |        54608 |        54608 |       132887 |       132887 |       133386 |       133386 |       293199 |       293199 |       292468 |       292468 |       657999 |       657999 |       655844 |       655844 |      1474720 |      1473937 |      1471424 |      1449547 |      3257607 |      2939225 |      3162838 |      2886262 |      6458398 |      6052973 |      6295295 |      5924303 |     13191713 |     12671740 |     12958084 |     12464776 |
dl2.misses                                    1385 |         1385 |         1371 |         1371 |         1899 |         1899 |         1885 |         1885 |         2920 |         2920 |         2903 |         2903 |         4965 |         4965 |         4951 |         4951 |         9061 |         9061 |         9047 |         9047 |        17252 |        17252 |        17238 |        17238 |        33636 |        33636 |        33622 |        33622 |        66404 |        67187 |        66390 |        88267 |       132695 |       451077 |       211161 |       487737 |       876962 |      1282387 |       995236 |      1366228 |      2656870 |      3176843 |      2790666 |      3283974 |
dl2.replacements                               171 |          171 |            0 |            0 |          170 |          170 |            0 |            0 |          171 |          171 |            0 |            0 |          169 |          169 |            0 |            0 |          169 |          169 |            0 |            0 |          169 |          169 |            0 |            0 |          169 |          169 |            0 |            0 |          169 |         1651 |            0 |        22731 |         1623 |       385541 |        80089 |       422201 |       745890 |      1216851 |       864164 |      1300692 |      2525798 |      3111307 |      2659594 |      3218438 |
dl2.writebacks                                 104 |          104 |            0 |            0 |          104 |          104 |            0 |            0 |          105 |          105 |            0 |            0 |          104 |          104 |            0 |            0 |          104 |          104 |            0 |            0 |          104 |          104 |            0 |            0 |          104 |          104 |            0 |            0 |          104 |         1328 |            0 |        22422 |         1301 |       383517 |        79780 |       419877 |       741766 |      1196817 |       858231 |      1275855 |      2452503 |      3023292 |      2582420 |      3129370 |
dl2.invalidations                                0 |            0 |            0 |            0 |            0 |            0 |            0 |            0 |            0 |            0 |            0 |            0 |            0 |            0 |            0 |            0 |            0 |            0 |            0 |            0 |            0 |            0 |            0 |            0 |            0 |            0 |            0 |            0 |            0 |            0 |            0 |            0 |            0 |            0 |            0 |            0 |            0 |            0 |            0 |            0 |            0 |            0 |            0 |            0 |
dl2.miss_rate                               0.2643 |       0.2643 |       0.2625 |       0.2625 |       0.1678 |       0.1678 |       0.1641 |       0.1641 |       0.1112 |       0.1112 |       0.1097 |       0.1097 |       0.0830 |       0.0830 |       0.0831 |       0.0831 |       0.0638 |       0.0638 |       0.0635 |       0.0635 |       0.0556 |       0.0556 |       0.0557 |       0.0557 |       0.0486 |       0.0486 |       0.0488 |       0.0488 |       0.0431 |       0.0436 |       0.0432 |       0.0574 |       0.0391 |       0.1330 |       0.0626 |       0.1446 |       0.1196 |       0.1748 |       0.1365 |       0.1874 |       0.1676 |       0.2004 |       0.1772 |       0.2085 |
dl2.repl_rate                               0.0326 |       0.0326 |       0.0000 |       0.0000 |       0.0150 |       0.0150 |       0.0000 |       0.0000 |       0.0065 |       0.0065 |       0.0000 |       0.0000 |       0.0028 |       0.0028 |       0.0000 |       0.0000 |       0.0012 |       0.0012 |       0.0000 |       0.0000 |       0.0005 |       0.0005 |       0.0000 |       0.0000 |       0.0002 |       0.0002 |       0.0000 |       0.0000 |       0.0001 |       0.0011 |       0.0000 |       0.0148 |       0.0005 |       0.1137 |       0.0237 |       0.1251 |       0.1017 |       0.1659 |       0.1185 |       0.1784 |       0.1594 |       0.1963 |       0.1689 |       0.2044 |
dl2.wb_rate                                 0.0198 |       0.0198 |       0.0000 |       0.0000 |       0.0092 |       0.0092 |       0.0000 |       0.0000 |       0.0040 |       0.0040 |       0.0000 |       0.0000 |       0.0017 |       0.0017 |       0.0000 |       0.0000 |       0.0007 |       0.0007 |       0.0000 |       0.0000 |       0.0003 |       0.0003 |       0.0000 |       0.0000 |       0.0002 |       0.0002 |       0.0000 |       0.0000 |       0.0001 |       0.0009 |       0.0000 |       0.0146 |       0.0004 |       0.1131 |       0.0236 |       0.1244 |       0.1011 |       0.1632 |       0.1177 |       0.1750 |       0.1547 |       0.1908 |       0.1640 |       0.1987 |
dl2.inv_rate                                0.0000 |       0.0000 |       0.0000 |       0.0000 |       0.0000 |       0.0000 |       0.0000 |       0.0000 |       0.0000 |       0.0000 |       0.0000 |       0.0000 |       0.0000 |       0.0000 |       0.0000 |       0.0000 |       0.0000 |       0.0000 |       0.0000 |       0.0000 |       0.0000 |       0.0000 |       0.0000 |       0.0000 |       0.0000 |       0.0000 |       0.0000 |       0.0000 |       0.0000 |       0.0000 |       0.0000 |       0.0000 |       0.0000 |       0.0000 |       0.0000 |       0.0000 |       0.0000 |       0.0000 |       0.0000 |       0.0000 |       0.0000 |       0.0000 |       0.0000 |       0.0000 |
itlb.accesses                               477456 |       477456 |       477456 |       477456 |      1010154 |      1010154 |      1010154 |      1010154 |      2167636 |      2167636 |      2167636 |      2167636 |      4612752 |      4612752 |      4612752 |      4612752 |      9926059 |      9926059 |      9926059 |      9926059 |     20813861 |     20813861 |     20813861 |     20813861 |     43842463 |     43842463 |     43842463 |     43842463 |     92748465 |     92748465 |     92748465 |     92748465 |    195153792 |    195153792 |    195153792 |    195153792 |    408504259 |    408504259 |    408504259 |    408504259 |    856107174 |    856107174 |    856107174 |    856107174 |
itlb.hits                                   477446 |       477446 |       477446 |       477446 |      1010144 |      1010144 |      1010144 |      1010144 |      2167626 |      2167626 |      2167626 |      2167626 |      4612742 |      4612742 |      4612742 |      4612742 |      9926049 |      9926049 |      9926049 |      9926049 |     20813851 |     20813851 |     20813851 |     20813851 |     43842453 |     43842453 |     43842453 |     43842453 |     92748455 |     92748455 |     92748455 |     92748455 |    195153782 |    195153782 |    195153782 |    195153782 |    408504249 |    408504249 |    408504249 |    408504249 |    856107164 |    856107164 |    856107164 |    856107164 |
itlb.misses                                     10 |           10 |           10 |           10 |           10 |           10 |           10 |           10 |           10 |           10 |           10 |           10 |           10 |           10 |           10 |           10 |           10 |           10 |           10 |           10 |           10 |           10 |           10 |           10 |           10 |           10 |           10 |           10 |           10 |           10 |           10 |           10 |           10 |           10 |           10 |           10 |           10 |           10 |           10 |           10 |           10 |           10 |           10 |           10 |
itlb.replacements                                0 |            0 |            0 |            0 |            0 |            0 |            0 |            0 |            0 |            0 |            0 |            0 |            0 |            0 |            0 |            0 |            0 |            0 |            0 |            0 |            0 |            0 |            0 |            0 |            0 |            0 |            0 |            0 |            0 |            0 |            0 |            0 |            0 |            0 |            0 |            0 |            0 |            0 |            0 |            0 |            0 |            0 |            0 |            0 |
itlb.writebacks                                  0 |            0 |            0 |            0 |            0 |            0 |            0 |            0 |            0 |            0 |            0 |            0 |            0 |            0 |            0 |            0 |            0 |            0 |            0 |            0 |            0 |            0 |            0 |            0 |            0 |            0 |            0 |            0 |            0 |            0 |            0 |            0 |            0 |            0 |            0 |            0 |            0 |            0 |            0 |            0 |            0 |            0 |            0 |            0 |
itlb.invalidations                               0 |            0 |            0 |            0 |            0 |            0 |            0 |            0 |            0 |            0 |            0 |            0 |            0 |            0 |            0 |            0 |            0 |            0 |            0 |            0 |            0 |            0 |            0 |            0 |            0 |            0 |            0 |            0 |            0 |            0 |            0 |            0 |            0 |            0 |            0 |            0 |            0 |            0 |            0 |            0 |            0 |            0 |            0 |            0 |
itlb.miss_rate                              0.0000 |       0.0000 |       0.0000 |       0.0000 |       0.0000 |       0.0000 |       0.0000 |       0.0000 |       0.0000 |       0.0000 |       0.0000 |       0.0000 |       0.0000 |       0.0000 |       0.0000 |       0.0000 |       0.0000 |       0.0000 |       0.0000 |       0.0000 |       0.0000 |       0.0000 |       0.0000 |       0.0000 |       0.0000 |       0.0000 |       0.0000 |       0.0000 |       0.0000 |       0.0000 |       0.0000 |       0.0000 |       0.0000 |       0.0000 |       0.0000 |       0.0000 |       0.0000 |       0.0000 |       0.0000 |       0.0000 |       0.0000 |       0.0000 |       0.0000 |       0.0000 |
itlb.repl_rate                              0.0000 |       0.0000 |       0.0000 |       0.0000 |       0.0000 |       0.0000 |       0.0000 |       0.0000 |       0.0000 |       0.0000 |       0.0000 |       0.0000 |       0.0000 |       0.0000 |       0.0000 |       0.0000 |       0.0000 |       0.0000 |       0.0000 |       0.0000 |       0.0000 |       0.0000 |       0.0000 |       0.0000 |       0.0000 |       0.0000 |       0.0000 |       0.0000 |       0.0000 |       0.0000 |       0.0000 |       0.0000 |       0.0000 |       0.0000 |       0.0000 |       0.0000 |       0.0000 |       0.0000 |       0.0000 |       0.0000 |       0.0000 |       0.0000 |       0.0000 |       0.0000 |
itlb.wb_rate                                0.0000 |       0.0000 |       0.0000 |       0.0000 |       0.0000 |       0.0000 |       0.0000 |       0.0000 |       0.0000 |       0.0000 |       0.0000 |       0.0000 |       0.0000 |       0.0000 |       0.0000 |       0.0000 |       0.0000 |       0.0000 |       0.0000 |       0.0000 |       0.0000 |       0.0000 |       0.0000 |       0.0000 |       0.0000 |       0.0000 |       0.0000 |       0.0000 |       0.0000 |       0.0000 |       0.0000 |       0.0000 |       0.0000 |       0.0000 |       0.0000 |       0.0000 |       0.0000 |       0.0000 |       0.0000 |       0.0000 |       0.0000 |       0.0000 |       0.0000 |       0.0000 |
itlb.inv_rate                               0.0000 |       0.0000 |       0.0000 |       0.0000 |       0.0000 |       0.0000 |       0.0000 |       0.0000 |       0.0000 |       0.0000 |       0.0000 |       0.0000 |       0.0000 |       0.0000 |       0.0000 |       0.0000 |       0.0000 |       0.0000 |       0.0000 |       0.0000 |       0.0000 |       0.0000 |       0.0000 |       0.0000 |       0.0000 |       0.0000 |       0.0000 |       0.0000 |       0.0000 |       0.0000 |       0.0000 |       0.0000 |       0.0000 |       0.0000 |       0.0000 |       0.0000 |       0.0000 |       0.0000 |       0.0000 |       0.0000 |       0.0000 |       0.0000 |       0.0000 |       0.0000 |
dtlb.accesses                               142251 |       142251 |       142251 |       142251 |       298034 |       298034 |       298034 |       298034 |       624422 |       624422 |       624422 |       624422 |      1312130 |      1312130 |      1312130 |      1312130 |      2774827 |      2774827 |      2774827 |      2774827 |      5797892 |      5797892 |      5797892 |      5797892 |     12120103 |     12120103 |     12120103 |     12120103 |     25394390 |     25394390 |     25394390 |     25394390 |     53025442 |     53025442 |     53025442 |     53025442 |    110280340 |    110280340 |    110280340 |    110280340 |    229557516 |    229557516 |    229557516 |    229557516 |
dtlb.hits                                   142239 |       142239 |       142239 |       142239 |       298018 |       298018 |       298018 |       298018 |       624398 |       624398 |       624398 |       624398 |      1312090 |      1312090 |      1312090 |      1312090 |      2774755 |      2774755 |      2774755 |      2774755 |      5797717 |      5797717 |      5797717 |      5797717 |     12119138 |     12119138 |     12119138 |     12119138 |     25391668 |     25391668 |     25391668 |     25391668 |     53018836 |     53018836 |     53018836 |     53018836 |    110265040 |    110265040 |    110265040 |    110265040 |    229522380 |    229522380 |    229522380 |    229522380 |
dtlb.misses                                     12 |           12 |           12 |           12 |           16 |           16 |           16 |           16 |           24 |           24 |           24 |           24 |           40 |           40 |           40 |           40 |           72 |           72 |           72 |           72 |          175 |          175 |          175 |          175 |          965 |          965 |          965 |          965 |         2722 |         2722 |         2722 |         2722 |         6606 |         6606 |         6606 |         6606 |        15300 |        15300 |        15300 |        15300 |        35136 |        35136 |        35136 |        35136 |
dtlb.replacements                                0 |            0 |            0 |            0 |            0 |            0 |            0 |            0 |            0 |            0 |            0 |            0 |            0 |            0 |            0 |            0 |            0 |            0 |            0 |            0 |           47 |           47 |           47 |           47 |          837 |          837 |          837 |          837 |         2594 |         2594 |         2594 |         2594 |         6478 |         6478 |         6478 |         6478 |        15172 |        15172 |        15172 |        15172 |        35008 |        35008 |        35008 |        35008 |
dtlb.writebacks                                  0 |            0 |            0 |            0 |            0 |            0 |            0 |            0 |            0 |            0 |            0 |            0 |            0 |            0 |            0 |            0 |            0 |            0 |            0 |            0 |           45 |           45 |           45 |           45 |          834 |          834 |          834 |          834 |         2584 |         2584 |         2584 |         2584 |         6458 |         6458 |         6458 |         6458 |        15137 |        15137 |        15137 |        15137 |        34937 |        34937 |        34937 |        34937 |
dtlb.invalidations                               0 |            0 |            0 |            0 |            0 |            0 |            0 |            0 |            0 |            0 |            0 |            0 |            0 |            0 |            0 |            0 |            0 |            0 |            0 |            0 |            0 |            0 |            0 |            0 |            0 |            0 |            0 |            0 |            0 |            0 |            0 |            0 |            0 |            0 |            0 |            0 |            0 |            0 |            0 |            0 |            0 |            0 |            0 |            0 |
dtlb.miss_rate                              0.0001 |       0.0001 |       0.0001 |       0.0001 |       0.0001 |       0.0001 |       0.0001 |       0.0001 |       0.0000 |       0.0000 |       0.0000 |       0.0000 |       0.0000 |       0.0000 |       0.0000 |       0.0000 |       0.0000 |       0.0000 |       0.0000 |       0.0000 |       0.0000 |       0.0000 |       0.0000 |       0.0000 |       0.0001 |       0.0001 |       0.0001 |       0.0001 |       0.0001 |       0.0001 |       0.0001 |       0.0001 |       0.0001 |       0.0001 |       0.0001 |       0.0001 |       0.0001 |       0.0001 |       0.0001 |       0.0001 |       0.0002 |       0.0002 |       0.0002 |       0.0002 |
dtlb.repl_rate                              0.0000 |       0.0000 |       0.0000 |       0.0000 |       0.0000 |       0.0000 |       0.0000 |       0.0000 |       0.0000 |       0.0000 |       0.0000 |       0.0000 |       0.0000 |       0.0000 |       0.0000 |       0.0000 |       0.0000 |       0.0000 |       0.0000 |       0.0000 |       0.0000 |       0.0000 |       0.0000 |       0.0000 |       0.0001 |       0.0001 |       0.0001 |       0.0001 |       0.0001 |       0.0001 |       0.0001 |       0.0001 |       0.0001 |       0.0001 |       0.0001 |       0.0001 |       0.0001 |       0.0001 |       0.0001 |       0.0001 |       0.0002 |       0.0002 |       0.0002 |       0.0002 |
dtlb.wb_rate                                0.0000 |       0.0000 |       0.0000 |       0.0000 |       0.0000 |       0.0000 |       0.0000 |       0.0000 |       0.0000 |       0.0000 |       0.0000 |       0.0000 |       0.0000 |       0.0000 |       0.0000 |       0.0000 |       0.0000 |       0.0000 |       0.0000 |       0.0000 |       0.0000 |       0.0000 |       0.0000 |       0.0000 |       0.0001 |       0.0001 |       0.0001 |       0.0001 |       0.0001 |       0.0001 |       0.0001 |       0.0001 |       0.0001 |       0.0001 |       0.0001 |       0.0001 |       0.0001 |       0.0001 |       0.0001 |       0.0001 |       0.0002 |       0.0002 |       0.0002 |       0.0002 |
dtlb.inv_rate                               0.0000 |       0.0000 |       0.0000 |       0.0000 |       0.0000 |       0.0000 |       0.0000 |       0.0000 |       0.0000 |       0.0000 |       0.0000 |       0.0000 |       0.0000 |       0.0000 |       0.0000 |       0.0000 |       0.0000 |       0.0000 |       0.0000 |       0.0000 |       0.0000 |       0.0000 |       0.0000 |       0.0000 |       0.0000 |       0.0000 |       0.0000 |       0.0000 |       0.0000 |       0.0000 |       0.0000 |       0.0000 |       0.0000 |       0.0000 |       0.0000 |       0.0000 |       0.0000 |       0.0000 |       0.0000 |       0.0000 |       0.0000 |       0.0000 |       0.0000 |       0.0000 |
ld_text_base                            0x00400000 |   0x00400000 |   0x00400000 |   0x00400000 |   0x00400000 |   0x00400000 |   0x00400000 |   0x00400000 |   0x00400000 |   0x00400000 |   0x00400000 |   0x00400000 |   0x00400000 |   0x00400000 |   0x00400000 |   0x00400000 |   0x00400000 |   0x00400000 |   0x00400000 |   0x00400000 |   0x00400000 |   0x00400000 |   0x00400000 |   0x00400000 |   0x00400000 |   0x00400000 |   0x00400000 |   0x00400000 |   0x00400000 |   0x00400000 |   0x00400000 |   0x00400000 |   0x00400000 |   0x00400000 |   0x00400000 |   0x00400000 |   0x00400000 |   0x00400000 |   0x00400000 |   0x00400000 |   0x00400000 |   0x00400000 |   0x00400000 |   0x00400000 |
ld_text_size                                 74064 |        74064 |        74064 |        74064 |        74096 |        74096 |        74096 |        74096 |        74112 |        74112 |        74112 |        74112 |        74128 |        74128 |        74128 |        74128 |        74128 |        74128 |        74128 |        74128 |        74128 |        74128 |        74128 |        74128 |        74128 |        74128 |        74128 |        74128 |        74128 |        74128 |        74128 |        74128 |        74128 |        74128 |        74128 |        74128 |        74128 |        74128 |        74128 |        74128 |        74128 |        74128 |        74128 |        74128 |
ld_data_base                            0x10000000 |   0x10000000 |   0x10000000 |   0x10000000 |   0x10000000 |   0x10000000 |   0x10000000 |   0x10000000 |   0x10000000 |   0x10000000 |   0x10000000 |   0x10000000 |   0x10000000 |   0x10000000 |   0x10000000 |   0x10000000 |   0x10000000 |   0x10000000 |   0x10000000 |   0x10000000 |   0x10000000 |   0x10000000 |   0x10000000 |   0x10000000 |   0x10000000 |   0x10000000 |   0x10000000 |   0x10000000 |   0x10000000 |   0x10000000 |   0x10000000 |   0x10000000 |   0x10000000 |   0x10000000 |   0x10000000 |   0x10000000 |   0x10000000 |   0x10000000 |   0x10000000 |   0x10000000 |   0x10000000 |   0x10000000 |   0x10000000 |   0x10000000 |
ld_data_size                                  8192 |         8192 |         8192 |         8192 |         8192 |         8192 |         8192 |         8192 |         8192 |         8192 |         8192 |         8192 |         8192 |         8192 |         8192 |         8192 |         8192 |         8192 |         8192 |         8192 |         8192 |         8192 |         8192 |         8192 |         8192 |         8192 |         8192 |         8192 |         8192 |         8192 |         8192 |         8192 |         8192 |         8192 |         8192 |         8192 |         8192 |         8192 |         8192 |         8192 |         8192 |         8192 |         8192 |         8192 |
ld_stack_base                           0x7fffc000 |   0x7fffc000 |   0x7fffc000 |   0x7fffc000 |   0x7fffc000 |   0x7fffc000 |   0x7fffc000 |   0x7fffc000 |   0x7fffc000 |   0x7fffc000 |   0x7fffc000 |   0x7fffc000 |   0x7fffc000 |   0x7fffc000 |   0x7fffc000 |   0x7fffc000 |   0x7fffc000 |   0x7fffc000 |   0x7fffc000 |   0x7fffc000 |   0x7fffc000 |   0x7fffc000 |   0x7fffc000 |   0x7fffc000 |   0x7fffc000 |   0x7fffc000 |   0x7fffc000 |   0x7fffc000 |   0x7fffc000 |   0x7fffc000 |   0x7fffc000 |   0x7fffc000 |   0x7fffc000 |   0x7fffc000 |   0x7fffc000 |   0x7fffc000 |   0x7fffc000 |   0x7fffc000 |   0x7fffc000 |   0x7fffc000 |   0x7fffc000 |   0x7fffc000 |   0x7fffc000 |   0x7fffc000 |
ld_stack_size                                16384 |        16384 |        16384 |        16384 |        16384 |        16384 |        16384 |        16384 |        16384 |        16384 |        16384 |        16384 |        16384 |        16384 |        16384 |        16384 |        16384 |        16384 |        16384 |        16384 |        16384 |        16384 |        16384 |        16384 |        16384 |        16384 |        16384 |        16384 |        16384 |        16384 |        16384 |        16384 |        16384 |        16384 |        16384 |        16384 |        16384 |        16384 |        16384 |        16384 |        16384 |        16384 |        16384 |        16384 |
ld_prog_entry                           0x00400140 |   0x00400140 |   0x00400140 |   0x00400140 |   0x00400140 |   0x00400140 |   0x00400140 |   0x00400140 |   0x00400140 |   0x00400140 |   0x00400140 |   0x00400140 |   0x00400140 |   0x00400140 |   0x00400140 |   0x00400140 |   0x00400140 |   0x00400140 |   0x00400140 |   0x00400140 |   0x00400140 |   0x00400140 |   0x00400140 |   0x00400140 |   0x00400140 |   0x00400140 |   0x00400140 |   0x00400140 |   0x00400140 |   0x00400140 |   0x00400140 |   0x00400140 |   0x00400140 |   0x00400140 |   0x00400140 |   0x00400140 |   0x00400140 |   0x00400140 |   0x00400140 |   0x00400140 |   0x00400140 |   0x00400140 |   0x00400140 |   0x00400140 |
ld_environ_base                         0x7fff8000 |   0x7fff8000 |   0x7fff8000 |   0x7fff8000 |   0x7fff8000 |   0x7fff8000 |   0x7fff8000 |   0x7fff8000 |   0x7fff8000 |   0x7fff8000 |   0x7fff8000 |   0x7fff8000 |   0x7fff8000 |   0x7fff8000 |   0x7fff8000 |   0x7fff8000 |   0x7fff8000 |   0x7fff8000 |   0x7fff8000 |   0x7fff8000 |   0x7fff8000 |   0x7fff8000 |   0x7fff8000 |   0x7fff8000 |   0x7fff8000 |   0x7fff8000 |   0x7fff8000 |   0x7fff8000 |   0x7fff8000 |   0x7fff8000 |   0x7fff8000 |   0x7fff8000 |   0x7fff8000 |   0x7fff8000 |   0x7fff8000 |   0x7fff8000 |   0x7fff8000 |   0x7fff8000 |   0x7fff8000 |   0x7fff8000 |   0x7fff8000 |   0x7fff8000 |   0x7fff8000 |   0x7fff8000 |
ld_target_big_endian                             0 |            0 |            0 |            0 |            0 |            0 |            0 |            0 |            0 |            0 |            0 |            0 |            0 |            0 |            0 |            0 |            0 |            0 |            0 |            0 |            0 |            0 |            0 |            0 |            0 |            0 |            0 |            0 |            0 |            0 |            0 |            0 |            0 |            0 |            0 |            0 |            0 |            0 |            0 |            0 |            0 |            0 |            0 |            0 |
mem.page_count                                  31 |           31 |           31 |           31 |           35 |           35 |           35 |           35 |           43 |           43 |           43 |           43 |           59 |           59 |           59 |           59 |           91 |           91 |           91 |           91 |          155 |          155 |          155 |          155 |          283 |          283 |          283 |          283 |          539 |          539 |          539 |          539 |         1051 |         1051 |         1051 |         1051 |         2075 |         2075 |         2075 |         2075 |         4123 |         4123 |         4123 |         4123 |
mem.page_mem                                  124k |         124k |         124k |         124k |         140k |         140k |         140k |         140k |         172k |         172k |         172k |         172k |         236k |         236k |         236k |         236k |         364k |         364k |         364k |         364k |         620k |         620k |         620k |         620k |        1132k |        1132k |        1132k |        1132k |        2156k |        2156k |        2156k |        2156k |        4204k |        4204k |        4204k |        4204k |        8300k |        8300k |        8300k |        8300k |       16492k |       16492k |       16492k |       16492k |
mem.ptab_misses                                 31 |           31 |           31 |           31 |           35 |           35 |           35 |           35 |           43 |           43 |           43 |           43 |           59 |           59 |           59 |           59 |           91 |           91 |           91 |           91 |          155 |          155 |          155 |          155 |          283 |          283 |          283 |          283 |          539 |          539 |          539 |          539 |         1051 |         1051 |         1051 |         1051 |         2075 |         2075 |         2075 |         2075 |         4123 |         4123 |         4123 |         4123 |
mem.ptab_accesses                          2653320 |      2653320 |      2653320 |      2653320 |      5095870 |      5095870 |      5095870 |      5095870 |     10378670 |     10378670 |     10378670 |     10378670 |     21534646 |     21534646 |     21534646 |     21534646 |     45713268 |     45713268 |     45713268 |     45713268 |     95310606 |     95310606 |     95310606 |     95310606 |    200069436 |    200069436 |    200069436 |    200069436 |    422242018 |    422242018 |    422242018 |    422242018 |    887125430 |    887125430 |    887125430 |    887125430 |   1855037094 |   1855037094 |   1855037094 |   1855037094 |   3884003106 |   3884003106 |   3884003106 |   3884003106 |
mem.ptab_miss_rate                          0.0000 |       0.0000 |       0.0000 |       0.0000 |       0.0000 |       0.0000 |       0.0000 |       0.0000 |       0.0000 |       0.0000 |       0.0000 |       0.0000 |       0.0000 |       0.0000 |       0.0000 |       0.0000 |       0.0000 |       0.0000 |       0.0000 |       0.0000 |       0.0000 |       0.0000 |       0.0000 |       0.0000 |       0.0000 |       0.0000 |       0.0000 |       0.0000 |       0.0000 |       0.0000 |       0.0000 |       0.0000 |       0.0000 |       0.0000 |       0.0000 |       0.0000 |       0.0000 |       0.0000 |       0.0000 |       0.0000 |       0.0000 |       0.0000 |       0.0000 |       0.0000 |
-------------------------------------------------------------------------------------------------
sim-bpred                                     4096 |         4096 |         4096 |         4096 |         4096 |         4096 |         4096 |         8192 |         8192 |         8192 |         8192 |         8192 |         8192 |         8192 |        16384 |        16384 |        16384 |        16384 |        16384 |        16384 |        16384 |        32768 |        32768 |        32768 |        32768 |        32768 |        32768 |        32768 |        65536 |        65536 |        65536 |        65536 |        65536 |        65536 |        65536 |       131072 |       131072 |       131072 |       131072 |       131072 |       131072 |       131072 |       262144 |       262144 |       262144 |       262144 |       262144 |       262144 |       262144 |       524288 |       524288 |       524288 |       524288 |       524288 |       524288 |       524288 |      1048576 |      1048576 |      1048576 |      1048576 |      1048576 |      1048576 |      1048576 |      2097152 |      2097152 |      2097152 |      2097152 |      2097152 |      2097152 |      2097152 |      4194304 |      4194304 |      4194304 |      4194304 |      4194304 |      4194304 |      4194304 |
-bpred bimod -bpred:bimod 512
-bpred bimod -bpred:bimod 1024
-bpred bimod -bpred:bimod 2048
-bpred 2lev -bpred:2lev 1 512 10 1
-bpred 2lev -bpred:2lev 1 1024 10 1
-bpred 2lev -bpred:2lev 1 2048 10 1
-bpred 2lev -bpred:2lev 1 4096 10 1
-------------------------------------------------------------------------------------------------
sim_num_insn                                477456 |       477456 |       477456 |       477456 |       477456 |       477456 |       477456 |      1010154 |      1010154 |      1010154 |      1010154 |      1010154 |      1010154 |      1010154 |      2167636 |      2167636 |      2167636 |      2167636 |      2167636 |      2167636 |      2167636 |      4612752 |      4612752 |      4612752 |      4612752 |      4612752 |      4612752 |      4612752 |      9926059 |      9926059 |      9926059 |      9926059 |      9926059 |      9926059 |      9926059 |     20813861 |     20813861 |     20813861 |     20813861 |     20813861 |     20813861 |     20813861 |     43842463 |     43842463 |     43842463 |     43842463 |     43842463 |     43842463 |     43842463 |     92748465 |     92748465 |     92748465 |     92748465 |     92748465 |     92748465 |     92748465 |    195153792 |    195153792 |    195153792 |    195153792 |    195153792 |    195153792 |    195153792 |    408504259 |    408504259 |    408504259 |    408504259 |    408504259 |    408504259 |    408504259 |    856107174 |    856107174 |    856107174 |    856107174 |    856107174 |    856107174 |    856107174 |
sim_num_refs                                125785 |       125785 |       125785 |       125785 |       125785 |       125785 |       125785 |       265184 |       265184 |       265184 |       265184 |       265184 |       265184 |       265184 |       558804 |       558804 |       558804 |       558804 |       558804 |       558804 |       558804 |      1180976 |      1180976 |      1180976 |      1180976 |      1180976 |      1180976 |      1180976 |      2512601 |      2512601 |      2512601 |      2512601 |      2512601 |      2512601 |      2512601 |      5273522 |      5273522 |      5273522 |      5273522 |      5273522 |      5273522 |      5273522 |     11071445 |     11071445 |     11071445 |     11071445 |     11071445 |     11071445 |     11071445 |     23297156 |     23297156 |     23297156 |     23297156 |     23297156 |     23297156 |     23297156 |     48831056 |     48831056 |     48831056 |     48831056 |     48831056 |     48831056 |     48831056 |    101891650 |    101891650 |    101891650 |    101891650 |    101891650 |    101891650 |    101891650 |    212780218 |    212780218 |    212780218 |    212780218 |    212780218 |    212780218 |    212780218 |
sim_elapsed_time                                 1 |            1 |            1 |            1 |            1 |            1 |            1 |            1 |            1 |            1 |            1 |            1 |            1 |            1 |            1 |            1 |            1 |            1 |            1 |            1 |            1 |            1 |            1 |            1 |            1 |            1 |            1 |            1 |            1 |            1 |            2 |            1 |            1 |            2 |            1 |            2 |            3 |            2 |            3 |            3 |            2 |            3 |            6 |            5 |            6 |            5 |            6 |            5 |            6 |           11 |           12 |           11 |           12 |           12 |           11 |           12 |           24 |           24 |           24 |           25 |           24 |           25 |           25 |           50 |           51 |           50 |           51 |           51 |           51 |           52 |          105 |          105 |          106 |          107 |          106 |          107 |          109 |
sim_inst_rate                          477456.0000 |  477456.0000 |  477456.0000 |  477456.0000 |  477456.0000 |  477456.0000 |  477456.0000 | 1010154.0000 | 1010154.0000 | 1010154.0000 | 1010154.0000 | 1010154.0000 | 1010154.0000 | 1010154.0000 | 2167636.0000 | 2167636.0000 | 2167636.0000 | 2167636.0000 | 2167636.0000 | 2167636.0000 | 2167636.0000 | 4612752.0000 | 4612752.0000 | 4612752.0000 | 4612752.0000 | 4612752.0000 | 4612752.0000 | 4612752.0000 | 9926059.0000 | 9926059.0000 | 4963029.5000 | 9926059.0000 | 9926059.0000 | 4963029.5000 | 9926059.0000 |10406930.5000 | 6937953.6667 |10406930.5000 | 6937953.6667 | 6937953.6667 |10406930.5000 | 6937953.6667 | 7307077.1667 | 8768492.6000 | 7307077.1667 | 8768492.6000 | 7307077.1667 | 8768492.6000 | 7307077.1667 | 8431678.6364 | 7729038.7500 | 8431678.6364 | 7729038.7500 | 7729038.7500 | 8431678.6364 | 7729038.7500 | 8131408.0000 | 8131408.0000 | 8131408.0000 | 7806151.6800 | 8131408.0000 | 7806151.6800 | 7806151.6800 | 8170085.1800 | 8009887.4314 | 8170085.1800 | 8009887.4314 | 8009887.4314 | 8009887.4314 | 7855851.1346 | 8153401.6571 | 8153401.6571 | 8076482.7736 | 8001001.6262 | 8076482.7736 | 8001001.6262 | 7854194.2569 |
sim_num_branches                             75319 |        75319 |        75319 |        75319 |        75319 |        75319 |        75319 |       161376 |       161376 |       161376 |       161376 |       161376 |       161376 |       161376 |       349253 |       349253 |       349253 |       349253 |       349253 |       349253 |       349253 |       748605 |       748605 |       748605 |       748605 |       748605 |       748605 |       748605 |      1621970 |      1621970 |      1621970 |      1621970 |      1621970 |      1621970 |      1621970 |      3421873 |      3421873 |      3421873 |      3421873 |      3421873 |      3421873 |      3421873 |      7246241 |      7246241 |      7246241 |      7246241 |      7246241 |      7246241 |      7246241 |     15405251 |     15405251 |     15405251 |     15405251 |     15405251 |     15405251 |     15405251 |     32554398 |     32554398 |     32554398 |     32554398 |     32554398 |     32554398 |     32554398 |     68330516 |     68330516 |     68330516 |     68330516 |     68330516 |     68330516 |     68330516 |    143592416 |    143592416 |    143592416 |    143592416 |    143592416 |    143592416 |    143592416 |
sim_IPB                                     6.3391 |       6.3391 |       6.3391 |       6.3391 |       6.3391 |       6.3391 |       6.3391 |       6.2596 |       6.2596 |       6.2596 |       6.2596 |       6.2596 |       6.2596 |       6.2596 |       6.2065 |       6.2065 |       6.2065 |       6.2065 |       6.2065 |       6.2065 |       6.2065 |       6.1618 |       6.1618 |       6.1618 |       6.1618 |       6.1618 |       6.1618 |       6.1618 |       6.1198 |       6.1198 |       6.1198 |       6.1198 |       6.1198 |       6.1198 |       6.1198 |       6.0826 |       6.0826 |       6.0826 |       6.0826 |       6.0826 |       6.0826 |       6.0826 |       6.0504 |       6.0504 |       6.0504 |       6.0504 |       6.0504 |       6.0504 |       6.0504 |       6.0206 |       6.0206 |       6.0206 |       6.0206 |       6.0206 |       6.0206 |       6.0206 |       5.9947 |       5.9947 |       5.9947 |       5.9947 |       5.9947 |       5.9947 |       5.9947 |       5.9784 |       5.9784 |       5.9784 |       5.9784 |       5.9784 |       5.9784 |       5.9784 |       5.9621 |       5.9621 |       5.9621 |       5.9621 |       5.9621 |       5.9621 |       5.9621 |
bpred_bimod.lookups                          75319 |        75319 |        75319 |xxxxxxxxxxxxx |xxxxxxxxxxxxx |xxxxxxxxxxxxx |xxxxxxxxxxxxx |       161376 |       161376 |       161376 |xxxxxxxxxxxxx |xxxxxxxxxxxxx |xxxxxxxxxxxxx |xxxxxxxxxxxxx |       349253 |       349253 |       349253 |xxxxxxxxxxxxx |xxxxxxxxxxxxx |xxxxxxxxxxxxx |xxxxxxxxxxxxx |       748605 |       748605 |       748605 |xxxxxxxxxxxxx |xxxxxxxxxxxxx |xxxxxxxxxxxxx |xxxxxxxxxxxxx |      1621970 |      1621970 |      1621970 |xxxxxxxxxxxxx |xxxxxxxxxxxxx |xxxxxxxxxxxxx |xxxxxxxxxxxxx |      3421873 |      3421873 |      3421873 |xxxxxxxxxxxxx |xxxxxxxxxxxxx |xxxxxxxxxxxxx |xxxxxxxxxxxxx |      7246241 |      7246241 |      7246241 |xxxxxxxxxxxxx |xxxxxxxxxxxxx |xxxxxxxxxxxxx |xxxxxxxxxxxxx |     15405251 |     15405251 |     15405251 |xxxxxxxxxxxxx |xxxxxxxxxxxxx |xxxxxxxxxxxxx |xxxxxxxxxxxxx |     32554398 |     32554398 |     32554398 |xxxxxxxxxxxxx |xxxxxxxxxxxxx |xxxxxxxxxxxxx |xxxxxxxxxxxxx |     68330516 |     68330516 |     68330516 |xxxxxxxxxxxxx |xxxxxxxxxxxxx |xxxxxxxxxxxxx |xxxxxxxxxxxxx |    143592416 |    143592416 |    143592416 |
bpred_bimod.updates                          75319 |        75319 |        75319 |xxxxxxxxxxxxx |xxxxxxxxxxxxx |xxxxxxxxxxxxx |xxxxxxxxxxxxx |       161376 |       161376 |       161376 |xxxxxxxxxxxxx |xxxxxxxxxxxxx |xxxxxxxxxxxxx |xxxxxxxxxxxxx |       349253 |       349253 |       349253 |xxxxxxxxxxxxx |xxxxxxxxxxxxx |xxxxxxxxxxxxx |xxxxxxxxxxxxx |       748605 |       748605 |       748605 |xxxxxxxxxxxxx |xxxxxxxxxxxxx |xxxxxxxxxxxxx |xxxxxxxxxxxxx |      1621970 |      1621970 |      1621970 |xxxxxxxxxxxxx |xxxxxxxxxxxxx |xxxxxxxxxxxxx |xxxxxxxxxxxxx |      3421873 |      3421873 |      3421873 |xxxxxxxxxxxxx |xxxxxxxxxxxxx |xxxxxxxxxxxxx |xxxxxxxxxxxxx |      7246241 |      7246241 |      7246241 |xxxxxxxxxxxxx |xxxxxxxxxxxxx |xxxxxxxxxxxxx |xxxxxxxxxxxxx |     15405251 |     15405251 |     15405251 |xxxxxxxxxxxxx |xxxxxxxxxxxxx |xxxxxxxxxxxxx |xxxxxxxxxxxxx |     32554398 |     32554398 |     32554398 |xxxxxxxxxxxxx |xxxxxxxxxxxxx |xxxxxxxxxxxxx |xxxxxxxxxxxxx |     68330516 |     68330516 |     68330516 |xxxxxxxxxxxxx |xxxxxxxxxxxxx |xxxxxxxxxxxxx |xxxxxxxxxxxxx |    143592416 |    143592416 |    143592416 |
bpred_bimod.addr_hits                        51824 |        51826 |        51827 |xxxxxxxxxxxxx |xxxxxxxxxxxxx |xxxxxxxxxxxxx |xxxxxxxxxxxxx |       110919 |       110921 |       110925 |xxxxxxxxxxxxx |xxxxxxxxxxxxx |xxxxxxxxxxxxx |xxxxxxxxxxxxx |       241846 |       241849 |       241851 |xxxxxxxxxxxxx |xxxxxxxxxxxxx |xxxxxxxxxxxxx |xxxxxxxxxxxxx |       519077 |       519078 |       519080 |xxxxxxxxxxxxx |xxxxxxxxxxxxx |xxxxxxxxxxxxx |xxxxxxxxxxxxx |      1143578 |      1143579 |      1143580 |xxxxxxxxxxxxx |xxxxxxxxxxxxx |xxxxxxxxxxxxx |xxxxxxxxxxxxx |      2389723 |      2389725 |      2389726 |xxxxxxxxxxxxx |xxxxxxxxxxxxx |xxxxxxxxxxxxx |xxxxxxxxxxxxx |      5074838 |      5074842 |      5074842 |xxxxxxxxxxxxx |xxxxxxxxxxxxx |xxxxxxxxxxxxx |xxxxxxxxxxxxx |     10855688 |     10855691 |     10855691 |xxxxxxxxxxxxx |xxxxxxxxxxxxx |xxxxxxxxxxxxx |xxxxxxxxxxxxx |     23040111 |     23040114 |     23040115 |xxxxxxxxxxxxx |xxxxxxxxxxxxx |xxxxxxxxxxxxx |xxxxxxxxxxxxx |     48346084 |     48346088 |     48346089 |xxxxxxxxxxxxx |xxxxxxxxxxxxx |xxxxxxxxxxxxx |xxxxxxxxxxxxx |    101631263 |    101631265 |    101631267 |
bpred_bimod.dir_hits                         51941 |        51940 |        51941 |xxxxxxxxxxxxx |xxxxxxxxxxxxx |xxxxxxxxxxxxx |xxxxxxxxxxxxx |       111039 |       111038 |       111040 |xxxxxxxxxxxxx |xxxxxxxxxxxxx |xxxxxxxxxxxxx |xxxxxxxxxxxxx |       241965 |       241964 |       241966 |xxxxxxxxxxxxx |xxxxxxxxxxxxx |xxxxxxxxxxxxx |xxxxxxxxxxxxx |       519193 |       519189 |       519191 |xxxxxxxxxxxxx |xxxxxxxxxxxxx |xxxxxxxxxxxxx |xxxxxxxxxxxxx |      1143696 |      1143694 |      1143694 |xxxxxxxxxxxxx |xxxxxxxxxxxxx |xxxxxxxxxxxxx |xxxxxxxxxxxxx |      2389838 |      2389836 |      2389837 |xxxxxxxxxxxxx |xxxxxxxxxxxxx |xxxxxxxxxxxxx |xxxxxxxxxxxxx |      5074955 |      5074955 |      5074953 |xxxxxxxxxxxxx |xxxxxxxxxxxxx |xxxxxxxxxxxxx |xxxxxxxxxxxxx |     10855809 |     10855808 |     10855806 |xxxxxxxxxxxxx |xxxxxxxxxxxxx |xxxxxxxxxxxxx |xxxxxxxxxxxxx |     23040229 |     23040228 |     23040229 |xxxxxxxxxxxxx |xxxxxxxxxxxxx |xxxxxxxxxxxxx |xxxxxxxxxxxxx |     48346201 |     48346202 |     48346202 |xxxxxxxxxxxxx |xxxxxxxxxxxxx |xxxxxxxxxxxxx |xxxxxxxxxxxxx |    101631381 |    101631379 |    101631381 |
bpred_bimod.misses                           23378 |        23379 |        23378 |xxxxxxxxxxxxx |xxxxxxxxxxxxx |xxxxxxxxxxxxx |xxxxxxxxxxxxx |        50337 |        50338 |        50336 |xxxxxxxxxxxxx |xxxxxxxxxxxxx |xxxxxxxxxxxxx |xxxxxxxxxxxxx |       107288 |       107289 |       107287 |xxxxxxxxxxxxx |xxxxxxxxxxxxx |xxxxxxxxxxxxx |xxxxxxxxxxxxx |       229412 |       229416 |       229414 |xxxxxxxxxxxxx |xxxxxxxxxxxxx |xxxxxxxxxxxxx |xxxxxxxxxxxxx |       478274 |       478276 |       478276 |xxxxxxxxxxxxx |xxxxxxxxxxxxx |xxxxxxxxxxxxx |xxxxxxxxxxxxx |      1032035 |      1032037 |      1032036 |xxxxxxxxxxxxx |xxxxxxxxxxxxx |xxxxxxxxxxxxx |xxxxxxxxxxxxx |      2171286 |      2171286 |      2171288 |xxxxxxxxxxxxx |xxxxxxxxxxxxx |xxxxxxxxxxxxx |xxxxxxxxxxxxx |      4549442 |      4549443 |      4549445 |xxxxxxxxxxxxx |xxxxxxxxxxxxx |xxxxxxxxxxxxx |xxxxxxxxxxxxx |      9514169 |      9514170 |      9514169 |xxxxxxxxxxxxx |xxxxxxxxxxxxx |xxxxxxxxxxxxx |xxxxxxxxxxxxx |     19984315 |     19984314 |     19984314 |xxxxxxxxxxxxx |xxxxxxxxxxxxx |xxxxxxxxxxxxx |xxxxxxxxxxxxx |     41961035 |     41961037 |     41961035 |
bpred_bimod.jr_hits                             64 |           64 |           64 |xxxxxxxxxxxxx |xxxxxxxxxxxxx |xxxxxxxxxxxxx |xxxxxxxxxxxxx |           64 |           64 |           64 |xxxxxxxxxxxxx |xxxxxxxxxxxxx |xxxxxxxxxxxxx |xxxxxxxxxxxxx |           64 |           64 |           64 |xxxxxxxxxxxxx |xxxxxxxxxxxxx |xxxxxxxxxxxxx |xxxxxxxxxxxxx |           64 |           64 |           64 |xxxxxxxxxxxxx |xxxxxxxxxxxxx |xxxxxxxxxxxxx |xxxxxxxxxxxxx |           64 |           64 |           64 |xxxxxxxxxxxxx |xxxxxxxxxxxxx |xxxxxxxxxxxxx |xxxxxxxxxxxxx |           64 |           64 |           64 |xxxxxxxxxxxxx |xxxxxxxxxxxxx |xxxxxxxxxxxxx |xxxxxxxxxxxxx |           64 |           64 |           64 |xxxxxxxxxxxxx |xxxxxxxxxxxxx |xxxxxxxxxxxxx |xxxxxxxxxxxxx |           64 |           64 |           64 |xxxxxxxxxxxxx |xxxxxxxxxxxxx |xxxxxxxxxxxxx |xxxxxxxxxxxxx |           64 |           64 |           64 |xxxxxxxxxxxxx |xxxxxxxxxxxxx |xxxxxxxxxxxxx |xxxxxxxxxxxxx |           64 |           64 |           64 |xxxxxxxxxxxxx |xxxxxxxxxxxxx |xxxxxxxxxxxxx |xxxxxxxxxxxxx |           64 |           64 |           64 |
bpred_bimod.jr_seen                             64 |           64 |           64 |xxxxxxxxxxxxx |xxxxxxxxxxxxx |xxxxxxxxxxxxx |xxxxxxxxxxxxx |           64 |           64 |           64 |xxxxxxxxxxxxx |xxxxxxxxxxxxx |xxxxxxxxxxxxx |xxxxxxxxxxxxx |           64 |           64 |           64 |xxxxxxxxxxxxx |xxxxxxxxxxxxx |xxxxxxxxxxxxx |xxxxxxxxxxxxx |           64 |           64 |           64 |xxxxxxxxxxxxx |xxxxxxxxxxxxx |xxxxxxxxxxxxx |xxxxxxxxxxxxx |           64 |           64 |           64 |xxxxxxxxxxxxx |xxxxxxxxxxxxx |xxxxxxxxxxxxx |xxxxxxxxxxxxx |           64 |           64 |           64 |xxxxxxxxxxxxx |xxxxxxxxxxxxx |xxxxxxxxxxxxx |xxxxxxxxxxxxx |           64 |           64 |           64 |xxxxxxxxxxxxx |xxxxxxxxxxxxx |xxxxxxxxxxxxx |xxxxxxxxxxxxx |           64 |           64 |           64 |xxxxxxxxxxxxx |xxxxxxxxxxxxx |xxxxxxxxxxxxx |xxxxxxxxxxxxx |           64 |           64 |           64 |xxxxxxxxxxxxx |xxxxxxxxxxxxx |xxxxxxxxxxxxx |xxxxxxxxxxxxx |           64 |           64 |           64 |xxxxxxxxxxxxx |xxxxxxxxxxxxx |xxxxxxxxxxxxx |xxxxxxxxxxxxx |           64 |           64 |           64 |
bpred_bimod.jr_non_ras_hits.PP                   0 |            0 |            0 |xxxxxxxxxxxxx |xxxxxxxxxxxxx |xxxxxxxxxxxxx |xxxxxxxxxxxxx |            0 |            0 |            0 |xxxxxxxxxxxxx |xxxxxxxxxxxxx |xxxxxxxxxxxxx |xxxxxxxxxxxxx |            0 |            0 |            0 |xxxxxxxxxxxxx |xxxxxxxxxxxxx |xxxxxxxxxxxxx |xxxxxxxxxxxxx |            0 |            0 |            0 |xxxxxxxxxxxxx |xxxxxxxxxxxxx |xxxxxxxxxxxxx |xxxxxxxxxxxxx |            0 |            0 |            0 |xxxxxxxxxxxxx |xxxxxxxxxxxxx |xxxxxxxxxxxxx |xxxxxxxxxxxxx |            0 |            0 |            0 |xxxxxxxxxxxxx |xxxxxxxxxxxxx |xxxxxxxxxxxxx |xxxxxxxxxxxxx |            0 |            0 |            0 |xxxxxxxxxxxxx |xxxxxxxxxxxxx |xxxxxxxxxxxxx |xxxxxxxxxxxxx |            0 |            0 |            0 |xxxxxxxxxxxxx |xxxxxxxxxxxxx |xxxxxxxxxxxxx |xxxxxxxxxxxxx |            0 |            0 |            0 |xxxxxxxxxxxxx |xxxxxxxxxxxxx |xxxxxxxxxxxxx |xxxxxxxxxxxxx |            0 |            0 |            0 |xxxxxxxxxxxxx |xxxxxxxxxxxxx |xxxxxxxxxxxxx |xxxxxxxxxxxxx |            0 |            0 |            0 |
bpred_bimod.jr_non_ras_seen.PP                   0 |            0 |            0 |xxxxxxxxxxxxx |xxxxxxxxxxxxx |xxxxxxxxxxxxx |xxxxxxxxxxxxx |            0 |            0 |            0 |xxxxxxxxxxxxx |xxxxxxxxxxxxx |xxxxxxxxxxxxx |xxxxxxxxxxxxx |            0 |            0 |            0 |xxxxxxxxxxxxx |xxxxxxxxxxxxx |xxxxxxxxxxxxx |xxxxxxxxxxxxx |            0 |            0 |            0 |xxxxxxxxxxxxx |xxxxxxxxxxxxx |xxxxxxxxxxxxx |xxxxxxxxxxxxx |            0 |            0 |            0 |xxxxxxxxxxxxx |xxxxxxxxxxxxx |xxxxxxxxxxxxx |xxxxxxxxxxxxx |            0 |            0 |            0 |xxxxxxxxxxxxx |xxxxxxxxxxxxx |xxxxxxxxxxxxx |xxxxxxxxxxxxx |            0 |            0 |            0 |xxxxxxxxxxxxx |xxxxxxxxxxxxx |xxxxxxxxxxxxx |xxxxxxxxxxxxx |            0 |            0 |            0 |xxxxxxxxxxxxx |xxxxxxxxxxxxx |xxxxxxxxxxxxx |xxxxxxxxxxxxx |            0 |            0 |            0 |xxxxxxxxxxxxx |xxxxxxxxxxxxx |xxxxxxxxxxxxx |xxxxxxxxxxxxx |            0 |            0 |            0 |xxxxxxxxxxxxx |xxxxxxxxxxxxx |xxxxxxxxxxxxx |xxxxxxxxxxxxx |            0 |            0 |            0 |
bpred_bimod.bpred_addr_rate                 0.6881 |       0.6881 |       0.6881 |xxxxxxxxxxxxx |xxxxxxxxxxxxx |xxxxxxxxxxxxx |xxxxxxxxxxxxx |       0.6873 |       0.6873 |       0.6874 |xxxxxxxxxxxxx |xxxxxxxxxxxxx |xxxxxxxxxxxxx |xxxxxxxxxxxxx |       0.6925 |       0.6925 |       0.6925 |xxxxxxxxxxxxx |xxxxxxxxxxxxx |xxxxxxxxxxxxx |xxxxxxxxxxxxx |       0.6934 |       0.6934 |       0.6934 |xxxxxxxxxxxxx |xxxxxxxxxxxxx |xxxxxxxxxxxxx |xxxxxxxxxxxxx |       0.7051 |       0.7051 |       0.7051 |xxxxxxxxxxxxx |xxxxxxxxxxxxx |xxxxxxxxxxxxx |xxxxxxxxxxxxx |       0.6984 |       0.6984 |       0.6984 |xxxxxxxxxxxxx |xxxxxxxxxxxxx |xxxxxxxxxxxxx |xxxxxxxxxxxxx |       0.7003 |       0.7003 |       0.7003 |xxxxxxxxxxxxx |xxxxxxxxxxxxx |xxxxxxxxxxxxx |xxxxxxxxxxxxx |       0.7047 |       0.7047 |       0.7047 |xxxxxxxxxxxxx |xxxxxxxxxxxxx |xxxxxxxxxxxxx |xxxxxxxxxxxxx |       0.7077 |       0.7077 |       0.7077 |xxxxxxxxxxxxx |xxxxxxxxxxxxx |xxxxxxxxxxxxx |xxxxxxxxxxxxx |       0.7075 |       0.7075 |       0.7075 |xxxxxxxxxxxxx |xxxxxxxxxxxxx |xxxxxxxxxxxxx |xxxxxxxxxxxxx |       0.7078 |       0.7078 |       0.7078 |
bpred_bimod.bpred_dir_rate                  0.6896 |       0.6896 |       0.6896 |xxxxxxxxxxxxx |xxxxxxxxxxxxx |xxxxxxxxxxxxx |xxxxxxxxxxxxx |       0.6881 |       0.6881 |       0.6881 |xxxxxxxxxxxxx |xxxxxxxxxxxxx |xxxxxxxxxxxxx |xxxxxxxxxxxxx |       0.6928 |       0.6928 |       0.6928 |xxxxxxxxxxxxx |xxxxxxxxxxxxx |xxxxxxxxxxxxx |xxxxxxxxxxxxx |       0.6935 |       0.6935 |       0.6935 |xxxxxxxxxxxxx |xxxxxxxxxxxxx |xxxxxxxxxxxxx |xxxxxxxxxxxxx |       0.7051 |       0.7051 |       0.7051 |xxxxxxxxxxxxx |xxxxxxxxxxxxx |xxxxxxxxxxxxx |xxxxxxxxxxxxx |       0.6984 |       0.6984 |       0.6984 |xxxxxxxxxxxxx |xxxxxxxxxxxxx |xxxxxxxxxxxxx |xxxxxxxxxxxxx |       0.7004 |       0.7004 |       0.7004 |xxxxxxxxxxxxx |xxxxxxxxxxxxx |xxxxxxxxxxxxx |xxxxxxxxxxxxx |       0.7047 |       0.7047 |       0.7047 |xxxxxxxxxxxxx |xxxxxxxxxxxxx |xxxxxxxxxxxxx |xxxxxxxxxxxxx |       0.7077 |       0.7077 |       0.7077 |xxxxxxxxxxxxx |xxxxxxxxxxxxx |xxxxxxxxxxxxx |xxxxxxxxxxxxx |       0.7075 |       0.7075 |       0.7075 |xxxxxxxxxxxxx |xxxxxxxxxxxxx |xxxxxxxxxxxxx |xxxxxxxxxxxxx |       0.7078 |       0.7078 |       0.7078 |
bpred_bimod.bpred_jr_rate                   1.0000 |       1.0000 |       1.0000 |xxxxxxxxxxxxx |xxxxxxxxxxxxx |xxxxxxxxxxxxx |xxxxxxxxxxxxx |       1.0000 |       1.0000 |       1.0000 |xxxxxxxxxxxxx |xxxxxxxxxxxxx |xxxxxxxxxxxxx |xxxxxxxxxxxxx |       1.0000 |       1.0000 |       1.0000 |xxxxxxxxxxxxx |xxxxxxxxxxxxx |xxxxxxxxxxxxx |xxxxxxxxxxxxx |       1.0000 |       1.0000 |       1.0000 |xxxxxxxxxxxxx |xxxxxxxxxxxxx |xxxxxxxxxxxxx |xxxxxxxxxxxxx |       1.0000 |       1.0000 |       1.0000 |xxxxxxxxxxxxx |xxxxxxxxxxxxx |xxxxxxxxxxxxx |xxxxxxxxxxxxx |       1.0000 |       1.0000 |       1.0000 |xxxxxxxxxxxxx |xxxxxxxxxxxxx |xxxxxxxxxxxxx |xxxxxxxxxxxxx |       1.0000 |       1.0000 |       1.0000 |xxxxxxxxxxxxx |xxxxxxxxxxxxx |xxxxxxxxxxxxx |xxxxxxxxxxxxx |       1.0000 |       1.0000 |       1.0000 |xxxxxxxxxxxxx |xxxxxxxxxxxxx |xxxxxxxxxxxxx |xxxxxxxxxxxxx |       1.0000 |       1.0000 |       1.0000 |xxxxxxxxxxxxx |xxxxxxxxxxxxx |xxxxxxxxxxxxx |xxxxxxxxxxxxx |       1.0000 |       1.0000 |       1.0000 |xxxxxxxxxxxxx |xxxxxxxxxxxxx |xxxxxxxxxxxxx |xxxxxxxxxxxxx |       1.0000 |       1.0000 |       1.0000 |
bpred_bimod.bpred_jr_non_ras_rate.PP       <error: |      <error: |      <error: |xxxxxxxxxxxxx |xxxxxxxxxxxxx |xxxxxxxxxxxxx |xxxxxxxxxxxxx |      <error: |      <error: |      <error: |xxxxxxxxxxxxx |xxxxxxxxxxxxx |xxxxxxxxxxxxx |xxxxxxxxxxxxx |      <error: |      <error: |      <error: |xxxxxxxxxxxxx |xxxxxxxxxxxxx |xxxxxxxxxxxxx |xxxxxxxxxxxxx |      <error: |      <error: |      <error: |xxxxxxxxxxxxx |xxxxxxxxxxxxx |xxxxxxxxxxxxx |xxxxxxxxxxxxx |      <error: |      <error: |      <error: |xxxxxxxxxxxxx |xxxxxxxxxxxxx |xxxxxxxxxxxxx |xxxxxxxxxxxxx |      <error: |      <error: |      <error: |xxxxxxxxxxxxx |xxxxxxxxxxxxx |xxxxxxxxxxxxx |xxxxxxxxxxxxx |      <error: |      <error: |      <error: |xxxxxxxxxxxxx |xxxxxxxxxxxxx |xxxxxxxxxxxxx |xxxxxxxxxxxxx |      <error: |      <error: |      <error: |xxxxxxxxxxxxx |xxxxxxxxxxxxx |xxxxxxxxxxxxx |xxxxxxxxxxxxx |      <error: |      <error: |      <error: |xxxxxxxxxxxxx |xxxxxxxxxxxxx |xxxxxxxxxxxxx |xxxxxxxxxxxxx |      <error: |      <error: |      <error: |xxxxxxxxxxxxx |xxxxxxxxxxxxx |xxxxxxxxxxxxx |xxxxxxxxxxxxx |      <error: |      <error: |      <error: |
bpred_bimod.retstack_pushes                     66 |           66 |           66 |xxxxxxxxxxxxx |xxxxxxxxxxxxx |xxxxxxxxxxxxx |xxxxxxxxxxxxx |           66 |           66 |           66 |xxxxxxxxxxxxx |xxxxxxxxxxxxx |xxxxxxxxxxxxx |xxxxxxxxxxxxx |           66 |           66 |           66 |xxxxxxxxxxxxx |xxxxxxxxxxxxx |xxxxxxxxxxxxx |xxxxxxxxxxxxx |           66 |           66 |           66 |xxxxxxxxxxxxx |xxxxxxxxxxxxx |xxxxxxxxxxxxx |xxxxxxxxxxxxx |           66 |           66 |           66 |xxxxxxxxxxxxx |xxxxxxxxxxxxx |xxxxxxxxxxxxx |xxxxxxxxxxxxx |           66 |           66 |           66 |xxxxxxxxxxxxx |xxxxxxxxxxxxx |xxxxxxxxxxxxx |xxxxxxxxxxxxx |           66 |           66 |           66 |xxxxxxxxxxxxx |xxxxxxxxxxxxx |xxxxxxxxxxxxx |xxxxxxxxxxxxx |           66 |           66 |           66 |xxxxxxxxxxxxx |xxxxxxxxxxxxx |xxxxxxxxxxxxx |xxxxxxxxxxxxx |           66 |           66 |           66 |xxxxxxxxxxxxx |xxxxxxxxxxxxx |xxxxxxxxxxxxx |xxxxxxxxxxxxx |           66 |           66 |           66 |xxxxxxxxxxxxx |xxxxxxxxxxxxx |xxxxxxxxxxxxx |xxxxxxxxxxxxx |           66 |           66 |           66 |
bpred_bimod.retstack_pops                       64 |           64 |           64 |xxxxxxxxxxxxx |xxxxxxxxxxxxx |xxxxxxxxxxxxx |xxxxxxxxxxxxx |           64 |           64 |           64 |xxxxxxxxxxxxx |xxxxxxxxxxxxx |xxxxxxxxxxxxx |xxxxxxxxxxxxx |           64 |           64 |           64 |xxxxxxxxxxxxx |xxxxxxxxxxxxx |xxxxxxxxxxxxx |xxxxxxxxxxxxx |           64 |           64 |           64 |xxxxxxxxxxxxx |xxxxxxxxxxxxx |xxxxxxxxxxxxx |xxxxxxxxxxxxx |           64 |           64 |           64 |xxxxxxxxxxxxx |xxxxxxxxxxxxx |xxxxxxxxxxxxx |xxxxxxxxxxxxx |           64 |           64 |           64 |xxxxxxxxxxxxx |xxxxxxxxxxxxx |xxxxxxxxxxxxx |xxxxxxxxxxxxx |           64 |           64 |           64 |xxxxxxxxxxxxx |xxxxxxxxxxxxx |xxxxxxxxxxxxx |xxxxxxxxxxxxx |           64 |           64 |           64 |xxxxxxxxxxxxx |xxxxxxxxxxxxx |xxxxxxxxxxxxx |xxxxxxxxxxxxx |           64 |           64 |           64 |xxxxxxxxxxxxx |xxxxxxxxxxxxx |xxxxxxxxxxxxx |xxxxxxxxxxxxx |           64 |           64 |           64 |xxxxxxxxxxxxx |xxxxxxxxxxxxx |xxxxxxxxxxxxx |xxxxxxxxxxxxx |           64 |           64 |           64 |
bpred_bimod.used_ras.PP                         64 |           64 |           64 |xxxxxxxxxxxxx |xxxxxxxxxxxxx |xxxxxxxxxxxxx |xxxxxxxxxxxxx |           64 |           64 |           64 |xxxxxxxxxxxxx |xxxxxxxxxxxxx |xxxxxxxxxxxxx |xxxxxxxxxxxxx |           64 |           64 |           64 |xxxxxxxxxxxxx |xxxxxxxxxxxxx |xxxxxxxxxxxxx |xxxxxxxxxxxxx |           64 |           64 |           64 |xxxxxxxxxxxxx |xxxxxxxxxxxxx |xxxxxxxxxxxxx |xxxxxxxxxxxxx |           64 |           64 |           64 |xxxxxxxxxxxxx |xxxxxxxxxxxxx |xxxxxxxxxxxxx |xxxxxxxxxxxxx |           64 |           64 |           64 |xxxxxxxxxxxxx |xxxxxxxxxxxxx |xxxxxxxxxxxxx |xxxxxxxxxxxxx |           64 |           64 |           64 |xxxxxxxxxxxxx |xxxxxxxxxxxxx |xxxxxxxxxxxxx |xxxxxxxxxxxxx |           64 |           64 |           64 |xxxxxxxxxxxxx |xxxxxxxxxxxxx |xxxxxxxxxxxxx |xxxxxxxxxxxxx |           64 |           64 |           64 |xxxxxxxxxxxxx |xxxxxxxxxxxxx |xxxxxxxxxxxxx |xxxxxxxxxxxxx |           64 |           64 |           64 |xxxxxxxxxxxxx |xxxxxxxxxxxxx |xxxxxxxxxxxxx |xxxxxxxxxxxxx |           64 |           64 |           64 |
bpred_bimod.ras_hits.PP                         64 |           64 |           64 |xxxxxxxxxxxxx |xxxxxxxxxxxxx |xxxxxxxxxxxxx |xxxxxxxxxxxxx |           64 |           64 |           64 |xxxxxxxxxxxxx |xxxxxxxxxxxxx |xxxxxxxxxxxxx |xxxxxxxxxxxxx |           64 |           64 |           64 |xxxxxxxxxxxxx |xxxxxxxxxxxxx |xxxxxxxxxxxxx |xxxxxxxxxxxxx |           64 |           64 |           64 |xxxxxxxxxxxxx |xxxxxxxxxxxxx |xxxxxxxxxxxxx |xxxxxxxxxxxxx |           64 |           64 |           64 |xxxxxxxxxxxxx |xxxxxxxxxxxxx |xxxxxxxxxxxxx |xxxxxxxxxxxxx |           64 |           64 |           64 |xxxxxxxxxxxxx |xxxxxxxxxxxxx |xxxxxxxxxxxxx |xxxxxxxxxxxxx |           64 |           64 |           64 |xxxxxxxxxxxxx |xxxxxxxxxxxxx |xxxxxxxxxxxxx |xxxxxxxxxxxxx |           64 |           64 |           64 |xxxxxxxxxxxxx |xxxxxxxxxxxxx |xxxxxxxxxxxxx |xxxxxxxxxxxxx |           64 |           64 |           64 |xxxxxxxxxxxxx |xxxxxxxxxxxxx |xxxxxxxxxxxxx |xxxxxxxxxxxxx |           64 |           64 |           64 |xxxxxxxxxxxxx |xxxxxxxxxxxxx |xxxxxxxxxxxxx |xxxxxxxxxxxxx |           64 |           64 |           64 |
bpred_bimod.ras_rate.PP                     1.0000 |       1.0000 |       1.0000 |xxxxxxxxxxxxx |xxxxxxxxxxxxx |xxxxxxxxxxxxx |xxxxxxxxxxxxx |       1.0000 |       1.0000 |       1.0000 |xxxxxxxxxxxxx |xxxxxxxxxxxxx |xxxxxxxxxxxxx |xxxxxxxxxxxxx |       1.0000 |       1.0000 |       1.0000 |xxxxxxxxxxxxx |xxxxxxxxxxxxx |xxxxxxxxxxxxx |xxxxxxxxxxxxx |       1.0000 |       1.0000 |       1.0000 |xxxxxxxxxxxxx |xxxxxxxxxxxxx |xxxxxxxxxxxxx |xxxxxxxxxxxxx |       1.0000 |       1.0000 |       1.0000 |xxxxxxxxxxxxx |xxxxxxxxxxxxx |xxxxxxxxxxxxx |xxxxxxxxxxxxx |       1.0000 |       1.0000 |       1.0000 |xxxxxxxxxxxxx |xxxxxxxxxxxxx |xxxxxxxxxxxxx |xxxxxxxxxxxxx |       1.0000 |       1.0000 |       1.0000 |xxxxxxxxxxxxx |xxxxxxxxxxxxx |xxxxxxxxxxxxx |xxxxxxxxxxxxx |       1.0000 |       1.0000 |       1.0000 |xxxxxxxxxxxxx |xxxxxxxxxxxxx |xxxxxxxxxxxxx |xxxxxxxxxxxxx |       1.0000 |       1.0000 |       1.0000 |xxxxxxxxxxxxx |xxxxxxxxxxxxx |xxxxxxxxxxxxx |xxxxxxxxxxxxx |       1.0000 |       1.0000 |       1.0000 |xxxxxxxxxxxxx |xxxxxxxxxxxxx |xxxxxxxxxxxxx |xxxxxxxxxxxxx |       1.0000 |       1.0000 |       1.0000 |
bpred_2lev.lookups                   xxxxxxxxxxxxx |xxxxxxxxxxxxx |xxxxxxxxxxxxx |        75319 |        75319 |        75319 |        75319 |xxxxxxxxxxxxx |xxxxxxxxxxxxx |xxxxxxxxxxxxx |       161376 |       161376 |       161376 |       161376 |xxxxxxxxxxxxx |xxxxxxxxxxxxx |xxxxxxxxxxxxx |       349253 |       349253 |       349253 |       349253 |xxxxxxxxxxxxx |xxxxxxxxxxxxx |xxxxxxxxxxxxx |       748605 |       748605 |       748605 |       748605 |xxxxxxxxxxxxx |xxxxxxxxxxxxx |xxxxxxxxxxxxx |      1621970 |      1621970 |      1621970 |      1621970 |xxxxxxxxxxxxx |xxxxxxxxxxxxx |xxxxxxxxxxxxx |      3421873 |      3421873 |      3421873 |      3421873 |xxxxxxxxxxxxx |xxxxxxxxxxxxx |xxxxxxxxxxxxx |      7246241 |      7246241 |      7246241 |      7246241 |xxxxxxxxxxxxx |xxxxxxxxxxxxx |xxxxxxxxxxxxx |     15405251 |     15405251 |     15405251 |     15405251 |xxxxxxxxxxxxx |xxxxxxxxxxxxx |xxxxxxxxxxxxx |     32554398 |     32554398 |     32554398 |     32554398 |xxxxxxxxxxxxx |xxxxxxxxxxxxx |xxxxxxxxxxxxx |     68330516 |     68330516 |     68330516 |     68330516 |xxxxxxxxxxxxx |xxxxxxxxxxxxx |xxxxxxxxxxxxx |    143592416 |    143592416 |    143592416 |    143592416 |
[...]
bpred_2lev.retstack_pushes           xxxxxxxxxxxxx |xxxxxxxxxxxxx |xxxxxxxxxxxxx |           66 |           66 |           66 |           66 |xxxxxxxxxxxxx |xxxxxxxxxxxxx |xxxxxxxxxxxxx |           66 |           66 |           66 |           66 |xxxxxxxxxxxxx |xxxxxxxxxxxxx |xxxxxxxxxxxxx |           66 |           66 |           66 |           66 |xxxxxxxxxxxxx |xxxxxxxxxxxxx |xxxxxxxxxxxxx |           66 |           66 |           66 |           66 |xxxxxxxxxxxxx |xxxxxxxxxxxxx |xxxxxxxxxxxxx |           66 |           66 |           66 |           66 |xxxxxxxxxxxxx |xxxxxxxxxxxxx |xxxxxxxxxxxxx |           66 |           66 |           66 |           66 |xxxxxxxxxxxxx |xxxxxxxxxxxxx |xxxxxxxxxxxxx |           66 |           66 |           66 |           66 |xxxxxxxxxxxxx |xxxxxxxxxxxxx |xxxxxxxxxxxxx |           66 |           66 |           66 |           66 |xxxxxxxxxxxxx |xxxxxxxxxxxxx |xxxxxxxxxxxxx |           66 |           66 |           66 |           66 |xxxxxxxxxxxxx |xxxxxxxxxxxxx |xxxxxxxxxxxxx |           66 |           66 |           66 |           66 |xxxxxxxxxxxxx |xxxxxxxxxxxxx |xxxxxxxxxxxxx |           66 |           66 |           66 |           66 |
bpred_2lev.retstack_pops             xxxxxxxxxxxxx |xxxxxxxxxxxxx |xxxxxxxxxxxxx |           64 |           64 |           64 |           64 |xxxxxxxxxxxxx |xxxxxxxxxxxxx |xxxxxxxxxxxxx |           64 |           64 |           64 |           64 |xxxxxxxxxxxxx |xxxxxxxxxxxxx |xxxxxxxxxxxxx |           64 |           64 |           64 |           64 |xxxxxxxxxxxxx |xxxxxxxxxxxxx |xxxxxxxxxxxxx |           64 |           64 |           64 |           64 |xxxxxxxxxxxxx |xxxxxxxxxxxxx |xxxxxxxxxxxxx |           64 |           64 |           64 |           64 |xxxxxxxxxxxxx |xxxxxxxxxxxxx |xxxxxxxxxxxxx |           64 |           64 |           64 |           64 |xxxxxxxxxxxxx |xxxxxxxxxxxxx |xxxxxxxxxxxxx |           64 |           64 |           64 |           64 |xxxxxxxxxxxxx |xxxxxxxxxxxxx |xxxxxxxxxxxxx |           64 |           64 |           64 |           64 |xxxxxxxxxxxxx |xxxxxxxxxxxxx |xxxxxxxxxxxxx |           64 |           64 |           64 |           64 |xxxxxxxxxxxxx |xxxxxxxxxxxxx |xxxxxxxxxxxxx |           64 |           64 |           64 |           64 |xxxxxxxxxxxxx |xxxxxxxxxxxxx |xxxxxxxxxxxxx |           64 |           64 |           64 |           64 |
bpred_2lev.used_ras.PP               xxxxxxxxxxxxx |xxxxxxxxxxxxx |xxxxxxxxxxxxx |           64 |           64 |           64 |           64 |xxxxxxxxxxxxx |xxxxxxxxxxxxx |xxxxxxxxxxxxx |           64 |           64 |           64 |           64 |xxxxxxxxxxxxx |xxxxxxxxxxxxx |xxxxxxxxxxxxx |           64 |           64 |           64 |           64 |xxxxxxxxxxxxx |xxxxxxxxxxxxx |xxxxxxxxxxxxx |           64 |           64 |           64 |           64 |xxxxxxxxxxxxx |xxxxxxxxxxxxx |xxxxxxxxxxxxx |           64 |           64 |           64 |           64 |xxxxxxxxxxxxx |xxxxxxxxxxxxx |xxxxxxxxxxxxx |           64 |           64 |           64 |           64 |xxxxxxxxxxxxx |xxxxxxxxxxxxx |xxxxxxxxxxxxx |           64 |           64 |           64 |           64 |xxxxxxxxxxxxx |xxxxxxxxxxxxx |xxxxxxxxxxxxx |           64 |           64 |           64 |           64 |xxxxxxxxxxxxx |xxxxxxxxxxxxx |xxxxxxxxxxxxx |           64 |           64 |           64 |           64 |xxxxxxxxxxxxx |xxxxxxxxxxxxx |xxxxxxxxxxxxx |           64 |           64 |           64 |           64 |xxxxxxxxxxxxx |xxxxxxxxxxxxx |xxxxxxxxxxxxx |           64 |           64 |           64 |           64 |
bpred_2lev.ras_hits.PP               xxxxxxxxxxxxx |xxxxxxxxxxxxx |xxxxxxxxxxxxx |           64 |           64 |           64 |           64 |xxxxxxxxxxxxx |xxxxxxxxxxxxx |xxxxxxxxxxxxx |           64 |           64 |           64 |           64 |xxxxxxxxxxxxx |xxxxxxxxxxxxx |xxxxxxxxxxxxx |           64 |           64 |           64 |           64 |xxxxxxxxxxxxx |xxxxxxxxxxxxx |xxxxxxxxxxxxx |           64 |           64 |           64 |           64 |xxxxxxxxxxxxx |xxxxxxxxxxxxx |xxxxxxxxxxxxx |           64 |           64 |           64 |           64 |xxxxxxxxxxxxx |xxxxxxxxxxxxx |xxxxxxxxxxxxx |           64 |           64 |           64 |           64 |xxxxxxxxxxxxx |xxxxxxxxxxxxx |xxxxxxxxxxxxx |           64 |           64 |           64 |           64 |xxxxxxxxxxxxx |xxxxxxxxxxxxx |xxxxxxxxxxxxx |           64 |           64 |           64 |           64 |xxxxxxxxxxxxx |xxxxxxxxxxxxx |xxxxxxxxxxxxx |           64 |           64 |           64 |           64 |xxxxxxxxxxxxx |xxxxxxxxxxxxx |xxxxxxxxxxxxx |           64 |           64 |           64 |           64 |xxxxxxxxxxxxx |xxxxxxxxxxxxx |xxxxxxxxxxxxx |           64 |           64 |           64 |           64 |
bpred_2lev.ras_rate.PP               xxxxxxxxxxxxx |xxxxxxxxxxxxx |xxxxxxxxxxxxx |       1.0000 |       1.0000 |       1.0000 |       1.0000 |xxxxxxxxxxxxx |xxxxxxxxxxxxx |xxxxxxxxxxxxx |       1.0000 |       1.0000 |       1.0000 |       1.0000 |xxxxxxxxxxxxx |xxxxxxxxxxxxx |xxxxxxxxxxxxx |       1.0000 |       1.0000 |       1.0000 |       1.0000 |xxxxxxxxxxxxx |xxxxxxxxxxxxx |xxxxxxxxxxxxx |       1.0000 |       1.0000 |       1.0000 |       1.0000 |xxxxxxxxxxxxx |xxxxxxxxxxxxx |xxxxxxxxxxxxx |       1.0000 |       1.0000 |       1.0000 |       1.0000 |xxxxxxxxxxxxx |xxxxxxxxxxxxx |xxxxxxxxxxxxx |       1.0000 |       1.0000 |       1.0000 |       1.0000 |xxxxxxxxxxxxx |xxxxxxxxxxxxx |xxxxxxxxxxxxx |       1.0000 |       1.0000 |       1.0000 |       1.0000 |xxxxxxxxxxxxx |xxxxxxxxxxxxx |xxxxxxxxxxxxx |       1.0000 |       1.0000 |       1.0000 |       1.0000 |xxxxxxxxxxxxx |xxxxxxxxxxxxx |xxxxxxxxxxxxx |       1.0000 |       1.0000 |       1.0000 |       1.0000 |xxxxxxxxxxxxx |xxxxxxxxxxxxx |xxxxxxxxxxxxx |       1.0000 |       1.0000 |       1.0000 |       1.0000 |xxxxxxxxxxxxx |xxxxxxxxxxxxx |xxxxxxxxxxxxx |       1.0000 |       1.0000 |       1.0000 |       1.0000 |

Command list: 
	sslittle-na-sstrix-gcc -Wall -O3 -funroll-loops -finline-functions  -DRANDOM_SIZE=4096 -DOFFSET=9 -DSORT=base_quicksort7 sorts/base_quicksort72061244056.c simpleMain.c -o base_quicksort7224398297
	sim-cache -cache:dl1 dl1:256:32:1:l -cache:dl2 dl2:131072:32:1:l -cache:il1 il1:256:32:1:l -cache:il2 dl2 base_quicksort7224398297
	sim-cache -cache:dl1 dl1:256:32:1:l -cache:dl2 dl2:65536:32:1:l -cache:il1 il1:256:32:1:l -cache:il2 dl2 base_quicksort7224398297
	sim-cache -cache:dl1 dl1:1:32:256:l -cache:dl2 dl2:1:32:131072:l -cache:il1 il1:1:32:256:l -cache:il2 dl2 base_quicksort7224398297
	sim-cache -cache:dl1 dl1:1:32:256:l -cache:dl2 dl2:1:32:65536:l -cache:il1 il1:1:32:256:l -cache:il2 dl2 base_quicksort7224398297
	sim-bpred -bpred bimod -bpred:bimod 512 base_quicksort7224398297
	sim-bpred -bpred bimod -bpred:bimod 1024 base_quicksort7224398297
	sim-bpred -bpred bimod -bpred:bimod 2048 base_quicksort7224398297
	sim-bpred -bpred 2lev -bpred:2lev 1 512 10 1 base_quicksort7224398297
	sim-bpred -bpred 2lev -bpred:2lev 1 1024 10 1 base_quicksort7224398297
	sim-bpred -bpred 2lev -bpred:2lev 1 2048 10 1 base_quicksort7224398297
	sim-bpred -bpred 2lev -bpred:2lev 1 4096 10 1 base_quicksort7224398297
	sslittle-na-sstrix-gcc -Wall -O3 -funroll-loops -finline-functions  -DRANDOM_SIZE=8192 -DOFFSET=9 -DSORT=base_quicksort7 sorts/base_quicksort72061244056.c simpleMain.c -o base_quicksort7224398297
	sim-cache -cache:dl1 dl1:256:32:1:l -cache:dl2 dl2:131072:32:1:l -cache:il1 il1:256:32:1:l -cache:il2 dl2 base_quicksort7224398297
	sim-cache -cache:dl1 dl1:256:32:1:l -cache:dl2 dl2:65536:32:1:l -cache:il1 il1:256:32:1:l -cache:il2 dl2 base_quicksort7224398297
	sim-cache -cache:dl1 dl1:1:32:256:l -cache:dl2 dl2:1:32:131072:l -cache:il1 il1:1:32:256:l -cache:il2 dl2 base_quicksort7224398297
	sim-cache -cache:dl1 dl1:1:32:256:l -cache:dl2 dl2:1:32:65536:l -cache:il1 il1:1:32:256:l -cache:il2 dl2 base_quicksort7224398297
	sim-bpred -bpred bimod -bpred:bimod 512 base_quicksort7224398297
	sim-bpred -bpred bimod -bpred:bimod 1024 base_quicksort7224398297
	sim-bpred -bpred bimod -bpred:bimod 2048 base_quicksort7224398297
	sim-bpred -bpred 2lev -bpred:2lev 1 512 10 1 base_quicksort7224398297
	sim-bpred -bpred 2lev -bpred:2lev 1 1024 10 1 base_quicksort7224398297
	sim-bpred -bpred 2lev -bpred:2lev 1 2048 10 1 base_quicksort7224398297
	sim-bpred -bpred 2lev -bpred:2lev 1 4096 10 1 base_quicksort7224398297
	sslittle-na-sstrix-gcc -Wall -O3 -funroll-loops -finline-functions  -DRANDOM_SIZE=16384 -DOFFSET=9 -DSORT=base_quicksort7 sorts/base_quicksort72061244056.c simpleMain.c -o base_quicksort7224398297
	sim-cache -cache:dl1 dl1:256:32:1:l -cache:dl2 dl2:131072:32:1:l -cache:il1 il1:256:32:1:l -cache:il2 dl2 base_quicksort7224398297
	sim-cache -cache:dl1 dl1:256:32:1:l -cache:dl2 dl2:65536:32:1:l -cache:il1 il1:256:32:1:l -cache:il2 dl2 base_quicksort7224398297
	sim-cache -cache:dl1 dl1:1:32:256:l -cache:dl2 dl2:1:32:131072:l -cache:il1 il1:1:32:256:l -cache:il2 dl2 base_quicksort7224398297
	sim-cache -cache:dl1 dl1:1:32:256:l -cache:dl2 dl2:1:32:65536:l -cache:il1 il1:1:32:256:l -cache:il2 dl2 base_quicksort7224398297
	sim-bpred -bpred bimod -bpred:bimod 512 base_quicksort7224398297
	sim-bpred -bpred bimod -bpred:bimod 1024 base_quicksort7224398297
	sim-bpred -bpred bimod -bpred:bimod 2048 base_quicksort7224398297
	sim-bpred -bpred 2lev -bpred:2lev 1 512 10 1 base_quicksort7224398297
	sim-bpred -bpred 2lev -bpred:2lev 1 1024 10 1 base_quicksort7224398297
	sim-bpred -bpred 2lev -bpred:2lev 1 2048 10 1 base_quicksort7224398297
	sim-bpred -bpred 2lev -bpred:2lev 1 4096 10 1 base_quicksort7224398297
	sslittle-na-sstrix-gcc -Wall -O3 -funroll-loops -finline-functions  -DRANDOM_SIZE=32768 -DOFFSET=9 -DSORT=base_quicksort7 sorts/base_quicksort72061244056.c simpleMain.c -o base_quicksort7224398297
	sim-cache -cache:dl1 dl1:256:32:1:l -cache:dl2 dl2:131072:32:1:l -cache:il1 il1:256:32:1:l -cache:il2 dl2 base_quicksort7224398297
	sim-cache -cache:dl1 dl1:256:32:1:l -cache:dl2 dl2:65536:32:1:l -cache:il1 il1:256:32:1:l -cache:il2 dl2 base_quicksort7224398297
	sim-cache -cache:dl1 dl1:1:32:256:l -cache:dl2 dl2:1:32:131072:l -cache:il1 il1:1:32:256:l -cache:il2 dl2 base_quicksort7224398297
	sim-cache -cache:dl1 dl1:1:32:256:l -cache:dl2 dl2:1:32:65536:l -cache:il1 il1:1:32:256:l -cache:il2 dl2 base_quicksort7224398297
	sim-bpred -bpred bimod -bpred:bimod 512 base_quicksort7224398297
	sim-bpred -bpred bimod -bpred:bimod 1024 base_quicksort7224398297
	sim-bpred -bpred bimod -bpred:bimod 2048 base_quicksort7224398297
	sim-bpred -bpred 2lev -bpred:2lev 1 512 10 1 base_quicksort7224398297
	sim-bpred -bpred 2lev -bpred:2lev 1 1024 10 1 base_quicksort7224398297
	sim-bpred -bpred 2lev -bpred:2lev 1 2048 10 1 base_quicksort7224398297
	sim-bpred -bpred 2lev -bpred:2lev 1 4096 10 1 base_quicksort7224398297
	sslittle-na-sstrix-gcc -Wall -O3 -funroll-loops -finline-functions  -DRANDOM_SIZE=65536 -DOFFSET=9 -DSORT=base_quicksort7 sorts/base_quicksort72061244056.c simpleMain.c -o base_quicksort7224398297
	sim-cache -cache:dl1 dl1:256:32:1:l -cache:dl2 dl2:131072:32:1:l -cache:il1 il1:256:32:1:l -cache:il2 dl2 base_quicksort7224398297
	sim-cache -cache:dl1 dl1:256:32:1:l -cache:dl2 dl2:65536:32:1:l -cache:il1 il1:256:32:1:l -cache:il2 dl2 base_quicksort7224398297
	sim-cache -cache:dl1 dl1:1:32:256:l -cache:dl2 dl2:1:32:131072:l -cache:il1 il1:1:32:256:l -cache:il2 dl2 base_quicksort7224398297
	sim-cache -cache:dl1 dl1:1:32:256:l -cache:dl2 dl2:1:32:65536:l -cache:il1 il1:1:32:256:l -cache:il2 dl2 base_quicksort7224398297
	sim-bpred -bpred bimod -bpred:bimod 512 base_quicksort7224398297
	sim-bpred -bpred bimod -bpred:bimod 1024 base_quicksort7224398297
	sim-bpred -bpred bimod -bpred:bimod 2048 base_quicksort7224398297
	sim-bpred -bpred 2lev -bpred:2lev 1 512 10 1 base_quicksort7224398297
	sim-bpred -bpred 2lev -bpred:2lev 1 1024 10 1 base_quicksort7224398297
	sim-bpred -bpred 2lev -bpred:2lev 1 2048 10 1 base_quicksort7224398297
	sim-bpred -bpred 2lev -bpred:2lev 1 4096 10 1 base_quicksort7224398297
	sslittle-na-sstrix-gcc -Wall -O3 -funroll-loops -finline-functions  -DRANDOM_SIZE=131072 -DOFFSET=9 -DSORT=base_quicksort7 sorts/base_quicksort72061244056.c simpleMain.c -o base_quicksort7224398297
	sim-cache -cache:dl1 dl1:256:32:1:l -cache:dl2 dl2:131072:32:1:l -cache:il1 il1:256:32:1:l -cache:il2 dl2 base_quicksort7224398297
	sim-cache -cache:dl1 dl1:256:32:1:l -cache:dl2 dl2:65536:32:1:l -cache:il1 il1:256:32:1:l -cache:il2 dl2 base_quicksort7224398297
	sim-cache -cache:dl1 dl1:1:32:256:l -cache:dl2 dl2:1:32:131072:l -cache:il1 il1:1:32:256:l -cache:il2 dl2 base_quicksort7224398297
	sim-cache -cache:dl1 dl1:1:32:256:l -cache:dl2 dl2:1:32:65536:l -cache:il1 il1:1:32:256:l -cache:il2 dl2 base_quicksort7224398297
	sim-bpred -bpred bimod -bpred:bimod 512 base_quicksort7224398297
	sim-bpred -bpred bimod -bpred:bimod 1024 base_quicksort7224398297
	sim-bpred -bpred bimod -bpred:bimod 2048 base_quicksort7224398297
	sim-bpred -bpred 2lev -bpred:2lev 1 512 10 1 base_quicksort7224398297
	sim-bpred -bpred 2lev -bpred:2lev 1 1024 10 1 base_quicksort7224398297
	sim-bpred -bpred 2lev -bpred:2lev 1 2048 10 1 base_quicksort7224398297
	sim-bpred -bpred 2lev -bpred:2lev 1 4096 10 1 base_quicksort7224398297
	sslittle-na-sstrix-gcc -Wall -O3 -funroll-loops -finline-functions  -DRANDOM_SIZE=262144 -DOFFSET=9 -DSORT=base_quicksort7 sorts/base_quicksort72061244056.c simpleMain.c -o base_quicksort7224398297
	sim-cache -cache:dl1 dl1:256:32:1:l -cache:dl2 dl2:131072:32:1:l -cache:il1 il1:256:32:1:l -cache:il2 dl2 base_quicksort7224398297
	sim-cache -cache:dl1 dl1:256:32:1:l -cache:dl2 dl2:65536:32:1:l -cache:il1 il1:256:32:1:l -cache:il2 dl2 base_quicksort7224398297
	sim-cache -cache:dl1 dl1:1:32:256:l -cache:dl2 dl2:1:32:131072:l -cache:il1 il1:1:32:256:l -cache:il2 dl2 base_quicksort7224398297
	sim-cache -cache:dl1 dl1:1:32:256:l -cache:dl2 dl2:1:32:65536:l -cache:il1 il1:1:32:256:l -cache:il2 dl2 base_quicksort7224398297
	sim-bpred -bpred bimod -bpred:bimod 512 base_quicksort7224398297
	sim-bpred -bpred bimod -bpred:bimod 1024 base_quicksort7224398297
	sim-bpred -bpred bimod -bpred:bimod 2048 base_quicksort7224398297
	sim-bpred -bpred 2lev -bpred:2lev 1 512 10 1 base_quicksort7224398297
	sim-bpred -bpred 2lev -bpred:2lev 1 1024 10 1 base_quicksort7224398297
	sim-bpred -bpred 2lev -bpred:2lev 1 2048 10 1 base_quicksort7224398297
	sim-bpred -bpred 2lev -bpred:2lev 1 4096 10 1 base_quicksort7224398297
	sslittle-na-sstrix-gcc -Wall -O3 -funroll-loops -finline-functions  -DRANDOM_SIZE=524288 -DOFFSET=9 -DSORT=base_quicksort7 sorts/base_quicksort72061244056.c simpleMain.c -o base_quicksort7224398297
	sim-cache -cache:dl1 dl1:256:32:1:l -cache:dl2 dl2:131072:32:1:l -cache:il1 il1:256:32:1:l -cache:il2 dl2 base_quicksort7224398297
	sim-cache -cache:dl1 dl1:256:32:1:l -cache:dl2 dl2:65536:32:1:l -cache:il1 il1:256:32:1:l -cache:il2 dl2 base_quicksort7224398297
	sim-cache -cache:dl1 dl1:1:32:256:l -cache:dl2 dl2:1:32:131072:l -cache:il1 il1:1:32:256:l -cache:il2 dl2 base_quicksort7224398297
	sim-cache -cache:dl1 dl1:1:32:256:l -cache:dl2 dl2:1:32:65536:l -cache:il1 il1:1:32:256:l -cache:il2 dl2 base_quicksort7224398297
	sim-bpred -bpred bimod -bpred:bimod 512 base_quicksort7224398297
	sim-bpred -bpred bimod -bpred:bimod 1024 base_quicksort7224398297
	sim-bpred -bpred bimod -bpred:bimod 2048 base_quicksort7224398297
	sim-bpred -bpred 2lev -bpred:2lev 1 512 10 1 base_quicksort7224398297
	sim-bpred -bpred 2lev -bpred:2lev 1 1024 10 1 base_quicksort7224398297
	sim-bpred -bpred 2lev -bpred:2lev 1 2048 10 1 base_quicksort7224398297
	sim-bpred -bpred 2lev -bpred:2lev 1 4096 10 1 base_quicksort7224398297
	sslittle-na-sstrix-gcc -Wall -O3 -funroll-loops -finline-functions  -DRANDOM_SIZE=1048576 -DOFFSET=9 -DSORT=base_quicksort7 sorts/base_quicksort72061244056.c simpleMain.c -o base_quicksort7224398297
	sim-cache -cache:dl1 dl1:256:32:1:l -cache:dl2 dl2:131072:32:1:l -cache:il1 il1:256:32:1:l -cache:il2 dl2 base_quicksort7224398297
	sim-cache -cache:dl1 dl1:256:32:1:l -cache:dl2 dl2:65536:32:1:l -cache:il1 il1:256:32:1:l -cache:il2 dl2 base_quicksort7224398297
	sim-cache -cache:dl1 dl1:1:32:256:l -cache:dl2 dl2:1:32:131072:l -cache:il1 il1:1:32:256:l -cache:il2 dl2 base_quicksort7224398297
	sim-cache -cache:dl1 dl1:1:32:256:l -cache:dl2 dl2:1:32:65536:l -cache:il1 il1:1:32:256:l -cache:il2 dl2 base_quicksort7224398297
	sim-bpred -bpred bimod -bpred:bimod 512 base_quicksort7224398297
	sim-bpred -bpred bimod -bpred:bimod 1024 base_quicksort7224398297
	sim-bpred -bpred bimod -bpred:bimod 2048 base_quicksort7224398297
	sim-bpred -bpred 2lev -bpred:2lev 1 512 10 1 base_quicksort7224398297
	sim-bpred -bpred 2lev -bpred:2lev 1 1024 10 1 base_quicksort7224398297
	sim-bpred -bpred 2lev -bpred:2lev 1 2048 10 1 base_quicksort7224398297
	sim-bpred -bpred 2lev -bpred:2lev 1 4096 10 1 base_quicksort7224398297
	sslittle-na-sstrix-gcc -Wall -O3 -funroll-loops -finline-functions  -DRANDOM_SIZE=2097152 -DOFFSET=9 -DSORT=base_quicksort7 sorts/base_quicksort72061244056.c simpleMain.c -o base_quicksort7224398297
	sim-cache -cache:dl1 dl1:256:32:1:l -cache:dl2 dl2:131072:32:1:l -cache:il1 il1:256:32:1:l -cache:il2 dl2 base_quicksort7224398297
	sim-cache -cache:dl1 dl1:256:32:1:l -cache:dl2 dl2:65536:32:1:l -cache:il1 il1:256:32:1:l -cache:il2 dl2 base_quicksort7224398297
	sim-cache -cache:dl1 dl1:1:32:256:l -cache:dl2 dl2:1:32:131072:l -cache:il1 il1:1:32:256:l -cache:il2 dl2 base_quicksort7224398297
	sim-cache -cache:dl1 dl1:1:32:256:l -cache:dl2 dl2:1:32:65536:l -cache:il1 il1:1:32:256:l -cache:il2 dl2 base_quicksort7224398297
	sim-bpred -bpred bimod -bpred:bimod 512 base_quicksort7224398297
	sim-bpred -bpred bimod -bpred:bimod 1024 base_quicksort7224398297
	sim-bpred -bpred bimod -bpred:bimod 2048 base_quicksort7224398297
	sim-bpred -bpred 2lev -bpred:2lev 1 512 10 1 base_quicksort7224398297
	sim-bpred -bpred 2lev -bpred:2lev 1 1024 10 1 base_quicksort7224398297
	sim-bpred -bpred 2lev -bpred:2lev 1 2048 10 1 base_quicksort7224398297
	sim-bpred -bpred 2lev -bpred:2lev 1 4096 10 1 base_quicksort7224398297
	sslittle-na-sstrix-gcc -Wall -O3 -funroll-loops -finline-functions  -DRANDOM_SIZE=4194304 -DOFFSET=9 -DSORT=base_quicksort7 sorts/base_quicksort72061244056.c simpleMain.c -o base_quicksort7224398297
	sim-cache -cache:dl1 dl1:256:32:1:l -cache:dl2 dl2:131072:32:1:l -cache:il1 il1:256:32:1:l -cache:il2 dl2 base_quicksort7224398297
	sim-cache -cache:dl1 dl1:256:32:1:l -cache:dl2 dl2:65536:32:1:l -cache:il1 il1:256:32:1:l -cache:il2 dl2 base_quicksort7224398297
	sim-cache -cache:dl1 dl1:1:32:256:l -cache:dl2 dl2:1:32:131072:l -cache:il1 il1:1:32:256:l -cache:il2 dl2 base_quicksort7224398297
	sim-cache -cache:dl1 dl1:1:32:256:l -cache:dl2 dl2:1:32:65536:l -cache:il1 il1:1:32:256:l -cache:il2 dl2 base_quicksort7224398297
	sim-bpred -bpred bimod -bpred:bimod 512 base_quicksort7224398297
	sim-bpred -bpred bimod -bpred:bimod 1024 base_quicksort7224398297
	sim-bpred -bpred bimod -bpred:bimod 2048 base_quicksort7224398297
	sim-bpred -bpred 2lev -bpred:2lev 1 512 10 1 base_quicksort7224398297
	sim-bpred -bpred 2lev -bpred:2lev 1 1024 10 1 base_quicksort7224398297
	sim-bpred -bpred 2lev -bpred:2lev 1 2048 10 1 base_quicksort7224398297
	sim-bpred -bpred 2lev -bpred:2lev 1 4096 10 1 base_quicksort7224398297
