Wed Jul 20 01:37:26 2005
Run as: "./do_simple -c random.org6 -o 6 base_quicksort"
-------------------------------------------------------------------------------------------------
sim-cache                                     4096 |         4096 |         4096 |         4096 |         8192 |         8192 |         8192 |         8192 |        16384 |        16384 |        16384 |        16384 |        32768 |        32768 |        32768 |        32768 |        65536 |        65536 |        65536 |        65536 |       131072 |       131072 |       131072 |       131072 |       262144 |       262144 |       262144 |       262144 |       524288 |       524288 |       524288 |       524288 |      1048576 |      1048576 |      1048576 |      1048576 |      2097152 |      2097152 |      2097152 |      2097152 |      4194304 |      4194304 |      4194304 |      4194304 |
-cache:dl1 dl1:256:32:1:l -cache:dl2 dl2:131072:32:1:l -cache:il1 il1:256:32:1:l -cache:il2 dl2
-cache:dl1 dl1:256:32:1:l -cache:dl2 dl2:65536:32:1:l -cache:il1 il1:256:32:1:l -cache:il2 dl2
-cache:dl1 dl1:1:32:256:l -cache:dl2 dl2:1:32:131072:l -cache:il1 il1:1:32:256:l -cache:il2 dl2
-cache:dl1 dl1:1:32:256:l -cache:dl2 dl2:1:32:65536:l -cache:il1 il1:1:32:256:l -cache:il2 dl2
-------------------------------------------------------------------------------------------------
sim_num_insn                                461193 |       461193 |       461193 |       461193 |       976424 |       976424 |       976424 |       976424 |      2138942 |      2138942 |      2138942 |      2138942 |      4643359 |      4643359 |      4643359 |      4643359 |     10106739 |     10106739 |     10106739 |     10106739 |     20996057 |     20996057 |     20996057 |     20996057 |     44418435 |     44418435 |     44418435 |     44418435 |     92489320 |     92489320 |     92489320 |     92489320 |    194960417 |    194960417 |    194960417 |    194960417 |    416910489 |    416910489 |    416910489 |    416910489 |    862082833 |    862082833 |    862082833 |    862082833 |
sim_num_refs                                123936 |       123936 |       123936 |       123936 |       258619 |       258619 |       258619 |       258619 |       555633 |       555633 |       555633 |       555633 |      1185917 |      1185917 |      1185917 |      1185917 |      2539905 |      2539905 |      2539905 |      2539905 |      5293932 |      5293932 |      5293932 |      5293932 |     11138910 |     11138910 |     11138910 |     11138910 |     23248770 |     23248770 |     23248770 |     23248770 |     48756021 |     48756021 |     48756021 |     48756021 |    103087827 |    103087827 |    103087827 |    103087827 |    213817693 |    213817693 |    213817693 |    213817693 |
sim_elapsed_time                                 1 |            1 |            7 |            4 |            1 |            1 |           10 |            5 |            1 |            1 |           15 |            8 |            1 |            2 |           26 |           13 |            2 |            3 |           48 |           24 |            5 |            5 |           88 |           45 |           12 |           11 |          162 |           76 |           25 |           24 |          280 |          109 |           51 |           51 |          390 |          137 |          110 |          109 |          453 |          200 |          226 |          225 |          577 |          326 |
sim_inst_rate                          461193.0000 |  461193.0000 |   65884.7143 |  115298.2500 |  976424.0000 |  976424.0000 |   97642.4000 |  195284.8000 | 2138942.0000 | 2138942.0000 |  142596.1333 |  267367.7500 | 4643359.0000 | 2321679.5000 |  178590.7308 |  357181.4615 | 5053369.5000 | 3368913.0000 |  210557.0625 |  421114.1250 | 4199211.4000 | 4199211.4000 |  238591.5568 |  466579.0444 | 3701536.2500 | 4038039.5455 |  274187.8704 |  584453.0921 | 3699572.8000 | 3853721.6667 |  330319.0000 |  848525.8716 | 3822753.2745 | 3822753.2745 |  499898.5051 | 1423068.7372 | 3790095.3545 | 3824866.8716 |  920332.2053 | 2084552.4450 | 3814525.8097 | 3831479.2578 | 1494077.7002 | 2644425.8681 |
il1.accesses                                461193 |       461193 |       461193 |       461193 |       976424 |       976424 |       976424 |       976424 |      2138942 |      2138942 |      2138942 |      2138942 |      4643359 |      4643359 |      4643359 |      4643359 |     10106739 |     10106739 |     10106739 |     10106739 |     20996057 |     20996057 |     20996057 |     20996057 |     44418435 |     44418435 |     44418435 |     44418435 |     92489320 |     92489320 |     92489320 |     92489320 |    194960417 |    194960417 |    194960417 |    194960417 |    416910489 |    416910489 |    416910489 |    416910489 |    862082833 |    862082833 |    862082833 |    862082833 |
il1.hits                                    460745 |       460745 |       460776 |       460776 |       975974 |       975974 |       976005 |       976005 |      2138480 |      2138480 |      2138520 |      2138520 |      4642908 |      4642908 |      4642939 |      4642939 |     10106288 |     10106288 |     10106319 |     10106319 |     20995607 |     20995607 |     20995638 |     20995638 |     44417985 |     44417985 |     44418016 |     44418016 |     92488870 |     92488870 |     92488901 |     92488901 |    194959967 |    194959967 |    194959998 |    194959998 |    416910039 |    416910039 |    416910070 |    416910070 |    862082383 |    862082383 |    862082414 |    862082414 |
il1.misses                                     448 |          448 |          417 |          417 |          450 |          450 |          419 |          419 |          462 |          462 |          422 |          422 |          451 |          451 |          420 |          420 |          451 |          451 |          420 |          420 |          450 |          450 |          419 |          419 |          450 |          450 |          419 |          419 |          450 |          450 |          419 |          419 |          450 |          450 |          419 |          419 |          450 |          450 |          419 |          419 |          450 |          450 |          419 |          419 |
il1.replacements                               210 |          210 |          161 |          161 |          212 |          212 |          163 |          163 |          225 |          225 |          166 |          166 |          213 |          213 |          164 |          164 |          213 |          213 |          164 |          164 |          213 |          213 |          163 |          163 |          213 |          213 |          163 |          163 |          213 |          213 |          163 |          163 |          213 |          213 |          163 |          163 |          213 |          213 |          163 |          163 |          213 |          213 |          163 |          163 |
il1.writebacks                                   0 |            0 |            0 |            0 |            0 |            0 |            0 |            0 |            0 |            0 |            0 |            0 |            0 |            0 |            0 |            0 |            0 |            0 |            0 |            0 |            0 |            0 |            0 |            0 |            0 |            0 |            0 |            0 |            0 |            0 |            0 |            0 |            0 |            0 |            0 |            0 |            0 |            0 |            0 |            0 |            0 |            0 |            0 |            0 |
il1.invalidations                                0 |            0 |            0 |            0 |            0 |            0 |            0 |            0 |            0 |            0 |            0 |            0 |            0 |            0 |            0 |            0 |            0 |            0 |            0 |            0 |            0 |            0 |            0 |            0 |            0 |            0 |            0 |            0 |            0 |            0 |            0 |            0 |            0 |            0 |            0 |            0 |            0 |            0 |            0 |            0 |            0 |            0 |            0 |            0 |
il1.miss_rate                               0.0010 |       0.0010 |       0.0009 |       0.0009 |       0.0005 |       0.0005 |       0.0004 |       0.0004 |       0.0002 |       0.0002 |       0.0002 |       0.0002 |       0.0001 |       0.0001 |       0.0001 |       0.0001 |       0.0000 |       0.0000 |       0.0000 |       0.0000 |       0.0000 |       0.0000 |       0.0000 |       0.0000 |       0.0000 |       0.0000 |       0.0000 |       0.0000 |       0.0000 |       0.0000 |       0.0000 |       0.0000 |       0.0000 |       0.0000 |       0.0000 |       0.0000 |       0.0000 |       0.0000 |       0.0000 |       0.0000 |       0.0000 |       0.0000 |       0.0000 |       0.0000 |
il1.repl_rate                               0.0005 |       0.0005 |       0.0003 |       0.0003 |       0.0002 |       0.0002 |       0.0002 |       0.0002 |       0.0001 |       0.0001 |       0.0001 |       0.0001 |       0.0000 |       0.0000 |       0.0000 |       0.0000 |       0.0000 |       0.0000 |       0.0000 |       0.0000 |       0.0000 |       0.0000 |       0.0000 |       0.0000 |       0.0000 |       0.0000 |       0.0000 |       0.0000 |       0.0000 |       0.0000 |       0.0000 |       0.0000 |       0.0000 |       0.0000 |       0.0000 |       0.0000 |       0.0000 |       0.0000 |       0.0000 |       0.0000 |       0.0000 |       0.0000 |       0.0000 |       0.0000 |
il1.wb_rate                                 0.0000 |       0.0000 |       0.0000 |       0.0000 |       0.0000 |       0.0000 |       0.0000 |       0.0000 |       0.0000 |       0.0000 |       0.0000 |       0.0000 |       0.0000 |       0.0000 |       0.0000 |       0.0000 |       0.0000 |       0.0000 |       0.0000 |       0.0000 |       0.0000 |       0.0000 |       0.0000 |       0.0000 |       0.0000 |       0.0000 |       0.0000 |       0.0000 |       0.0000 |       0.0000 |       0.0000 |       0.0000 |       0.0000 |       0.0000 |       0.0000 |       0.0000 |       0.0000 |       0.0000 |       0.0000 |       0.0000 |       0.0000 |       0.0000 |       0.0000 |       0.0000 |
il1.inv_rate                                0.0000 |       0.0000 |       0.0000 |       0.0000 |       0.0000 |       0.0000 |       0.0000 |       0.0000 |       0.0000 |       0.0000 |       0.0000 |       0.0000 |       0.0000 |       0.0000 |       0.0000 |       0.0000 |       0.0000 |       0.0000 |       0.0000 |       0.0000 |       0.0000 |       0.0000 |       0.0000 |       0.0000 |       0.0000 |       0.0000 |       0.0000 |       0.0000 |       0.0000 |       0.0000 |       0.0000 |       0.0000 |       0.0000 |       0.0000 |       0.0000 |       0.0000 |       0.0000 |       0.0000 |       0.0000 |       0.0000 |       0.0000 |       0.0000 |       0.0000 |       0.0000 |
dl1.accesses                                140402 |       140402 |       140402 |       140402 |       291469 |       291469 |       291469 |       291469 |       621251 |       621251 |       621251 |       621251 |      1317071 |      1317071 |      1317071 |      1317071 |      2802131 |      2802131 |      2802131 |      2802131 |      5818302 |      5818302 |      5818302 |      5818302 |     12187568 |     12187568 |     12187568 |     12187568 |     25346004 |     25346004 |     25346004 |     25346004 |     52950407 |     52950407 |     52950407 |     52950407 |    111476517 |    111476517 |    111476517 |    111476517 |    230594991 |    230594991 |    230594991 |    230594991 |
dl1.hits                                    137847 |       137847 |       137768 |       137768 |       285717 |       285717 |       285740 |       285740 |       607829 |       607829 |       607665 |       607665 |      1283705 |      1283705 |      1283584 |      1283584 |      2720917 |      2720917 |      2720683 |      2720683 |      5646311 |      5646311 |      5646351 |      5646351 |     11804028 |     11804028 |     11804892 |     11804892 |     24525297 |     24525297 |     24530429 |     24530429 |     51145422 |     51145422 |     51159984 |     51159984 |    107378483 |    107378483 |    107416917 |    107416917 |    222004277 |    222004277 |    222100099 |    222100099 |
dl1.misses                                    2555 |         2555 |         2634 |         2634 |         5752 |         5752 |         5729 |         5729 |        13422 |        13422 |        13586 |        13586 |        33366 |        33366 |        33487 |        33487 |        81214 |        81214 |        81448 |        81448 |       171991 |       171991 |       171951 |       171951 |       383540 |       383540 |       382676 |       382676 |       820707 |       820707 |       815575 |       815575 |      1804985 |      1804985 |      1790423 |      1790423 |      4098034 |      4098034 |      4059600 |      4059600 |      8590714 |      8590714 |      8494892 |      8494892 |
dl1.replacements                              2299 |         2299 |         2378 |         2378 |         5496 |         5496 |         5473 |         5473 |        13166 |        13166 |        13330 |        13330 |        33110 |        33110 |        33231 |        33231 |        80958 |        80958 |        81192 |        81192 |       171735 |       171735 |       171695 |       171695 |       383284 |       383284 |       382420 |       382420 |       820451 |       820451 |       815319 |       815319 |      1804729 |      1804729 |      1790167 |      1790167 |      4097778 |      4097778 |      4059344 |      4059344 |      8590458 |      8590458 |      8494636 |      8494636 |
dl1.writebacks                                2248 |         2248 |         2334 |         2334 |         5374 |         5374 |         5418 |         5418 |        12783 |        12783 |        13036 |        13036 |        30622 |        30622 |        30932 |        30932 |        71546 |        71546 |        72273 |        72273 |       158985 |       158985 |       160228 |       160228 |       353569 |       353569 |       355665 |       355665 |       766018 |       766018 |       768320 |       768320 |      1685119 |      1685119 |      1687479 |      1687479 |      3707316 |      3707316 |      3708345 |      3708345 |      7839869 |      7839869 |      7831279 |      7831279 |
dl1.invalidations                                0 |            0 |            0 |            0 |            0 |            0 |            0 |            0 |            0 |            0 |            0 |            0 |            0 |            0 |            0 |            0 |            0 |            0 |            0 |            0 |            0 |            0 |            0 |            0 |            0 |            0 |            0 |            0 |            0 |            0 |            0 |            0 |            0 |            0 |            0 |            0 |            0 |            0 |            0 |            0 |            0 |            0 |            0 |            0 |
dl1.miss_rate                               0.0182 |       0.0182 |       0.0188 |       0.0188 |       0.0197 |       0.0197 |       0.0197 |       0.0197 |       0.0216 |       0.0216 |       0.0219 |       0.0219 |       0.0253 |       0.0253 |       0.0254 |       0.0254 |       0.0290 |       0.0290 |       0.0291 |       0.0291 |       0.0296 |       0.0296 |       0.0296 |       0.0296 |       0.0315 |       0.0315 |       0.0314 |       0.0314 |       0.0324 |       0.0324 |       0.0322 |       0.0322 |       0.0341 |       0.0341 |       0.0338 |       0.0338 |       0.0368 |       0.0368 |       0.0364 |       0.0364 |       0.0373 |       0.0373 |       0.0368 |       0.0368 |
dl1.repl_rate                               0.0164 |       0.0164 |       0.0169 |       0.0169 |       0.0189 |       0.0189 |       0.0188 |       0.0188 |       0.0212 |       0.0212 |       0.0215 |       0.0215 |       0.0251 |       0.0251 |       0.0252 |       0.0252 |       0.0289 |       0.0289 |       0.0290 |       0.0290 |       0.0295 |       0.0295 |       0.0295 |       0.0295 |       0.0314 |       0.0314 |       0.0314 |       0.0314 |       0.0324 |       0.0324 |       0.0322 |       0.0322 |       0.0341 |       0.0341 |       0.0338 |       0.0338 |       0.0368 |       0.0368 |       0.0364 |       0.0364 |       0.0373 |       0.0373 |       0.0368 |       0.0368 |
dl1.wb_rate                                 0.0160 |       0.0160 |       0.0166 |       0.0166 |       0.0184 |       0.0184 |       0.0186 |       0.0186 |       0.0206 |       0.0206 |       0.0210 |       0.0210 |       0.0233 |       0.0233 |       0.0235 |       0.0235 |       0.0255 |       0.0255 |       0.0258 |       0.0258 |       0.0273 |       0.0273 |       0.0275 |       0.0275 |       0.0290 |       0.0290 |       0.0292 |       0.0292 |       0.0302 |       0.0302 |       0.0303 |       0.0303 |       0.0318 |       0.0318 |       0.0319 |       0.0319 |       0.0333 |       0.0333 |       0.0333 |       0.0333 |       0.0340 |       0.0340 |       0.0340 |       0.0340 |
dl1.inv_rate                                0.0000 |       0.0000 |       0.0000 |       0.0000 |       0.0000 |       0.0000 |       0.0000 |       0.0000 |       0.0000 |       0.0000 |       0.0000 |       0.0000 |       0.0000 |       0.0000 |       0.0000 |       0.0000 |       0.0000 |       0.0000 |       0.0000 |       0.0000 |       0.0000 |       0.0000 |       0.0000 |       0.0000 |       0.0000 |       0.0000 |       0.0000 |       0.0000 |       0.0000 |       0.0000 |       0.0000 |       0.0000 |       0.0000 |       0.0000 |       0.0000 |       0.0000 |       0.0000 |       0.0000 |       0.0000 |       0.0000 |       0.0000 |       0.0000 |       0.0000 |       0.0000 |
dl2.accesses                                  5251 |         5251 |         5385 |         5385 |        11576 |        11576 |        11566 |        11566 |        26667 |        26667 |        27044 |        27044 |        64439 |        64439 |        64839 |        64839 |       153211 |       153211 |       154141 |       154141 |       331426 |       331426 |       332598 |       332598 |       737559 |       737559 |       738760 |       738760 |      1587175 |      1587175 |      1584314 |      1584314 |      3490554 |      3490554 |      3478321 |      3478321 |      7805800 |      7805800 |      7768364 |      7768364 |     16431033 |     16431033 |     16326590 |     16326590 |
dl2.hits                                      3889 |         3889 |         4033 |         4033 |         9700 |         9700 |         9700 |         9700 |        23768 |        23768 |        24160 |        24160 |        59498 |        59498 |        59908 |        59908 |       144174 |       144174 |       145114 |       145114 |       314197 |       314197 |       315379 |       315379 |       703946 |       703946 |       705157 |       705157 |      1520794 |      1520052 |      1517943 |      1478871 |      3357883 |      2990837 |      3229145 |      2924206 |      6698765 |      6266174 |      6501481 |      6154795 |     13880451 |     13198149 |     13505391 |     12921222 |
dl2.misses                                    1362 |         1362 |         1352 |         1352 |         1876 |         1876 |         1866 |         1866 |         2899 |         2899 |         2884 |         2884 |         4941 |         4941 |         4931 |         4931 |         9037 |         9037 |         9027 |         9027 |        17229 |        17229 |        17219 |        17219 |        33613 |        33613 |        33603 |        33603 |        66381 |        67123 |        66371 |       105443 |       132671 |       499717 |       249176 |       554115 |      1107035 |      1539626 |      1266883 |      1613569 |      2550582 |      3232884 |      2821199 |      3405368 |
dl2.replacements                               144 |          144 |            0 |            0 |          144 |          144 |            0 |            0 |          150 |          150 |            0 |            0 |          144 |          144 |            0 |            0 |          144 |          144 |            0 |            0 |          144 |          144 |            0 |            0 |          144 |          144 |            0 |            0 |          144 |         1587 |            0 |        39907 |         1599 |       434181 |       118104 |       488579 |       975963 |      1474090 |      1135811 |      1548033 |      2419510 |      3167348 |      2690127 |      3339832 |
dl2.writebacks                                  88 |           88 |            0 |            0 |           88 |           88 |            0 |            0 |           89 |           89 |            0 |            0 |           88 |           88 |            0 |            0 |           88 |           88 |            0 |            0 |           88 |           88 |            0 |            0 |           88 |           88 |            0 |            0 |           88 |         1279 |            0 |        39617 |         1288 |       426413 |       117814 |       475286 |       906630 |      1331737 |      1020849 |      1397886 |      2366330 |      2992168 |      2552796 |      3157763 |
dl2.invalidations                                0 |            0 |            0 |            0 |            0 |            0 |            0 |            0 |            0 |            0 |            0 |            0 |            0 |            0 |            0 |            0 |            0 |            0 |            0 |            0 |            0 |            0 |            0 |            0 |            0 |            0 |            0 |            0 |            0 |            0 |            0 |            0 |            0 |            0 |            0 |            0 |            0 |            0 |            0 |            0 |            0 |            0 |            0 |            0 |
dl2.miss_rate                               0.2594 |       0.2594 |       0.2511 |       0.2511 |       0.1621 |       0.1621 |       0.1613 |       0.1613 |       0.1087 |       0.1087 |       0.1066 |       0.1066 |       0.0767 |       0.0767 |       0.0760 |       0.0760 |       0.0590 |       0.0590 |       0.0586 |       0.0586 |       0.0520 |       0.0520 |       0.0518 |       0.0518 |       0.0456 |       0.0456 |       0.0455 |       0.0455 |       0.0418 |       0.0423 |       0.0419 |       0.0666 |       0.0380 |       0.1432 |       0.0716 |       0.1593 |       0.1418 |       0.1972 |       0.1631 |       0.2077 |       0.1552 |       0.1968 |       0.1728 |       0.2086 |
dl2.repl_rate                               0.0274 |       0.0274 |       0.0000 |       0.0000 |       0.0124 |       0.0124 |       0.0000 |       0.0000 |       0.0056 |       0.0056 |       0.0000 |       0.0000 |       0.0022 |       0.0022 |       0.0000 |       0.0000 |       0.0009 |       0.0009 |       0.0000 |       0.0000 |       0.0004 |       0.0004 |       0.0000 |       0.0000 |       0.0002 |       0.0002 |       0.0000 |       0.0000 |       0.0001 |       0.0010 |       0.0000 |       0.0252 |       0.0005 |       0.1244 |       0.0340 |       0.1405 |       0.1250 |       0.1888 |       0.1462 |       0.1993 |       0.1473 |       0.1928 |       0.1648 |       0.2046 |
dl2.wb_rate                                 0.0168 |       0.0168 |       0.0000 |       0.0000 |       0.0076 |       0.0076 |       0.0000 |       0.0000 |       0.0033 |       0.0033 |       0.0000 |       0.0000 |       0.0014 |       0.0014 |       0.0000 |       0.0000 |       0.0006 |       0.0006 |       0.0000 |       0.0000 |       0.0003 |       0.0003 |       0.0000 |       0.0000 |       0.0001 |       0.0001 |       0.0000 |       0.0000 |       0.0001 |       0.0008 |       0.0000 |       0.0250 |       0.0004 |       0.1222 |       0.0339 |       0.1366 |       0.1161 |       0.1706 |       0.1314 |       0.1799 |       0.1440 |       0.1821 |       0.1564 |       0.1934 |
dl2.inv_rate                                0.0000 |       0.0000 |       0.0000 |       0.0000 |       0.0000 |       0.0000 |       0.0000 |       0.0000 |       0.0000 |       0.0000 |       0.0000 |       0.0000 |       0.0000 |       0.0000 |       0.0000 |       0.0000 |       0.0000 |       0.0000 |       0.0000 |       0.0000 |       0.0000 |       0.0000 |       0.0000 |       0.0000 |       0.0000 |       0.0000 |       0.0000 |       0.0000 |       0.0000 |       0.0000 |       0.0000 |       0.0000 |       0.0000 |       0.0000 |       0.0000 |       0.0000 |       0.0000 |       0.0000 |       0.0000 |       0.0000 |       0.0000 |       0.0000 |       0.0000 |       0.0000 |
itlb.accesses                               461193 |       461193 |       461193 |       461193 |       976424 |       976424 |       976424 |       976424 |      2138942 |      2138942 |      2138942 |      2138942 |      4643359 |      4643359 |      4643359 |      4643359 |     10106739 |     10106739 |     10106739 |     10106739 |     20996057 |     20996057 |     20996057 |     20996057 |     44418435 |     44418435 |     44418435 |     44418435 |     92489320 |     92489320 |     92489320 |     92489320 |    194960417 |    194960417 |    194960417 |    194960417 |    416910489 |    416910489 |    416910489 |    416910489 |    862082833 |    862082833 |    862082833 |    862082833 |
itlb.hits                                   461183 |       461183 |       461183 |       461183 |       976414 |       976414 |       976414 |       976414 |      2138932 |      2138932 |      2138932 |      2138932 |      4643349 |      4643349 |      4643349 |      4643349 |     10106729 |     10106729 |     10106729 |     10106729 |     20996047 |     20996047 |     20996047 |     20996047 |     44418425 |     44418425 |     44418425 |     44418425 |     92489310 |     92489310 |     92489310 |     92489310 |    194960407 |    194960407 |    194960407 |    194960407 |    416910479 |    416910479 |    416910479 |    416910479 |    862082823 |    862082823 |    862082823 |    862082823 |
itlb.misses                                     10 |           10 |           10 |           10 |           10 |           10 |           10 |           10 |           10 |           10 |           10 |           10 |           10 |           10 |           10 |           10 |           10 |           10 |           10 |           10 |           10 |           10 |           10 |           10 |           10 |           10 |           10 |           10 |           10 |           10 |           10 |           10 |           10 |           10 |           10 |           10 |           10 |           10 |           10 |           10 |           10 |           10 |           10 |           10 |
itlb.replacements                                0 |            0 |            0 |            0 |            0 |            0 |            0 |            0 |            0 |            0 |            0 |            0 |            0 |            0 |            0 |            0 |            0 |            0 |            0 |            0 |            0 |            0 |            0 |            0 |            0 |            0 |            0 |            0 |            0 |            0 |            0 |            0 |            0 |            0 |            0 |            0 |            0 |            0 |            0 |            0 |            0 |            0 |            0 |            0 |
itlb.writebacks                                  0 |            0 |            0 |            0 |            0 |            0 |            0 |            0 |            0 |            0 |            0 |            0 |            0 |            0 |            0 |            0 |            0 |            0 |            0 |            0 |            0 |            0 |            0 |            0 |            0 |            0 |            0 |            0 |            0 |            0 |            0 |            0 |            0 |            0 |            0 |            0 |            0 |            0 |            0 |            0 |            0 |            0 |            0 |            0 |
itlb.invalidations                               0 |            0 |            0 |            0 |            0 |            0 |            0 |            0 |            0 |            0 |            0 |            0 |            0 |            0 |            0 |            0 |            0 |            0 |            0 |            0 |            0 |            0 |            0 |            0 |            0 |            0 |            0 |            0 |            0 |            0 |            0 |            0 |            0 |            0 |            0 |            0 |            0 |            0 |            0 |            0 |            0 |            0 |            0 |            0 |
itlb.miss_rate                              0.0000 |       0.0000 |       0.0000 |       0.0000 |       0.0000 |       0.0000 |       0.0000 |       0.0000 |       0.0000 |       0.0000 |       0.0000 |       0.0000 |       0.0000 |       0.0000 |       0.0000 |       0.0000 |       0.0000 |       0.0000 |       0.0000 |       0.0000 |       0.0000 |       0.0000 |       0.0000 |       0.0000 |       0.0000 |       0.0000 |       0.0000 |       0.0000 |       0.0000 |       0.0000 |       0.0000 |       0.0000 |       0.0000 |       0.0000 |       0.0000 |       0.0000 |       0.0000 |       0.0000 |       0.0000 |       0.0000 |       0.0000 |       0.0000 |       0.0000 |       0.0000 |
itlb.repl_rate                              0.0000 |       0.0000 |       0.0000 |       0.0000 |       0.0000 |       0.0000 |       0.0000 |       0.0000 |       0.0000 |       0.0000 |       0.0000 |       0.0000 |       0.0000 |       0.0000 |       0.0000 |       0.0000 |       0.0000 |       0.0000 |       0.0000 |       0.0000 |       0.0000 |       0.0000 |       0.0000 |       0.0000 |       0.0000 |       0.0000 |       0.0000 |       0.0000 |       0.0000 |       0.0000 |       0.0000 |       0.0000 |       0.0000 |       0.0000 |       0.0000 |       0.0000 |       0.0000 |       0.0000 |       0.0000 |       0.0000 |       0.0000 |       0.0000 |       0.0000 |       0.0000 |
itlb.wb_rate                                0.0000 |       0.0000 |       0.0000 |       0.0000 |       0.0000 |       0.0000 |       0.0000 |       0.0000 |       0.0000 |       0.0000 |       0.0000 |       0.0000 |       0.0000 |       0.0000 |       0.0000 |       0.0000 |       0.0000 |       0.0000 |       0.0000 |       0.0000 |       0.0000 |       0.0000 |       0.0000 |       0.0000 |       0.0000 |       0.0000 |       0.0000 |       0.0000 |       0.0000 |       0.0000 |       0.0000 |       0.0000 |       0.0000 |       0.0000 |       0.0000 |       0.0000 |       0.0000 |       0.0000 |       0.0000 |       0.0000 |       0.0000 |       0.0000 |       0.0000 |       0.0000 |
itlb.inv_rate                               0.0000 |       0.0000 |       0.0000 |       0.0000 |       0.0000 |       0.0000 |       0.0000 |       0.0000 |       0.0000 |       0.0000 |       0.0000 |       0.0000 |       0.0000 |       0.0000 |       0.0000 |       0.0000 |       0.0000 |       0.0000 |       0.0000 |       0.0000 |       0.0000 |       0.0000 |       0.0000 |       0.0000 |       0.0000 |       0.0000 |       0.0000 |       0.0000 |       0.0000 |       0.0000 |       0.0000 |       0.0000 |       0.0000 |       0.0000 |       0.0000 |       0.0000 |       0.0000 |       0.0000 |       0.0000 |       0.0000 |       0.0000 |       0.0000 |       0.0000 |       0.0000 |
dtlb.accesses                               140402 |       140402 |       140402 |       140402 |       291469 |       291469 |       291469 |       291469 |       621251 |       621251 |       621251 |       621251 |      1317071 |      1317071 |      1317071 |      1317071 |      2802131 |      2802131 |      2802131 |      2802131 |      5818302 |      5818302 |      5818302 |      5818302 |     12187568 |     12187568 |     12187568 |     12187568 |     25346004 |     25346004 |     25346004 |     25346004 |     52950407 |     52950407 |     52950407 |     52950407 |    111476517 |    111476517 |    111476517 |    111476517 |    230594991 |    230594991 |    230594991 |    230594991 |
dtlb.hits                                   140390 |       140390 |       140390 |       140390 |       291453 |       291453 |       291453 |       291453 |       621227 |       621227 |       621227 |       621227 |      1317031 |      1317031 |      1317031 |      1317031 |      2802059 |      2802059 |      2802059 |      2802059 |      5818132 |      5818132 |      5818132 |      5818132 |     12186489 |     12186489 |     12186489 |     12186489 |     25343347 |     25343347 |     25343347 |     25343347 |     52943718 |     52943718 |     52943718 |     52943718 |    111459376 |    111459376 |    111459376 |    111459376 |    230558152 |    230558152 |    230558152 |    230558152 |
dtlb.misses                                     12 |           12 |           12 |           12 |           16 |           16 |           16 |           16 |           24 |           24 |           24 |           24 |           40 |           40 |           40 |           40 |           72 |           72 |           72 |           72 |          170 |          170 |          170 |          170 |         1079 |         1079 |         1079 |         1079 |         2657 |         2657 |         2657 |         2657 |         6689 |         6689 |         6689 |         6689 |        17141 |        17141 |        17141 |        17141 |        36839 |        36839 |        36839 |        36839 |
dtlb.replacements                                0 |            0 |            0 |            0 |            0 |            0 |            0 |            0 |            0 |            0 |            0 |            0 |            0 |            0 |            0 |            0 |            0 |            0 |            0 |            0 |           42 |           42 |           42 |           42 |          951 |          951 |          951 |          951 |         2529 |         2529 |         2529 |         2529 |         6561 |         6561 |         6561 |         6561 |        17013 |        17013 |        17013 |        17013 |        36711 |        36711 |        36711 |        36711 |
dtlb.writebacks                                  0 |            0 |            0 |            0 |            0 |            0 |            0 |            0 |            0 |            0 |            0 |            0 |            0 |            0 |            0 |            0 |            0 |            0 |            0 |            0 |           40 |           40 |           40 |           40 |          949 |          949 |          949 |          949 |         2527 |         2527 |         2527 |         2527 |         6559 |         6559 |         6559 |         6559 |        17011 |        17011 |        17011 |        17011 |        36709 |        36709 |        36709 |        36709 |
dtlb.invalidations                               0 |            0 |            0 |            0 |            0 |            0 |            0 |            0 |            0 |            0 |            0 |            0 |            0 |            0 |            0 |            0 |            0 |            0 |            0 |            0 |            0 |            0 |            0 |            0 |            0 |            0 |            0 |            0 |            0 |            0 |            0 |            0 |            0 |            0 |            0 |            0 |            0 |            0 |            0 |            0 |            0 |            0 |            0 |            0 |
dtlb.miss_rate                              0.0001 |       0.0001 |       0.0001 |       0.0001 |       0.0001 |       0.0001 |       0.0001 |       0.0001 |       0.0000 |       0.0000 |       0.0000 |       0.0000 |       0.0000 |       0.0000 |       0.0000 |       0.0000 |       0.0000 |       0.0000 |       0.0000 |       0.0000 |       0.0000 |       0.0000 |       0.0000 |       0.0000 |       0.0001 |       0.0001 |       0.0001 |       0.0001 |       0.0001 |       0.0001 |       0.0001 |       0.0001 |       0.0001 |       0.0001 |       0.0001 |       0.0001 |       0.0002 |       0.0002 |       0.0002 |       0.0002 |       0.0002 |       0.0002 |       0.0002 |       0.0002 |
dtlb.repl_rate                              0.0000 |       0.0000 |       0.0000 |       0.0000 |       0.0000 |       0.0000 |       0.0000 |       0.0000 |       0.0000 |       0.0000 |       0.0000 |       0.0000 |       0.0000 |       0.0000 |       0.0000 |       0.0000 |       0.0000 |       0.0000 |       0.0000 |       0.0000 |       0.0000 |       0.0000 |       0.0000 |       0.0000 |       0.0001 |       0.0001 |       0.0001 |       0.0001 |       0.0001 |       0.0001 |       0.0001 |       0.0001 |       0.0001 |       0.0001 |       0.0001 |       0.0001 |       0.0002 |       0.0002 |       0.0002 |       0.0002 |       0.0002 |       0.0002 |       0.0002 |       0.0002 |
dtlb.wb_rate                                0.0000 |       0.0000 |       0.0000 |       0.0000 |       0.0000 |       0.0000 |       0.0000 |       0.0000 |       0.0000 |       0.0000 |       0.0000 |       0.0000 |       0.0000 |       0.0000 |       0.0000 |       0.0000 |       0.0000 |       0.0000 |       0.0000 |       0.0000 |       0.0000 |       0.0000 |       0.0000 |       0.0000 |       0.0001 |       0.0001 |       0.0001 |       0.0001 |       0.0001 |       0.0001 |       0.0001 |       0.0001 |       0.0001 |       0.0001 |       0.0001 |       0.0001 |       0.0002 |       0.0002 |       0.0002 |       0.0002 |       0.0002 |       0.0002 |       0.0002 |       0.0002 |
dtlb.inv_rate                               0.0000 |       0.0000 |       0.0000 |       0.0000 |       0.0000 |       0.0000 |       0.0000 |       0.0000 |       0.0000 |       0.0000 |       0.0000 |       0.0000 |       0.0000 |       0.0000 |       0.0000 |       0.0000 |       0.0000 |       0.0000 |       0.0000 |       0.0000 |       0.0000 |       0.0000 |       0.0000 |       0.0000 |       0.0000 |       0.0000 |       0.0000 |       0.0000 |       0.0000 |       0.0000 |       0.0000 |       0.0000 |       0.0000 |       0.0000 |       0.0000 |       0.0000 |       0.0000 |       0.0000 |       0.0000 |       0.0000 |       0.0000 |       0.0000 |       0.0000 |       0.0000 |
ld_text_base                            0x00400000 |   0x00400000 |   0x00400000 |   0x00400000 |   0x00400000 |   0x00400000 |   0x00400000 |   0x00400000 |   0x00400000 |   0x00400000 |   0x00400000 |   0x00400000 |   0x00400000 |   0x00400000 |   0x00400000 |   0x00400000 |   0x00400000 |   0x00400000 |   0x00400000 |   0x00400000 |   0x00400000 |   0x00400000 |   0x00400000 |   0x00400000 |   0x00400000 |   0x00400000 |   0x00400000 |   0x00400000 |   0x00400000 |   0x00400000 |   0x00400000 |   0x00400000 |   0x00400000 |   0x00400000 |   0x00400000 |   0x00400000 |   0x00400000 |   0x00400000 |   0x00400000 |   0x00400000 |   0x00400000 |   0x00400000 |   0x00400000 |   0x00400000 |
ld_text_size                                 73456 |        73456 |        73456 |        73456 |        73488 |        73488 |        73488 |        73488 |        73504 |        73504 |        73504 |        73504 |        73520 |        73520 |        73520 |        73520 |        73520 |        73520 |        73520 |        73520 |        73520 |        73520 |        73520 |        73520 |        73520 |        73520 |        73520 |        73520 |        73520 |        73520 |        73520 |        73520 |        73520 |        73520 |        73520 |        73520 |        73520 |        73520 |        73520 |        73520 |        73520 |        73520 |        73520 |        73520 |
ld_data_base                            0x10000000 |   0x10000000 |   0x10000000 |   0x10000000 |   0x10000000 |   0x10000000 |   0x10000000 |   0x10000000 |   0x10000000 |   0x10000000 |   0x10000000 |   0x10000000 |   0x10000000 |   0x10000000 |   0x10000000 |   0x10000000 |   0x10000000 |   0x10000000 |   0x10000000 |   0x10000000 |   0x10000000 |   0x10000000 |   0x10000000 |   0x10000000 |   0x10000000 |   0x10000000 |   0x10000000 |   0x10000000 |   0x10000000 |   0x10000000 |   0x10000000 |   0x10000000 |   0x10000000 |   0x10000000 |   0x10000000 |   0x10000000 |   0x10000000 |   0x10000000 |   0x10000000 |   0x10000000 |   0x10000000 |   0x10000000 |   0x10000000 |   0x10000000 |
ld_data_size                                  8192 |         8192 |         8192 |         8192 |         8192 |         8192 |         8192 |         8192 |         8192 |         8192 |         8192 |         8192 |         8192 |         8192 |         8192 |         8192 |         8192 |         8192 |         8192 |         8192 |         8192 |         8192 |         8192 |         8192 |         8192 |         8192 |         8192 |         8192 |         8192 |         8192 |         8192 |         8192 |         8192 |         8192 |         8192 |         8192 |         8192 |         8192 |         8192 |         8192 |         8192 |         8192 |         8192 |         8192 |
ld_stack_base                           0x7fffc000 |   0x7fffc000 |   0x7fffc000 |   0x7fffc000 |   0x7fffc000 |   0x7fffc000 |   0x7fffc000 |   0x7fffc000 |   0x7fffc000 |   0x7fffc000 |   0x7fffc000 |   0x7fffc000 |   0x7fffc000 |   0x7fffc000 |   0x7fffc000 |   0x7fffc000 |   0x7fffc000 |   0x7fffc000 |   0x7fffc000 |   0x7fffc000 |   0x7fffc000 |   0x7fffc000 |   0x7fffc000 |   0x7fffc000 |   0x7fffc000 |   0x7fffc000 |   0x7fffc000 |   0x7fffc000 |   0x7fffc000 |   0x7fffc000 |   0x7fffc000 |   0x7fffc000 |   0x7fffc000 |   0x7fffc000 |   0x7fffc000 |   0x7fffc000 |   0x7fffc000 |   0x7fffc000 |   0x7fffc000 |   0x7fffc000 |   0x7fffc000 |   0x7fffc000 |   0x7fffc000 |   0x7fffc000 |
ld_stack_size                                16384 |        16384 |        16384 |        16384 |        16384 |        16384 |        16384 |        16384 |        16384 |        16384 |        16384 |        16384 |        16384 |        16384 |        16384 |        16384 |        16384 |        16384 |        16384 |        16384 |        16384 |        16384 |        16384 |        16384 |        16384 |        16384 |        16384 |        16384 |        16384 |        16384 |        16384 |        16384 |        16384 |        16384 |        16384 |        16384 |        16384 |        16384 |        16384 |        16384 |        16384 |        16384 |        16384 |        16384 |
ld_prog_entry                           0x00400140 |   0x00400140 |   0x00400140 |   0x00400140 |   0x00400140 |   0x00400140 |   0x00400140 |   0x00400140 |   0x00400140 |   0x00400140 |   0x00400140 |   0x00400140 |   0x00400140 |   0x00400140 |   0x00400140 |   0x00400140 |   0x00400140 |   0x00400140 |   0x00400140 |   0x00400140 |   0x00400140 |   0x00400140 |   0x00400140 |   0x00400140 |   0x00400140 |   0x00400140 |   0x00400140 |   0x00400140 |   0x00400140 |   0x00400140 |   0x00400140 |   0x00400140 |   0x00400140 |   0x00400140 |   0x00400140 |   0x00400140 |   0x00400140 |   0x00400140 |   0x00400140 |   0x00400140 |   0x00400140 |   0x00400140 |   0x00400140 |   0x00400140 |
ld_environ_base                         0x7fff8000 |   0x7fff8000 |   0x7fff8000 |   0x7fff8000 |   0x7fff8000 |   0x7fff8000 |   0x7fff8000 |   0x7fff8000 |   0x7fff8000 |   0x7fff8000 |   0x7fff8000 |   0x7fff8000 |   0x7fff8000 |   0x7fff8000 |   0x7fff8000 |   0x7fff8000 |   0x7fff8000 |   0x7fff8000 |   0x7fff8000 |   0x7fff8000 |   0x7fff8000 |   0x7fff8000 |   0x7fff8000 |   0x7fff8000 |   0x7fff8000 |   0x7fff8000 |   0x7fff8000 |   0x7fff8000 |   0x7fff8000 |   0x7fff8000 |   0x7fff8000 |   0x7fff8000 |   0x7fff8000 |   0x7fff8000 |   0x7fff8000 |   0x7fff8000 |   0x7fff8000 |   0x7fff8000 |   0x7fff8000 |   0x7fff8000 |   0x7fff8000 |   0x7fff8000 |   0x7fff8000 |   0x7fff8000 |
ld_target_big_endian                             0 |            0 |            0 |            0 |            0 |            0 |            0 |            0 |            0 |            0 |            0 |            0 |            0 |            0 |            0 |            0 |            0 |            0 |            0 |            0 |            0 |            0 |            0 |            0 |            0 |            0 |            0 |            0 |            0 |            0 |            0 |            0 |            0 |            0 |            0 |            0 |            0 |            0 |            0 |            0 |            0 |            0 |            0 |            0 |
mem.page_count                                  30 |           30 |           30 |           30 |           34 |           34 |           34 |           34 |           42 |           42 |           42 |           42 |           58 |           58 |           58 |           58 |           90 |           90 |           90 |           90 |          154 |          154 |          154 |          154 |          282 |          282 |          282 |          282 |          538 |          538 |          538 |          538 |         1050 |         1050 |         1050 |         1050 |         2074 |         2074 |         2074 |         2074 |         4122 |         4122 |         4122 |         4122 |
mem.page_mem                                  120k |         120k |         120k |         120k |         136k |         136k |         136k |         136k |         168k |         168k |         168k |         168k |         232k |         232k |         232k |         232k |         360k |         360k |         360k |         360k |         616k |         616k |         616k |         616k |        1128k |        1128k |        1128k |        1128k |        2152k |        2152k |        2152k |        2152k |        4200k |        4200k |        4200k |        4200k |        8296k |        8296k |        8296k |        8296k |       16488k |       16488k |       16488k |       16488k |
mem.ptab_misses                                 30 |           30 |           30 |           30 |           34 |           34 |           34 |           34 |           42 |           42 |           42 |           42 |           58 |           58 |           58 |           58 |           90 |           90 |           90 |           90 |          154 |          154 |          154 |          154 |          282 |          282 |          282 |          282 |          538 |          538 |          538 |          538 |         1050 |         1050 |         1050 |         1050 |         2074 |         2074 |         2074 |         2074 |         4122 |         4122 |         4122 |         4122 |
mem.ptab_accesses                          2580922 |      2580922 |      2580922 |      2580922 |      4944172 |      4944172 |      4944172 |      4944172 |     10253904 |     10253904 |     10253904 |     10253904 |     21663308 |     21663308 |     21663308 |     21663308 |     46486948 |     46486948 |     46486948 |     46486948 |     96076562 |     96076562 |     96076562 |     96076562 |    202504606 |    202504606 |    202504606 |    202504606 |    421105018 |    421105018 |    421105018 |    421105018 |    886198212 |    886198212 |    886198212 |    886198212 |   1891050720 |   1891050720 |   1891050720 |   1891050720 |   3909977044 |   3909977044 |   3909977044 |   3909977044 |
mem.ptab_miss_rate                          0.0000 |       0.0000 |       0.0000 |       0.0000 |       0.0000 |       0.0000 |       0.0000 |       0.0000 |       0.0000 |       0.0000 |       0.0000 |       0.0000 |       0.0000 |       0.0000 |       0.0000 |       0.0000 |       0.0000 |       0.0000 |       0.0000 |       0.0000 |       0.0000 |       0.0000 |       0.0000 |       0.0000 |       0.0000 |       0.0000 |       0.0000 |       0.0000 |       0.0000 |       0.0000 |       0.0000 |       0.0000 |       0.0000 |       0.0000 |       0.0000 |       0.0000 |       0.0000 |       0.0000 |       0.0000 |       0.0000 |       0.0000 |       0.0000 |       0.0000 |       0.0000 |
-------------------------------------------------------------------------------------------------
sim-bpred                                     4096 |         4096 |         4096 |         4096 |         4096 |         4096 |         4096 |         8192 |         8192 |         8192 |         8192 |         8192 |         8192 |         8192 |        16384 |        16384 |        16384 |        16384 |        16384 |        16384 |        16384 |        32768 |        32768 |        32768 |        32768 |        32768 |        32768 |        32768 |        65536 |        65536 |        65536 |        65536 |        65536 |        65536 |        65536 |       131072 |       131072 |       131072 |       131072 |       131072 |       131072 |       131072 |       262144 |       262144 |       262144 |       262144 |       262144 |       262144 |       262144 |       524288 |       524288 |       524288 |       524288 |       524288 |       524288 |       524288 |      1048576 |      1048576 |      1048576 |      1048576 |      1048576 |      1048576 |      1048576 |      2097152 |      2097152 |      2097152 |      2097152 |      2097152 |      2097152 |      2097152 |      4194304 |      4194304 |      4194304 |      4194304 |      4194304 |      4194304 |      4194304 |
-bpred bimod -bpred:bimod 512
-bpred bimod -bpred:bimod 1024
-bpred bimod -bpred:bimod 2048
-bpred 2lev -bpred:2lev 1 512 10 1
-bpred 2lev -bpred:2lev 1 1024 10 1
-bpred 2lev -bpred:2lev 1 2048 10 1
-bpred 2lev -bpred:2lev 1 4096 10 1
-------------------------------------------------------------------------------------------------
sim_num_insn                                461193 |       461193 |       461193 |       461193 |       461193 |       461193 |       461193 |       976424 |       976424 |       976424 |       976424 |       976424 |       976424 |       976424 |      2138942 |      2138942 |      2138942 |      2138942 |      2138942 |      2138942 |      2138942 |      4643359 |      4643359 |      4643359 |      4643359 |      4643359 |      4643359 |      4643359 |     10106739 |     10106739 |     10106739 |     10106739 |     10106739 |     10106739 |     10106739 |     20996057 |     20996057 |     20996057 |     20996057 |     20996057 |     20996057 |     20996057 |     44418435 |     44418435 |     44418435 |     44418435 |     44418435 |     44418435 |     44418435 |     92489320 |     92489320 |     92489320 |     92489320 |     92489320 |     92489320 |     92489320 |    194960417 |    194960417 |    194960417 |    194960417 |    194960417 |    194960417 |    194960417 |    416910489 |    416910489 |    416910489 |    416910489 |    416910489 |    416910489 |    416910489 |    862082833 |    862082833 |    862082833 |    862082833 |    862082833 |    862082833 |    862082833 |
sim_num_refs                                123936 |       123936 |       123936 |       123936 |       123936 |       123936 |       123936 |       258619 |       258619 |       258619 |       258619 |       258619 |       258619 |       258619 |       555633 |       555633 |       555633 |       555633 |       555633 |       555633 |       555633 |      1185917 |      1185917 |      1185917 |      1185917 |      1185917 |      1185917 |      1185917 |      2539905 |      2539905 |      2539905 |      2539905 |      2539905 |      2539905 |      2539905 |      5293932 |      5293932 |      5293932 |      5293932 |      5293932 |      5293932 |      5293932 |     11138910 |     11138910 |     11138910 |     11138910 |     11138910 |     11138910 |     11138910 |     23248770 |     23248770 |     23248770 |     23248770 |     23248770 |     23248770 |     23248770 |     48756021 |     48756021 |     48756021 |     48756021 |     48756021 |     48756021 |     48756021 |    103087827 |    103087827 |    103087827 |    103087827 |    103087827 |    103087827 |    103087827 |    213817693 |    213817693 |    213817693 |    213817693 |    213817693 |    213817693 |    213817693 |
sim_elapsed_time                                 1 |            1 |            1 |            1 |            1 |            1 |            1 |            1 |            1 |            1 |            1 |            1 |            1 |            1 |            1 |            1 |            1 |            1 |            1 |            1 |            1 |            1 |            1 |            1 |            1 |            1 |            1 |            1 |            1 |            1 |            2 |            1 |            1 |            1 |            2 |            2 |            3 |            2 |            3 |            2 |            3 |            3 |            5 |            6 |            5 |            5 |            6 |            5 |            6 |           11 |           11 |           12 |           11 |           11 |           11 |           12 |           23 |           24 |           23 |           24 |           24 |           23 |           24 |           50 |           50 |           50 |           50 |           51 |           51 |           50 |          103 |          103 |          103 |          105 |          105 |          105 |          104 |
sim_inst_rate                          461193.0000 |  461193.0000 |  461193.0000 |  461193.0000 |  461193.0000 |  461193.0000 |  461193.0000 |  976424.0000 |  976424.0000 |  976424.0000 |  976424.0000 |  976424.0000 |  976424.0000 |  976424.0000 | 2138942.0000 | 2138942.0000 | 2138942.0000 | 2138942.0000 | 2138942.0000 | 2138942.0000 | 2138942.0000 | 4643359.0000 | 4643359.0000 | 4643359.0000 | 4643359.0000 | 4643359.0000 | 4643359.0000 | 4643359.0000 |10106739.0000 |10106739.0000 | 5053369.5000 |10106739.0000 |10106739.0000 |10106739.0000 | 5053369.5000 |10498028.5000 | 6998685.6667 |10498028.5000 | 6998685.6667 |10498028.5000 | 6998685.6667 | 6998685.6667 | 8883687.0000 | 7403072.5000 | 8883687.0000 | 8883687.0000 | 7403072.5000 | 8883687.0000 | 7403072.5000 | 8408120.0000 | 8408120.0000 | 7707443.3333 | 8408120.0000 | 8408120.0000 | 8408120.0000 | 7707443.3333 | 8476539.8696 | 8123350.7083 | 8476539.8696 | 8123350.7083 | 8123350.7083 | 8476539.8696 | 8123350.7083 | 8338209.7800 | 8338209.7800 | 8338209.7800 | 8338209.7800 | 8174715.4706 | 8174715.4706 | 8338209.7800 | 8369736.2427 | 8369736.2427 | 8369736.2427 | 8210312.6952 | 8210312.6952 | 8210312.6952 | 8289258.0096 |
sim_num_branches                             75037 |        75037 |        75037 |        75037 |        75037 |        75037 |        75037 |       160305 |       160305 |       160305 |       160305 |       160305 |       160305 |       160305 |       353969 |       353969 |       353969 |       353969 |       353969 |       353969 |       353969 |       773152 |       773152 |       773152 |       773152 |       773152 |       773152 |       773152 |      1688451 |      1688451 |      1688451 |      1688451 |      1688451 |      1688451 |      1688451 |      3526927 |      3526927 |      3526927 |      3526927 |      3526927 |      3526927 |      3526927 |      7486160 |      7486160 |      7486160 |      7486160 |      7486160 |      7486160 |      7486160 |     15653525 |     15653525 |     15653525 |     15653525 |     15653525 |     15653525 |     15653525 |     33105563 |     33105563 |     33105563 |     33105563 |     33105563 |     33105563 |     33105563 |     70939666 |     70939666 |     70939666 |     70939666 |     70939666 |     70939666 |     70939666 |    147167471 |    147167471 |    147167471 |    147167471 |    147167471 |    147167471 |    147167471 |
sim_IPB                                     6.1462 |       6.1462 |       6.1462 |       6.1462 |       6.1462 |       6.1462 |       6.1462 |       6.0910 |       6.0910 |       6.0910 |       6.0910 |       6.0910 |       6.0910 |       6.0910 |       6.0427 |       6.0427 |       6.0427 |       6.0427 |       6.0427 |       6.0427 |       6.0427 |       6.0058 |       6.0058 |       6.0058 |       6.0058 |       6.0058 |       6.0058 |       6.0058 |       5.9858 |       5.9858 |       5.9858 |       5.9858 |       5.9858 |       5.9858 |       5.9858 |       5.9531 |       5.9531 |       5.9531 |       5.9531 |       5.9531 |       5.9531 |       5.9531 |       5.9334 |       5.9334 |       5.9334 |       5.9334 |       5.9334 |       5.9334 |       5.9334 |       5.9085 |       5.9085 |       5.9085 |       5.9085 |       5.9085 |       5.9085 |       5.9085 |       5.8891 |       5.8891 |       5.8891 |       5.8891 |       5.8891 |       5.8891 |       5.8891 |       5.8770 |       5.8770 |       5.8770 |       5.8770 |       5.8770 |       5.8770 |       5.8770 |       5.8578 |       5.8578 |       5.8578 |       5.8578 |       5.8578 |       5.8578 |       5.8578 |
bpred_bimod.lookups                          75037 |        75037 |        75037 |xxxxxxxxxxxxx |xxxxxxxxxxxxx |xxxxxxxxxxxxx |xxxxxxxxxxxxx |       160305 |       160305 |       160305 |xxxxxxxxxxxxx |xxxxxxxxxxxxx |xxxxxxxxxxxxx |xxxxxxxxxxxxx |       353969 |       353969 |       353969 |xxxxxxxxxxxxx |xxxxxxxxxxxxx |xxxxxxxxxxxxx |xxxxxxxxxxxxx |       773152 |       773152 |       773152 |xxxxxxxxxxxxx |xxxxxxxxxxxxx |xxxxxxxxxxxxx |xxxxxxxxxxxxx |      1688451 |      1688451 |      1688451 |xxxxxxxxxxxxx |xxxxxxxxxxxxx |xxxxxxxxxxxxx |xxxxxxxxxxxxx |      3526927 |      3526927 |      3526927 |xxxxxxxxxxxxx |xxxxxxxxxxxxx |xxxxxxxxxxxxx |xxxxxxxxxxxxx |      7486160 |      7486160 |      7486160 |xxxxxxxxxxxxx |xxxxxxxxxxxxx |xxxxxxxxxxxxx |xxxxxxxxxxxxx |     15653525 |     15653525 |     15653525 |xxxxxxxxxxxxx |xxxxxxxxxxxxx |xxxxxxxxxxxxx |xxxxxxxxxxxxx |     33105563 |     33105563 |     33105563 |xxxxxxxxxxxxx |xxxxxxxxxxxxx |xxxxxxxxxxxxx |xxxxxxxxxxxxx |     70939666 |     70939666 |     70939666 |xxxxxxxxxxxxx |xxxxxxxxxxxxx |xxxxxxxxxxxxx |xxxxxxxxxxxxx |    147167471 |    147167471 |    147167471 |
bpred_bimod.updates                          75037 |        75037 |        75037 |xxxxxxxxxxxxx |xxxxxxxxxxxxx |xxxxxxxxxxxxx |xxxxxxxxxxxxx |       160305 |       160305 |       160305 |xxxxxxxxxxxxx |xxxxxxxxxxxxx |xxxxxxxxxxxxx |xxxxxxxxxxxxx |       353969 |       353969 |       353969 |xxxxxxxxxxxxx |xxxxxxxxxxxxx |xxxxxxxxxxxxx |xxxxxxxxxxxxx |       773152 |       773152 |       773152 |xxxxxxxxxxxxx |xxxxxxxxxxxxx |xxxxxxxxxxxxx |xxxxxxxxxxxxx |      1688451 |      1688451 |      1688451 |xxxxxxxxxxxxx |xxxxxxxxxxxxx |xxxxxxxxxxxxx |xxxxxxxxxxxxx |      3526927 |      3526927 |      3526927 |xxxxxxxxxxxxx |xxxxxxxxxxxxx |xxxxxxxxxxxxx |xxxxxxxxxxxxx |      7486160 |      7486160 |      7486160 |xxxxxxxxxxxxx |xxxxxxxxxxxxx |xxxxxxxxxxxxx |xxxxxxxxxxxxx |     15653525 |     15653525 |     15653525 |xxxxxxxxxxxxx |xxxxxxxxxxxxx |xxxxxxxxxxxxx |xxxxxxxxxxxxx |     33105563 |     33105563 |     33105563 |xxxxxxxxxxxxx |xxxxxxxxxxxxx |xxxxxxxxxxxxx |xxxxxxxxxxxxx |     70939666 |     70939666 |     70939666 |xxxxxxxxxxxxx |xxxxxxxxxxxxx |xxxxxxxxxxxxx |xxxxxxxxxxxxx |    147167471 |    147167471 |    147167471 |
bpred_bimod.addr_hits                        52568 |        52568 |        52571 |xxxxxxxxxxxxx |xxxxxxxxxxxxx |xxxxxxxxxxxxx |xxxxxxxxxxxxx |       111408 |       111408 |       111411 |xxxxxxxxxxxxx |xxxxxxxxxxxxx |xxxxxxxxxxxxx |xxxxxxxxxxxxx |       251432 |       251433 |       251437 |xxxxxxxxxxxxx |xxxxxxxxxxxxx |xxxxxxxxxxxxx |xxxxxxxxxxxxx |       558496 |       558498 |       558498 |xxxxxxxxxxxxx |xxxxxxxxxxxxx |xxxxxxxxxxxxx |xxxxxxxxxxxxx |      1239945 |      1239947 |      1239946 |xxxxxxxxxxxxx |xxxxxxxxxxxxx |xxxxxxxxxxxxx |xxxxxxxxxxxxx |      2564936 |      2564938 |      2564938 |xxxxxxxxxxxxx |xxxxxxxxxxxxx |xxxxxxxxxxxxx |xxxxxxxxxxxxx |      5456326 |      5456328 |      5456328 |xxxxxxxxxxxxx |xxxxxxxxxxxxx |xxxxxxxxxxxxx |xxxxxxxxxxxxx |     11274589 |     11274591 |     11274590 |xxxxxxxxxxxxx |xxxxxxxxxxxxx |xxxxxxxxxxxxx |xxxxxxxxxxxxx |     23986860 |     23986862 |     23986860 |xxxxxxxxxxxxx |xxxxxxxxxxxxx |xxxxxxxxxxxxx |xxxxxxxxxxxxx |     52146258 |     52146260 |     52146260 |xxxxxxxxxxxxx |xxxxxxxxxxxxx |xxxxxxxxxxxxx |xxxxxxxxxxxxx |    106797038 |    106797040 |    106797040 |
bpred_bimod.dir_hits                         52679 |        52676 |        52678 |xxxxxxxxxxxxx |xxxxxxxxxxxxx |xxxxxxxxxxxxx |xxxxxxxxxxxxx |       111519 |       111517 |       111519 |xxxxxxxxxxxxx |xxxxxxxxxxxxx |xxxxxxxxxxxxx |xxxxxxxxxxxxx |       251544 |       251541 |       251545 |xxxxxxxxxxxxx |xxxxxxxxxxxxx |xxxxxxxxxxxxx |xxxxxxxxxxxxx |       558606 |       558605 |       558604 |xxxxxxxxxxxxx |xxxxxxxxxxxxx |xxxxxxxxxxxxx |xxxxxxxxxxxxx |      1240056 |      1240055 |      1240053 |xxxxxxxxxxxxx |xxxxxxxxxxxxx |xxxxxxxxxxxxx |xxxxxxxxxxxxx |      2565049 |      2565048 |      2565047 |xxxxxxxxxxxxx |xxxxxxxxxxxxx |xxxxxxxxxxxxx |xxxxxxxxxxxxx |      5456437 |      5456436 |      5456435 |xxxxxxxxxxxxx |xxxxxxxxxxxxx |xxxxxxxxxxxxx |xxxxxxxxxxxxx |     11274700 |     11274699 |     11274697 |xxxxxxxxxxxxx |xxxxxxxxxxxxx |xxxxxxxxxxxxx |xxxxxxxxxxxxx |     23986973 |     23986972 |     23986969 |xxxxxxxxxxxxx |xxxxxxxxxxxxx |xxxxxxxxxxxxx |xxxxxxxxxxxxx |     52146370 |     52146369 |     52146368 |xxxxxxxxxxxxx |xxxxxxxxxxxxx |xxxxxxxxxxxxx |xxxxxxxxxxxxx |    106797149 |    106797148 |    106797147 |
bpred_bimod.misses                           22358 |        22361 |        22359 |xxxxxxxxxxxxx |xxxxxxxxxxxxx |xxxxxxxxxxxxx |xxxxxxxxxxxxx |        48786 |        48788 |        48786 |xxxxxxxxxxxxx |xxxxxxxxxxxxx |xxxxxxxxxxxxx |xxxxxxxxxxxxx |       102425 |       102428 |       102424 |xxxxxxxxxxxxx |xxxxxxxxxxxxx |xxxxxxxxxxxxx |xxxxxxxxxxxxx |       214546 |       214547 |       214548 |xxxxxxxxxxxxx |xxxxxxxxxxxxx |xxxxxxxxxxxxx |xxxxxxxxxxxxx |       448395 |       448396 |       448398 |xxxxxxxxxxxxx |xxxxxxxxxxxxx |xxxxxxxxxxxxx |xxxxxxxxxxxxx |       961878 |       961879 |       961880 |xxxxxxxxxxxxx |xxxxxxxxxxxxx |xxxxxxxxxxxxx |xxxxxxxxxxxxx |      2029723 |      2029724 |      2029725 |xxxxxxxxxxxxx |xxxxxxxxxxxxx |xxxxxxxxxxxxx |xxxxxxxxxxxxx |      4378825 |      4378826 |      4378828 |xxxxxxxxxxxxx |xxxxxxxxxxxxx |xxxxxxxxxxxxx |xxxxxxxxxxxxx |      9118590 |      9118591 |      9118594 |xxxxxxxxxxxxx |xxxxxxxxxxxxx |xxxxxxxxxxxxx |xxxxxxxxxxxxx |     18793296 |     18793297 |     18793298 |xxxxxxxxxxxxx |xxxxxxxxxxxxx |xxxxxxxxxxxxx |xxxxxxxxxxxxx |     40370322 |     40370323 |     40370324 |
bpred_bimod.jr_hits                             64 |           64 |           64 |xxxxxxxxxxxxx |xxxxxxxxxxxxx |xxxxxxxxxxxxx |xxxxxxxxxxxxx |           64 |           64 |           64 |xxxxxxxxxxxxx |xxxxxxxxxxxxx |xxxxxxxxxxxxx |xxxxxxxxxxxxx |           64 |           64 |           64 |xxxxxxxxxxxxx |xxxxxxxxxxxxx |xxxxxxxxxxxxx |xxxxxxxxxxxxx |           64 |           64 |           64 |xxxxxxxxxxxxx |xxxxxxxxxxxxx |xxxxxxxxxxxxx |xxxxxxxxxxxxx |           64 |           64 |           64 |xxxxxxxxxxxxx |xxxxxxxxxxxxx |xxxxxxxxxxxxx |xxxxxxxxxxxxx |           64 |           64 |           64 |xxxxxxxxxxxxx |xxxxxxxxxxxxx |xxxxxxxxxxxxx |xxxxxxxxxxxxx |           64 |           64 |           64 |xxxxxxxxxxxxx |xxxxxxxxxxxxx |xxxxxxxxxxxxx |xxxxxxxxxxxxx |           64 |           64 |           64 |xxxxxxxxxxxxx |xxxxxxxxxxxxx |xxxxxxxxxxxxx |xxxxxxxxxxxxx |           64 |           64 |           64 |xxxxxxxxxxxxx |xxxxxxxxxxxxx |xxxxxxxxxxxxx |xxxxxxxxxxxxx |           64 |           64 |           64 |xxxxxxxxxxxxx |xxxxxxxxxxxxx |xxxxxxxxxxxxx |xxxxxxxxxxxxx |           64 |           64 |           64 |
bpred_bimod.jr_seen                             64 |           64 |           64 |xxxxxxxxxxxxx |xxxxxxxxxxxxx |xxxxxxxxxxxxx |xxxxxxxxxxxxx |           64 |           64 |           64 |xxxxxxxxxxxxx |xxxxxxxxxxxxx |xxxxxxxxxxxxx |xxxxxxxxxxxxx |           64 |           64 |           64 |xxxxxxxxxxxxx |xxxxxxxxxxxxx |xxxxxxxxxxxxx |xxxxxxxxxxxxx |           64 |           64 |           64 |xxxxxxxxxxxxx |xxxxxxxxxxxxx |xxxxxxxxxxxxx |xxxxxxxxxxxxx |           64 |           64 |           64 |xxxxxxxxxxxxx |xxxxxxxxxxxxx |xxxxxxxxxxxxx |xxxxxxxxxxxxx |           64 |           64 |           64 |xxxxxxxxxxxxx |xxxxxxxxxxxxx |xxxxxxxxxxxxx |xxxxxxxxxxxxx |           64 |           64 |           64 |xxxxxxxxxxxxx |xxxxxxxxxxxxx |xxxxxxxxxxxxx |xxxxxxxxxxxxx |           64 |           64 |           64 |xxxxxxxxxxxxx |xxxxxxxxxxxxx |xxxxxxxxxxxxx |xxxxxxxxxxxxx |           64 |           64 |           64 |xxxxxxxxxxxxx |xxxxxxxxxxxxx |xxxxxxxxxxxxx |xxxxxxxxxxxxx |           64 |           64 |           64 |xxxxxxxxxxxxx |xxxxxxxxxxxxx |xxxxxxxxxxxxx |xxxxxxxxxxxxx |           64 |           64 |           64 |
bpred_bimod.jr_non_ras_hits.PP                   0 |            0 |            0 |xxxxxxxxxxxxx |xxxxxxxxxxxxx |xxxxxxxxxxxxx |xxxxxxxxxxxxx |            0 |            0 |            0 |xxxxxxxxxxxxx |xxxxxxxxxxxxx |xxxxxxxxxxxxx |xxxxxxxxxxxxx |            0 |            0 |            0 |xxxxxxxxxxxxx |xxxxxxxxxxxxx |xxxxxxxxxxxxx |xxxxxxxxxxxxx |            0 |            0 |            0 |xxxxxxxxxxxxx |xxxxxxxxxxxxx |xxxxxxxxxxxxx |xxxxxxxxxxxxx |            0 |            0 |            0 |xxxxxxxxxxxxx |xxxxxxxxxxxxx |xxxxxxxxxxxxx |xxxxxxxxxxxxx |            0 |            0 |            0 |xxxxxxxxxxxxx |xxxxxxxxxxxxx |xxxxxxxxxxxxx |xxxxxxxxxxxxx |            0 |            0 |            0 |xxxxxxxxxxxxx |xxxxxxxxxxxxx |xxxxxxxxxxxxx |xxxxxxxxxxxxx |            0 |            0 |            0 |xxxxxxxxxxxxx |xxxxxxxxxxxxx |xxxxxxxxxxxxx |xxxxxxxxxxxxx |            0 |            0 |            0 |xxxxxxxxxxxxx |xxxxxxxxxxxxx |xxxxxxxxxxxxx |xxxxxxxxxxxxx |            0 |            0 |            0 |xxxxxxxxxxxxx |xxxxxxxxxxxxx |xxxxxxxxxxxxx |xxxxxxxxxxxxx |            0 |            0 |            0 |
bpred_bimod.jr_non_ras_seen.PP                   0 |            0 |            0 |xxxxxxxxxxxxx |xxxxxxxxxxxxx |xxxxxxxxxxxxx |xxxxxxxxxxxxx |            0 |            0 |            0 |xxxxxxxxxxxxx |xxxxxxxxxxxxx |xxxxxxxxxxxxx |xxxxxxxxxxxxx |            0 |            0 |            0 |xxxxxxxxxxxxx |xxxxxxxxxxxxx |xxxxxxxxxxxxx |xxxxxxxxxxxxx |            0 |            0 |            0 |xxxxxxxxxxxxx |xxxxxxxxxxxxx |xxxxxxxxxxxxx |xxxxxxxxxxxxx |            0 |            0 |            0 |xxxxxxxxxxxxx |xxxxxxxxxxxxx |xxxxxxxxxxxxx |xxxxxxxxxxxxx |            0 |            0 |            0 |xxxxxxxxxxxxx |xxxxxxxxxxxxx |xxxxxxxxxxxxx |xxxxxxxxxxxxx |            0 |            0 |            0 |xxxxxxxxxxxxx |xxxxxxxxxxxxx |xxxxxxxxxxxxx |xxxxxxxxxxxxx |            0 |            0 |            0 |xxxxxxxxxxxxx |xxxxxxxxxxxxx |xxxxxxxxxxxxx |xxxxxxxxxxxxx |            0 |            0 |            0 |xxxxxxxxxxxxx |xxxxxxxxxxxxx |xxxxxxxxxxxxx |xxxxxxxxxxxxx |            0 |            0 |            0 |xxxxxxxxxxxxx |xxxxxxxxxxxxx |xxxxxxxxxxxxx |xxxxxxxxxxxxx |            0 |            0 |            0 |
bpred_bimod.bpred_addr_rate                 0.7006 |       0.7006 |       0.7006 |xxxxxxxxxxxxx |xxxxxxxxxxxxx |xxxxxxxxxxxxx |xxxxxxxxxxxxx |       0.6950 |       0.6950 |       0.6950 |xxxxxxxxxxxxx |xxxxxxxxxxxxx |xxxxxxxxxxxxx |xxxxxxxxxxxxx |       0.7103 |       0.7103 |       0.7103 |xxxxxxxxxxxxx |xxxxxxxxxxxxx |xxxxxxxxxxxxx |xxxxxxxxxxxxx |       0.7224 |       0.7224 |       0.7224 |xxxxxxxxxxxxx |xxxxxxxxxxxxx |xxxxxxxxxxxxx |xxxxxxxxxxxxx |       0.7344 |       0.7344 |       0.7344 |xxxxxxxxxxxxx |xxxxxxxxxxxxx |xxxxxxxxxxxxx |xxxxxxxxxxxxx |       0.7272 |       0.7272 |       0.7272 |xxxxxxxxxxxxx |xxxxxxxxxxxxx |xxxxxxxxxxxxx |xxxxxxxxxxxxx |       0.7289 |       0.7289 |       0.7289 |xxxxxxxxxxxxx |xxxxxxxxxxxxx |xxxxxxxxxxxxx |xxxxxxxxxxxxx |       0.7203 |       0.7203 |       0.7203 |xxxxxxxxxxxxx |xxxxxxxxxxxxx |xxxxxxxxxxxxx |xxxxxxxxxxxxx |       0.7246 |       0.7246 |       0.7246 |xxxxxxxxxxxxx |xxxxxxxxxxxxx |xxxxxxxxxxxxx |xxxxxxxxxxxxx |       0.7351 |       0.7351 |       0.7351 |xxxxxxxxxxxxx |xxxxxxxxxxxxx |xxxxxxxxxxxxx |xxxxxxxxxxxxx |       0.7257 |       0.7257 |       0.7257 |
bpred_bimod.bpred_dir_rate                  0.7020 |       0.7020 |       0.7020 |xxxxxxxxxxxxx |xxxxxxxxxxxxx |xxxxxxxxxxxxx |xxxxxxxxxxxxx |       0.6957 |       0.6957 |       0.6957 |xxxxxxxxxxxxx |xxxxxxxxxxxxx |xxxxxxxxxxxxx |xxxxxxxxxxxxx |       0.7106 |       0.7106 |       0.7106 |xxxxxxxxxxxxx |xxxxxxxxxxxxx |xxxxxxxxxxxxx |xxxxxxxxxxxxx |       0.7225 |       0.7225 |       0.7225 |xxxxxxxxxxxxx |xxxxxxxxxxxxx |xxxxxxxxxxxxx |xxxxxxxxxxxxx |       0.7344 |       0.7344 |       0.7344 |xxxxxxxxxxxxx |xxxxxxxxxxxxx |xxxxxxxxxxxxx |xxxxxxxxxxxxx |       0.7273 |       0.7273 |       0.7273 |xxxxxxxxxxxxx |xxxxxxxxxxxxx |xxxxxxxxxxxxx |xxxxxxxxxxxxx |       0.7289 |       0.7289 |       0.7289 |xxxxxxxxxxxxx |xxxxxxxxxxxxx |xxxxxxxxxxxxx |xxxxxxxxxxxxx |       0.7203 |       0.7203 |       0.7203 |xxxxxxxxxxxxx |xxxxxxxxxxxxx |xxxxxxxxxxxxx |xxxxxxxxxxxxx |       0.7246 |       0.7246 |       0.7246 |xxxxxxxxxxxxx |xxxxxxxxxxxxx |xxxxxxxxxxxxx |xxxxxxxxxxxxx |       0.7351 |       0.7351 |       0.7351 |xxxxxxxxxxxxx |xxxxxxxxxxxxx |xxxxxxxxxxxxx |xxxxxxxxxxxxx |       0.7257 |       0.7257 |       0.7257 |
bpred_bimod.bpred_jr_rate                   1.0000 |       1.0000 |       1.0000 |xxxxxxxxxxxxx |xxxxxxxxxxxxx |xxxxxxxxxxxxx |xxxxxxxxxxxxx |       1.0000 |       1.0000 |       1.0000 |xxxxxxxxxxxxx |xxxxxxxxxxxxx |xxxxxxxxxxxxx |xxxxxxxxxxxxx |       1.0000 |       1.0000 |       1.0000 |xxxxxxxxxxxxx |xxxxxxxxxxxxx |xxxxxxxxxxxxx |xxxxxxxxxxxxx |       1.0000 |       1.0000 |       1.0000 |xxxxxxxxxxxxx |xxxxxxxxxxxxx |xxxxxxxxxxxxx |xxxxxxxxxxxxx |       1.0000 |       1.0000 |       1.0000 |xxxxxxxxxxxxx |xxxxxxxxxxxxx |xxxxxxxxxxxxx |xxxxxxxxxxxxx |       1.0000 |       1.0000 |       1.0000 |xxxxxxxxxxxxx |xxxxxxxxxxxxx |xxxxxxxxxxxxx |xxxxxxxxxxxxx |       1.0000 |       1.0000 |       1.0000 |xxxxxxxxxxxxx |xxxxxxxxxxxxx |xxxxxxxxxxxxx |xxxxxxxxxxxxx |       1.0000 |       1.0000 |       1.0000 |xxxxxxxxxxxxx |xxxxxxxxxxxxx |xxxxxxxxxxxxx |xxxxxxxxxxxxx |       1.0000 |       1.0000 |       1.0000 |xxxxxxxxxxxxx |xxxxxxxxxxxxx |xxxxxxxxxxxxx |xxxxxxxxxxxxx |       1.0000 |       1.0000 |       1.0000 |xxxxxxxxxxxxx |xxxxxxxxxxxxx |xxxxxxxxxxxxx |xxxxxxxxxxxxx |       1.0000 |       1.0000 |       1.0000 |
bpred_bimod.bpred_jr_non_ras_rate.PP       <error: |      <error: |      <error: |xxxxxxxxxxxxx |xxxxxxxxxxxxx |xxxxxxxxxxxxx |xxxxxxxxxxxxx |      <error: |      <error: |      <error: |xxxxxxxxxxxxx |xxxxxxxxxxxxx |xxxxxxxxxxxxx |xxxxxxxxxxxxx |      <error: |      <error: |      <error: |xxxxxxxxxxxxx |xxxxxxxxxxxxx |xxxxxxxxxxxxx |xxxxxxxxxxxxx |      <error: |      <error: |      <error: |xxxxxxxxxxxxx |xxxxxxxxxxxxx |xxxxxxxxxxxxx |xxxxxxxxxxxxx |      <error: |      <error: |      <error: |xxxxxxxxxxxxx |xxxxxxxxxxxxx |xxxxxxxxxxxxx |xxxxxxxxxxxxx |      <error: |      <error: |      <error: |xxxxxxxxxxxxx |xxxxxxxxxxxxx |xxxxxxxxxxxxx |xxxxxxxxxxxxx |      <error: |      <error: |      <error: |xxxxxxxxxxxxx |xxxxxxxxxxxxx |xxxxxxxxxxxxx |xxxxxxxxxxxxx |      <error: |      <error: |      <error: |xxxxxxxxxxxxx |xxxxxxxxxxxxx |xxxxxxxxxxxxx |xxxxxxxxxxxxx |      <error: |      <error: |      <error: |xxxxxxxxxxxxx |xxxxxxxxxxxxx |xxxxxxxxxxxxx |xxxxxxxxxxxxx |      <error: |      <error: |      <error: |xxxxxxxxxxxxx |xxxxxxxxxxxxx |xxxxxxxxxxxxx |xxxxxxxxxxxxx |      <error: |      <error: |      <error: |
bpred_bimod.retstack_pushes                     66 |           66 |           66 |xxxxxxxxxxxxx |xxxxxxxxxxxxx |xxxxxxxxxxxxx |xxxxxxxxxxxxx |           66 |           66 |           66 |xxxxxxxxxxxxx |xxxxxxxxxxxxx |xxxxxxxxxxxxx |xxxxxxxxxxxxx |           66 |           66 |           66 |xxxxxxxxxxxxx |xxxxxxxxxxxxx |xxxxxxxxxxxxx |xxxxxxxxxxxxx |           66 |           66 |           66 |xxxxxxxxxxxxx |xxxxxxxxxxxxx |xxxxxxxxxxxxx |xxxxxxxxxxxxx |           66 |           66 |           66 |xxxxxxxxxxxxx |xxxxxxxxxxxxx |xxxxxxxxxxxxx |xxxxxxxxxxxxx |           66 |           66 |           66 |xxxxxxxxxxxxx |xxxxxxxxxxxxx |xxxxxxxxxxxxx |xxxxxxxxxxxxx |           66 |           66 |           66 |xxxxxxxxxxxxx |xxxxxxxxxxxxx |xxxxxxxxxxxxx |xxxxxxxxxxxxx |           66 |           66 |           66 |xxxxxxxxxxxxx |xxxxxxxxxxxxx |xxxxxxxxxxxxx |xxxxxxxxxxxxx |           66 |           66 |           66 |xxxxxxxxxxxxx |xxxxxxxxxxxxx |xxxxxxxxxxxxx |xxxxxxxxxxxxx |           66 |           66 |           66 |xxxxxxxxxxxxx |xxxxxxxxxxxxx |xxxxxxxxxxxxx |xxxxxxxxxxxxx |           66 |           66 |           66 |
bpred_bimod.retstack_pops                       64 |           64 |           64 |xxxxxxxxxxxxx |xxxxxxxxxxxxx |xxxxxxxxxxxxx |xxxxxxxxxxxxx |           64 |           64 |           64 |xxxxxxxxxxxxx |xxxxxxxxxxxxx |xxxxxxxxxxxxx |xxxxxxxxxxxxx |           64 |           64 |           64 |xxxxxxxxxxxxx |xxxxxxxxxxxxx |xxxxxxxxxxxxx |xxxxxxxxxxxxx |           64 |           64 |           64 |xxxxxxxxxxxxx |xxxxxxxxxxxxx |xxxxxxxxxxxxx |xxxxxxxxxxxxx |           64 |           64 |           64 |xxxxxxxxxxxxx |xxxxxxxxxxxxx |xxxxxxxxxxxxx |xxxxxxxxxxxxx |           64 |           64 |           64 |xxxxxxxxxxxxx |xxxxxxxxxxxxx |xxxxxxxxxxxxx |xxxxxxxxxxxxx |           64 |           64 |           64 |xxxxxxxxxxxxx |xxxxxxxxxxxxx |xxxxxxxxxxxxx |xxxxxxxxxxxxx |           64 |           64 |           64 |xxxxxxxxxxxxx |xxxxxxxxxxxxx |xxxxxxxxxxxxx |xxxxxxxxxxxxx |           64 |           64 |           64 |xxxxxxxxxxxxx |xxxxxxxxxxxxx |xxxxxxxxxxxxx |xxxxxxxxxxxxx |           64 |           64 |           64 |xxxxxxxxxxxxx |xxxxxxxxxxxxx |xxxxxxxxxxxxx |xxxxxxxxxxxxx |           64 |           64 |           64 |
bpred_bimod.used_ras.PP                         64 |           64 |           64 |xxxxxxxxxxxxx |xxxxxxxxxxxxx |xxxxxxxxxxxxx |xxxxxxxxxxxxx |           64 |           64 |           64 |xxxxxxxxxxxxx |xxxxxxxxxxxxx |xxxxxxxxxxxxx |xxxxxxxxxxxxx |           64 |           64 |           64 |xxxxxxxxxxxxx |xxxxxxxxxxxxx |xxxxxxxxxxxxx |xxxxxxxxxxxxx |           64 |           64 |           64 |xxxxxxxxxxxxx |xxxxxxxxxxxxx |xxxxxxxxxxxxx |xxxxxxxxxxxxx |           64 |           64 |           64 |xxxxxxxxxxxxx |xxxxxxxxxxxxx |xxxxxxxxxxxxx |xxxxxxxxxxxxx |           64 |           64 |           64 |xxxxxxxxxxxxx |xxxxxxxxxxxxx |xxxxxxxxxxxxx |xxxxxxxxxxxxx |           64 |           64 |           64 |xxxxxxxxxxxxx |xxxxxxxxxxxxx |xxxxxxxxxxxxx |xxxxxxxxxxxxx |           64 |           64 |           64 |xxxxxxxxxxxxx |xxxxxxxxxxxxx |xxxxxxxxxxxxx |xxxxxxxxxxxxx |           64 |           64 |           64 |xxxxxxxxxxxxx |xxxxxxxxxxxxx |xxxxxxxxxxxxx |xxxxxxxxxxxxx |           64 |           64 |           64 |xxxxxxxxxxxxx |xxxxxxxxxxxxx |xxxxxxxxxxxxx |xxxxxxxxxxxxx |           64 |           64 |           64 |
bpred_bimod.ras_hits.PP                         64 |           64 |           64 |xxxxxxxxxxxxx |xxxxxxxxxxxxx |xxxxxxxxxxxxx |xxxxxxxxxxxxx |           64 |           64 |           64 |xxxxxxxxxxxxx |xxxxxxxxxxxxx |xxxxxxxxxxxxx |xxxxxxxxxxxxx |           64 |           64 |           64 |xxxxxxxxxxxxx |xxxxxxxxxxxxx |xxxxxxxxxxxxx |xxxxxxxxxxxxx |           64 |           64 |           64 |xxxxxxxxxxxxx |xxxxxxxxxxxxx |xxxxxxxxxxxxx |xxxxxxxxxxxxx |           64 |           64 |           64 |xxxxxxxxxxxxx |xxxxxxxxxxxxx |xxxxxxxxxxxxx |xxxxxxxxxxxxx |           64 |           64 |           64 |xxxxxxxxxxxxx |xxxxxxxxxxxxx |xxxxxxxxxxxxx |xxxxxxxxxxxxx |           64 |           64 |           64 |xxxxxxxxxxxxx |xxxxxxxxxxxxx |xxxxxxxxxxxxx |xxxxxxxxxxxxx |           64 |           64 |           64 |xxxxxxxxxxxxx |xxxxxxxxxxxxx |xxxxxxxxxxxxx |xxxxxxxxxxxxx |           64 |           64 |           64 |xxxxxxxxxxxxx |xxxxxxxxxxxxx |xxxxxxxxxxxxx |xxxxxxxxxxxxx |           64 |           64 |           64 |xxxxxxxxxxxxx |xxxxxxxxxxxxx |xxxxxxxxxxxxx |xxxxxxxxxxxxx |           64 |           64 |           64 |
bpred_bimod.ras_rate.PP                     1.0000 |       1.0000 |       1.0000 |xxxxxxxxxxxxx |xxxxxxxxxxxxx |xxxxxxxxxxxxx |xxxxxxxxxxxxx |       1.0000 |       1.0000 |       1.0000 |xxxxxxxxxxxxx |xxxxxxxxxxxxx |xxxxxxxxxxxxx |xxxxxxxxxxxxx |       1.0000 |       1.0000 |       1.0000 |xxxxxxxxxxxxx |xxxxxxxxxxxxx |xxxxxxxxxxxxx |xxxxxxxxxxxxx |       1.0000 |       1.0000 |       1.0000 |xxxxxxxxxxxxx |xxxxxxxxxxxxx |xxxxxxxxxxxxx |xxxxxxxxxxxxx |       1.0000 |       1.0000 |       1.0000 |xxxxxxxxxxxxx |xxxxxxxxxxxxx |xxxxxxxxxxxxx |xxxxxxxxxxxxx |       1.0000 |       1.0000 |       1.0000 |xxxxxxxxxxxxx |xxxxxxxxxxxxx |xxxxxxxxxxxxx |xxxxxxxxxxxxx |       1.0000 |       1.0000 |       1.0000 |xxxxxxxxxxxxx |xxxxxxxxxxxxx |xxxxxxxxxxxxx |xxxxxxxxxxxxx |       1.0000 |       1.0000 |       1.0000 |xxxxxxxxxxxxx |xxxxxxxxxxxxx |xxxxxxxxxxxxx |xxxxxxxxxxxxx |       1.0000 |       1.0000 |       1.0000 |xxxxxxxxxxxxx |xxxxxxxxxxxxx |xxxxxxxxxxxxx |xxxxxxxxxxxxx |       1.0000 |       1.0000 |       1.0000 |xxxxxxxxxxxxx |xxxxxxxxxxxxx |xxxxxxxxxxxxx |xxxxxxxxxxxxx |       1.0000 |       1.0000 |       1.0000 |
bpred_2lev.lookups                   xxxxxxxxxxxxx |xxxxxxxxxxxxx |xxxxxxxxxxxxx |        75037 |        75037 |        75037 |        75037 |xxxxxxxxxxxxx |xxxxxxxxxxxxx |xxxxxxxxxxxxx |       160305 |       160305 |       160305 |       160305 |xxxxxxxxxxxxx |xxxxxxxxxxxxx |xxxxxxxxxxxxx |       353969 |       353969 |       353969 |       353969 |xxxxxxxxxxxxx |xxxxxxxxxxxxx |xxxxxxxxxxxxx |       773152 |       773152 |       773152 |       773152 |xxxxxxxxxxxxx |xxxxxxxxxxxxx |xxxxxxxxxxxxx |      1688451 |      1688451 |      1688451 |      1688451 |xxxxxxxxxxxxx |xxxxxxxxxxxxx |xxxxxxxxxxxxx |      3526927 |      3526927 |      3526927 |      3526927 |xxxxxxxxxxxxx |xxxxxxxxxxxxx |xxxxxxxxxxxxx |      7486160 |      7486160 |      7486160 |      7486160 |xxxxxxxxxxxxx |xxxxxxxxxxxxx |xxxxxxxxxxxxx |     15653525 |     15653525 |     15653525 |     15653525 |xxxxxxxxxxxxx |xxxxxxxxxxxxx |xxxxxxxxxxxxx |     33105563 |     33105563 |     33105563 |     33105563 |xxxxxxxxxxxxx |xxxxxxxxxxxxx |xxxxxxxxxxxxx |     70939666 |     70939666 |     70939666 |     70939666 |xxxxxxxxxxxxx |xxxxxxxxxxxxx |xxxxxxxxxxxxx |    147167471 |    147167471 |    147167471 |    147167471 |
[...]
bpred_2lev.retstack_pushes           xxxxxxxxxxxxx |xxxxxxxxxxxxx |xxxxxxxxxxxxx |           66 |           66 |           66 |           66 |xxxxxxxxxxxxx |xxxxxxxxxxxxx |xxxxxxxxxxxxx |           66 |           66 |           66 |           66 |xxxxxxxxxxxxx |xxxxxxxxxxxxx |xxxxxxxxxxxxx |           66 |           66 |           66 |           66 |xxxxxxxxxxxxx |xxxxxxxxxxxxx |xxxxxxxxxxxxx |           66 |           66 |           66 |           66 |xxxxxxxxxxxxx |xxxxxxxxxxxxx |xxxxxxxxxxxxx |           66 |           66 |           66 |           66 |xxxxxxxxxxxxx |xxxxxxxxxxxxx |xxxxxxxxxxxxx |           66 |           66 |           66 |           66 |xxxxxxxxxxxxx |xxxxxxxxxxxxx |xxxxxxxxxxxxx |           66 |           66 |           66 |           66 |xxxxxxxxxxxxx |xxxxxxxxxxxxx |xxxxxxxxxxxxx |           66 |           66 |           66 |           66 |xxxxxxxxxxxxx |xxxxxxxxxxxxx |xxxxxxxxxxxxx |           66 |           66 |           66 |           66 |xxxxxxxxxxxxx |xxxxxxxxxxxxx |xxxxxxxxxxxxx |           66 |           66 |           66 |           66 |xxxxxxxxxxxxx |xxxxxxxxxxxxx |xxxxxxxxxxxxx |           66 |           66 |           66 |           66 |
bpred_2lev.retstack_pops             xxxxxxxxxxxxx |xxxxxxxxxxxxx |xxxxxxxxxxxxx |           64 |           64 |           64 |           64 |xxxxxxxxxxxxx |xxxxxxxxxxxxx |xxxxxxxxxxxxx |           64 |           64 |           64 |           64 |xxxxxxxxxxxxx |xxxxxxxxxxxxx |xxxxxxxxxxxxx |           64 |           64 |           64 |           64 |xxxxxxxxxxxxx |xxxxxxxxxxxxx |xxxxxxxxxxxxx |           64 |           64 |           64 |           64 |xxxxxxxxxxxxx |xxxxxxxxxxxxx |xxxxxxxxxxxxx |           64 |           64 |           64 |           64 |xxxxxxxxxxxxx |xxxxxxxxxxxxx |xxxxxxxxxxxxx |           64 |           64 |           64 |           64 |xxxxxxxxxxxxx |xxxxxxxxxxxxx |xxxxxxxxxxxxx |           64 |           64 |           64 |           64 |xxxxxxxxxxxxx |xxxxxxxxxxxxx |xxxxxxxxxxxxx |           64 |           64 |           64 |           64 |xxxxxxxxxxxxx |xxxxxxxxxxxxx |xxxxxxxxxxxxx |           64 |           64 |           64 |           64 |xxxxxxxxxxxxx |xxxxxxxxxxxxx |xxxxxxxxxxxxx |           64 |           64 |           64 |           64 |xxxxxxxxxxxxx |xxxxxxxxxxxxx |xxxxxxxxxxxxx |           64 |           64 |           64 |           64 |
bpred_2lev.used_ras.PP               xxxxxxxxxxxxx |xxxxxxxxxxxxx |xxxxxxxxxxxxx |           64 |           64 |           64 |           64 |xxxxxxxxxxxxx |xxxxxxxxxxxxx |xxxxxxxxxxxxx |           64 |           64 |           64 |           64 |xxxxxxxxxxxxx |xxxxxxxxxxxxx |xxxxxxxxxxxxx |           64 |           64 |           64 |           64 |xxxxxxxxxxxxx |xxxxxxxxxxxxx |xxxxxxxxxxxxx |           64 |           64 |           64 |           64 |xxxxxxxxxxxxx |xxxxxxxxxxxxx |xxxxxxxxxxxxx |           64 |           64 |           64 |           64 |xxxxxxxxxxxxx |xxxxxxxxxxxxx |xxxxxxxxxxxxx |           64 |           64 |           64 |           64 |xxxxxxxxxxxxx |xxxxxxxxxxxxx |xxxxxxxxxxxxx |           64 |           64 |           64 |           64 |xxxxxxxxxxxxx |xxxxxxxxxxxxx |xxxxxxxxxxxxx |           64 |           64 |           64 |           64 |xxxxxxxxxxxxx |xxxxxxxxxxxxx |xxxxxxxxxxxxx |           64 |           64 |           64 |           64 |xxxxxxxxxxxxx |xxxxxxxxxxxxx |xxxxxxxxxxxxx |           64 |           64 |           64 |           64 |xxxxxxxxxxxxx |xxxxxxxxxxxxx |xxxxxxxxxxxxx |           64 |           64 |           64 |           64 |
bpred_2lev.ras_hits.PP               xxxxxxxxxxxxx |xxxxxxxxxxxxx |xxxxxxxxxxxxx |           64 |           64 |           64 |           64 |xxxxxxxxxxxxx |xxxxxxxxxxxxx |xxxxxxxxxxxxx |           64 |           64 |           64 |           64 |xxxxxxxxxxxxx |xxxxxxxxxxxxx |xxxxxxxxxxxxx |           64 |           64 |           64 |           64 |xxxxxxxxxxxxx |xxxxxxxxxxxxx |xxxxxxxxxxxxx |           64 |           64 |           64 |           64 |xxxxxxxxxxxxx |xxxxxxxxxxxxx |xxxxxxxxxxxxx |           64 |           64 |           64 |           64 |xxxxxxxxxxxxx |xxxxxxxxxxxxx |xxxxxxxxxxxxx |           64 |           64 |           64 |           64 |xxxxxxxxxxxxx |xxxxxxxxxxxxx |xxxxxxxxxxxxx |           64 |           64 |           64 |           64 |xxxxxxxxxxxxx |xxxxxxxxxxxxx |xxxxxxxxxxxxx |           64 |           64 |           64 |           64 |xxxxxxxxxxxxx |xxxxxxxxxxxxx |xxxxxxxxxxxxx |           64 |           64 |           64 |           64 |xxxxxxxxxxxxx |xxxxxxxxxxxxx |xxxxxxxxxxxxx |           64 |           64 |           64 |           64 |xxxxxxxxxxxxx |xxxxxxxxxxxxx |xxxxxxxxxxxxx |           64 |           64 |           64 |           64 |
bpred_2lev.ras_rate.PP               xxxxxxxxxxxxx |xxxxxxxxxxxxx |xxxxxxxxxxxxx |       1.0000 |       1.0000 |       1.0000 |       1.0000 |xxxxxxxxxxxxx |xxxxxxxxxxxxx |xxxxxxxxxxxxx |       1.0000 |       1.0000 |       1.0000 |       1.0000 |xxxxxxxxxxxxx |xxxxxxxxxxxxx |xxxxxxxxxxxxx |       1.0000 |       1.0000 |       1.0000 |       1.0000 |xxxxxxxxxxxxx |xxxxxxxxxxxxx |xxxxxxxxxxxxx |       1.0000 |       1.0000 |       1.0000 |       1.0000 |xxxxxxxxxxxxx |xxxxxxxxxxxxx |xxxxxxxxxxxxx |       1.0000 |       1.0000 |       1.0000 |       1.0000 |xxxxxxxxxxxxx |xxxxxxxxxxxxx |xxxxxxxxxxxxx |       1.0000 |       1.0000 |       1.0000 |       1.0000 |xxxxxxxxxxxxx |xxxxxxxxxxxxx |xxxxxxxxxxxxx |       1.0000 |       1.0000 |       1.0000 |       1.0000 |xxxxxxxxxxxxx |xxxxxxxxxxxxx |xxxxxxxxxxxxx |       1.0000 |       1.0000 |       1.0000 |       1.0000 |xxxxxxxxxxxxx |xxxxxxxxxxxxx |xxxxxxxxxxxxx |       1.0000 |       1.0000 |       1.0000 |       1.0000 |xxxxxxxxxxxxx |xxxxxxxxxxxxx |xxxxxxxxxxxxx |       1.0000 |       1.0000 |       1.0000 |       1.0000 |xxxxxxxxxxxxx |xxxxxxxxxxxxx |xxxxxxxxxxxxx |       1.0000 |       1.0000 |       1.0000 |       1.0000 |

Command list: 
	sslittle-na-sstrix-gcc -Wall -O3 -funroll-loops -finline-functions  -DRANDOM_SIZE=4096 -DOFFSET=6 -DSORT=base_quicksort sorts/base_quicksort972475589.c simpleMain.c -o base_quicksort1936824267
	sim-cache -cache:dl1 dl1:256:32:1:l -cache:dl2 dl2:131072:32:1:l -cache:il1 il1:256:32:1:l -cache:il2 dl2 base_quicksort1936824267
	sim-cache -cache:dl1 dl1:256:32:1:l -cache:dl2 dl2:65536:32:1:l -cache:il1 il1:256:32:1:l -cache:il2 dl2 base_quicksort1936824267
	sim-cache -cache:dl1 dl1:1:32:256:l -cache:dl2 dl2:1:32:131072:l -cache:il1 il1:1:32:256:l -cache:il2 dl2 base_quicksort1936824267
	sim-cache -cache:dl1 dl1:1:32:256:l -cache:dl2 dl2:1:32:65536:l -cache:il1 il1:1:32:256:l -cache:il2 dl2 base_quicksort1936824267
	sim-bpred -bpred bimod -bpred:bimod 512 base_quicksort1936824267
	sim-bpred -bpred bimod -bpred:bimod 1024 base_quicksort1936824267
	sim-bpred -bpred bimod -bpred:bimod 2048 base_quicksort1936824267
	sim-bpred -bpred 2lev -bpred:2lev 1 512 10 1 base_quicksort1936824267
	sim-bpred -bpred 2lev -bpred:2lev 1 1024 10 1 base_quicksort1936824267
	sim-bpred -bpred 2lev -bpred:2lev 1 2048 10 1 base_quicksort1936824267
	sim-bpred -bpred 2lev -bpred:2lev 1 4096 10 1 base_quicksort1936824267
	sslittle-na-sstrix-gcc -Wall -O3 -funroll-loops -finline-functions  -DRANDOM_SIZE=8192 -DOFFSET=6 -DSORT=base_quicksort sorts/base_quicksort972475589.c simpleMain.c -o base_quicksort1936824267
	sim-cache -cache:dl1 dl1:256:32:1:l -cache:dl2 dl2:131072:32:1:l -cache:il1 il1:256:32:1:l -cache:il2 dl2 base_quicksort1936824267
	sim-cache -cache:dl1 dl1:256:32:1:l -cache:dl2 dl2:65536:32:1:l -cache:il1 il1:256:32:1:l -cache:il2 dl2 base_quicksort1936824267
	sim-cache -cache:dl1 dl1:1:32:256:l -cache:dl2 dl2:1:32:131072:l -cache:il1 il1:1:32:256:l -cache:il2 dl2 base_quicksort1936824267
	sim-cache -cache:dl1 dl1:1:32:256:l -cache:dl2 dl2:1:32:65536:l -cache:il1 il1:1:32:256:l -cache:il2 dl2 base_quicksort1936824267
	sim-bpred -bpred bimod -bpred:bimod 512 base_quicksort1936824267
	sim-bpred -bpred bimod -bpred:bimod 1024 base_quicksort1936824267
	sim-bpred -bpred bimod -bpred:bimod 2048 base_quicksort1936824267
	sim-bpred -bpred 2lev -bpred:2lev 1 512 10 1 base_quicksort1936824267
	sim-bpred -bpred 2lev -bpred:2lev 1 1024 10 1 base_quicksort1936824267
	sim-bpred -bpred 2lev -bpred:2lev 1 2048 10 1 base_quicksort1936824267
	sim-bpred -bpred 2lev -bpred:2lev 1 4096 10 1 base_quicksort1936824267
	sslittle-na-sstrix-gcc -Wall -O3 -funroll-loops -finline-functions  -DRANDOM_SIZE=16384 -DOFFSET=6 -DSORT=base_quicksort sorts/base_quicksort972475589.c simpleMain.c -o base_quicksort1936824267
	sim-cache -cache:dl1 dl1:256:32:1:l -cache:dl2 dl2:131072:32:1:l -cache:il1 il1:256:32:1:l -cache:il2 dl2 base_quicksort1936824267
	sim-cache -cache:dl1 dl1:256:32:1:l -cache:dl2 dl2:65536:32:1:l -cache:il1 il1:256:32:1:l -cache:il2 dl2 base_quicksort1936824267
	sim-cache -cache:dl1 dl1:1:32:256:l -cache:dl2 dl2:1:32:131072:l -cache:il1 il1:1:32:256:l -cache:il2 dl2 base_quicksort1936824267
	sim-cache -cache:dl1 dl1:1:32:256:l -cache:dl2 dl2:1:32:65536:l -cache:il1 il1:1:32:256:l -cache:il2 dl2 base_quicksort1936824267
	sim-bpred -bpred bimod -bpred:bimod 512 base_quicksort1936824267
	sim-bpred -bpred bimod -bpred:bimod 1024 base_quicksort1936824267
	sim-bpred -bpred bimod -bpred:bimod 2048 base_quicksort1936824267
	sim-bpred -bpred 2lev -bpred:2lev 1 512 10 1 base_quicksort1936824267
	sim-bpred -bpred 2lev -bpred:2lev 1 1024 10 1 base_quicksort1936824267
	sim-bpred -bpred 2lev -bpred:2lev 1 2048 10 1 base_quicksort1936824267
	sim-bpred -bpred 2lev -bpred:2lev 1 4096 10 1 base_quicksort1936824267
	sslittle-na-sstrix-gcc -Wall -O3 -funroll-loops -finline-functions  -DRANDOM_SIZE=32768 -DOFFSET=6 -DSORT=base_quicksort sorts/base_quicksort972475589.c simpleMain.c -o base_quicksort1936824267
	sim-cache -cache:dl1 dl1:256:32:1:l -cache:dl2 dl2:131072:32:1:l -cache:il1 il1:256:32:1:l -cache:il2 dl2 base_quicksort1936824267
	sim-cache -cache:dl1 dl1:256:32:1:l -cache:dl2 dl2:65536:32:1:l -cache:il1 il1:256:32:1:l -cache:il2 dl2 base_quicksort1936824267
	sim-cache -cache:dl1 dl1:1:32:256:l -cache:dl2 dl2:1:32:131072:l -cache:il1 il1:1:32:256:l -cache:il2 dl2 base_quicksort1936824267
	sim-cache -cache:dl1 dl1:1:32:256:l -cache:dl2 dl2:1:32:65536:l -cache:il1 il1:1:32:256:l -cache:il2 dl2 base_quicksort1936824267
	sim-bpred -bpred bimod -bpred:bimod 512 base_quicksort1936824267
	sim-bpred -bpred bimod -bpred:bimod 1024 base_quicksort1936824267
	sim-bpred -bpred bimod -bpred:bimod 2048 base_quicksort1936824267
	sim-bpred -bpred 2lev -bpred:2lev 1 512 10 1 base_quicksort1936824267
	sim-bpred -bpred 2lev -bpred:2lev 1 1024 10 1 base_quicksort1936824267
	sim-bpred -bpred 2lev -bpred:2lev 1 2048 10 1 base_quicksort1936824267
	sim-bpred -bpred 2lev -bpred:2lev 1 4096 10 1 base_quicksort1936824267
	sslittle-na-sstrix-gcc -Wall -O3 -funroll-loops -finline-functions  -DRANDOM_SIZE=65536 -DOFFSET=6 -DSORT=base_quicksort sorts/base_quicksort972475589.c simpleMain.c -o base_quicksort1936824267
	sim-cache -cache:dl1 dl1:256:32:1:l -cache:dl2 dl2:131072:32:1:l -cache:il1 il1:256:32:1:l -cache:il2 dl2 base_quicksort1936824267
	sim-cache -cache:dl1 dl1:256:32:1:l -cache:dl2 dl2:65536:32:1:l -cache:il1 il1:256:32:1:l -cache:il2 dl2 base_quicksort1936824267
	sim-cache -cache:dl1 dl1:1:32:256:l -cache:dl2 dl2:1:32:131072:l -cache:il1 il1:1:32:256:l -cache:il2 dl2 base_quicksort1936824267
	sim-cache -cache:dl1 dl1:1:32:256:l -cache:dl2 dl2:1:32:65536:l -cache:il1 il1:1:32:256:l -cache:il2 dl2 base_quicksort1936824267
	sim-bpred -bpred bimod -bpred:bimod 512 base_quicksort1936824267
	sim-bpred -bpred bimod -bpred:bimod 1024 base_quicksort1936824267
	sim-bpred -bpred bimod -bpred:bimod 2048 base_quicksort1936824267
	sim-bpred -bpred 2lev -bpred:2lev 1 512 10 1 base_quicksort1936824267
	sim-bpred -bpred 2lev -bpred:2lev 1 1024 10 1 base_quicksort1936824267
	sim-bpred -bpred 2lev -bpred:2lev 1 2048 10 1 base_quicksort1936824267
	sim-bpred -bpred 2lev -bpred:2lev 1 4096 10 1 base_quicksort1936824267
	sslittle-na-sstrix-gcc -Wall -O3 -funroll-loops -finline-functions  -DRANDOM_SIZE=131072 -DOFFSET=6 -DSORT=base_quicksort sorts/base_quicksort972475589.c simpleMain.c -o base_quicksort1936824267
	sim-cache -cache:dl1 dl1:256:32:1:l -cache:dl2 dl2:131072:32:1:l -cache:il1 il1:256:32:1:l -cache:il2 dl2 base_quicksort1936824267
	sim-cache -cache:dl1 dl1:256:32:1:l -cache:dl2 dl2:65536:32:1:l -cache:il1 il1:256:32:1:l -cache:il2 dl2 base_quicksort1936824267
	sim-cache -cache:dl1 dl1:1:32:256:l -cache:dl2 dl2:1:32:131072:l -cache:il1 il1:1:32:256:l -cache:il2 dl2 base_quicksort1936824267
	sim-cache -cache:dl1 dl1:1:32:256:l -cache:dl2 dl2:1:32:65536:l -cache:il1 il1:1:32:256:l -cache:il2 dl2 base_quicksort1936824267
	sim-bpred -bpred bimod -bpred:bimod 512 base_quicksort1936824267
	sim-bpred -bpred bimod -bpred:bimod 1024 base_quicksort1936824267
	sim-bpred -bpred bimod -bpred:bimod 2048 base_quicksort1936824267
	sim-bpred -bpred 2lev -bpred:2lev 1 512 10 1 base_quicksort1936824267
	sim-bpred -bpred 2lev -bpred:2lev 1 1024 10 1 base_quicksort1936824267
	sim-bpred -bpred 2lev -bpred:2lev 1 2048 10 1 base_quicksort1936824267
	sim-bpred -bpred 2lev -bpred:2lev 1 4096 10 1 base_quicksort1936824267
	sslittle-na-sstrix-gcc -Wall -O3 -funroll-loops -finline-functions  -DRANDOM_SIZE=262144 -DOFFSET=6 -DSORT=base_quicksort sorts/base_quicksort972475589.c simpleMain.c -o base_quicksort1936824267
	sim-cache -cache:dl1 dl1:256:32:1:l -cache:dl2 dl2:131072:32:1:l -cache:il1 il1:256:32:1:l -cache:il2 dl2 base_quicksort1936824267
	sim-cache -cache:dl1 dl1:256:32:1:l -cache:dl2 dl2:65536:32:1:l -cache:il1 il1:256:32:1:l -cache:il2 dl2 base_quicksort1936824267
	sim-cache -cache:dl1 dl1:1:32:256:l -cache:dl2 dl2:1:32:131072:l -cache:il1 il1:1:32:256:l -cache:il2 dl2 base_quicksort1936824267
	sim-cache -cache:dl1 dl1:1:32:256:l -cache:dl2 dl2:1:32:65536:l -cache:il1 il1:1:32:256:l -cache:il2 dl2 base_quicksort1936824267
	sim-bpred -bpred bimod -bpred:bimod 512 base_quicksort1936824267
	sim-bpred -bpred bimod -bpred:bimod 1024 base_quicksort1936824267
	sim-bpred -bpred bimod -bpred:bimod 2048 base_quicksort1936824267
	sim-bpred -bpred 2lev -bpred:2lev 1 512 10 1 base_quicksort1936824267
	sim-bpred -bpred 2lev -bpred:2lev 1 1024 10 1 base_quicksort1936824267
	sim-bpred -bpred 2lev -bpred:2lev 1 2048 10 1 base_quicksort1936824267
	sim-bpred -bpred 2lev -bpred:2lev 1 4096 10 1 base_quicksort1936824267
	sslittle-na-sstrix-gcc -Wall -O3 -funroll-loops -finline-functions  -DRANDOM_SIZE=524288 -DOFFSET=6 -DSORT=base_quicksort sorts/base_quicksort972475589.c simpleMain.c -o base_quicksort1936824267
	sim-cache -cache:dl1 dl1:256:32:1:l -cache:dl2 dl2:131072:32:1:l -cache:il1 il1:256:32:1:l -cache:il2 dl2 base_quicksort1936824267
	sim-cache -cache:dl1 dl1:256:32:1:l -cache:dl2 dl2:65536:32:1:l -cache:il1 il1:256:32:1:l -cache:il2 dl2 base_quicksort1936824267
	sim-cache -cache:dl1 dl1:1:32:256:l -cache:dl2 dl2:1:32:131072:l -cache:il1 il1:1:32:256:l -cache:il2 dl2 base_quicksort1936824267
	sim-cache -cache:dl1 dl1:1:32:256:l -cache:dl2 dl2:1:32:65536:l -cache:il1 il1:1:32:256:l -cache:il2 dl2 base_quicksort1936824267
	sim-bpred -bpred bimod -bpred:bimod 512 base_quicksort1936824267
	sim-bpred -bpred bimod -bpred:bimod 1024 base_quicksort1936824267
	sim-bpred -bpred bimod -bpred:bimod 2048 base_quicksort1936824267
	sim-bpred -bpred 2lev -bpred:2lev 1 512 10 1 base_quicksort1936824267
	sim-bpred -bpred 2lev -bpred:2lev 1 1024 10 1 base_quicksort1936824267
	sim-bpred -bpred 2lev -bpred:2lev 1 2048 10 1 base_quicksort1936824267
	sim-bpred -bpred 2lev -bpred:2lev 1 4096 10 1 base_quicksort1936824267
	sslittle-na-sstrix-gcc -Wall -O3 -funroll-loops -finline-functions  -DRANDOM_SIZE=1048576 -DOFFSET=6 -DSORT=base_quicksort sorts/base_quicksort972475589.c simpleMain.c -o base_quicksort1936824267
	sim-cache -cache:dl1 dl1:256:32:1:l -cache:dl2 dl2:131072:32:1:l -cache:il1 il1:256:32:1:l -cache:il2 dl2 base_quicksort1936824267
	sim-cache -cache:dl1 dl1:256:32:1:l -cache:dl2 dl2:65536:32:1:l -cache:il1 il1:256:32:1:l -cache:il2 dl2 base_quicksort1936824267
	sim-cache -cache:dl1 dl1:1:32:256:l -cache:dl2 dl2:1:32:131072:l -cache:il1 il1:1:32:256:l -cache:il2 dl2 base_quicksort1936824267
	sim-cache -cache:dl1 dl1:1:32:256:l -cache:dl2 dl2:1:32:65536:l -cache:il1 il1:1:32:256:l -cache:il2 dl2 base_quicksort1936824267
	sim-bpred -bpred bimod -bpred:bimod 512 base_quicksort1936824267
	sim-bpred -bpred bimod -bpred:bimod 1024 base_quicksort1936824267
	sim-bpred -bpred bimod -bpred:bimod 2048 base_quicksort1936824267
	sim-bpred -bpred 2lev -bpred:2lev 1 512 10 1 base_quicksort1936824267
	sim-bpred -bpred 2lev -bpred:2lev 1 1024 10 1 base_quicksort1936824267
	sim-bpred -bpred 2lev -bpred:2lev 1 2048 10 1 base_quicksort1936824267
	sim-bpred -bpred 2lev -bpred:2lev 1 4096 10 1 base_quicksort1936824267
	sslittle-na-sstrix-gcc -Wall -O3 -funroll-loops -finline-functions  -DRANDOM_SIZE=2097152 -DOFFSET=6 -DSORT=base_quicksort sorts/base_quicksort972475589.c simpleMain.c -o base_quicksort1936824267
	sim-cache -cache:dl1 dl1:256:32:1:l -cache:dl2 dl2:131072:32:1:l -cache:il1 il1:256:32:1:l -cache:il2 dl2 base_quicksort1936824267
	sim-cache -cache:dl1 dl1:256:32:1:l -cache:dl2 dl2:65536:32:1:l -cache:il1 il1:256:32:1:l -cache:il2 dl2 base_quicksort1936824267
	sim-cache -cache:dl1 dl1:1:32:256:l -cache:dl2 dl2:1:32:131072:l -cache:il1 il1:1:32:256:l -cache:il2 dl2 base_quicksort1936824267
	sim-cache -cache:dl1 dl1:1:32:256:l -cache:dl2 dl2:1:32:65536:l -cache:il1 il1:1:32:256:l -cache:il2 dl2 base_quicksort1936824267
	sim-bpred -bpred bimod -bpred:bimod 512 base_quicksort1936824267
	sim-bpred -bpred bimod -bpred:bimod 1024 base_quicksort1936824267
	sim-bpred -bpred bimod -bpred:bimod 2048 base_quicksort1936824267
	sim-bpred -bpred 2lev -bpred:2lev 1 512 10 1 base_quicksort1936824267
	sim-bpred -bpred 2lev -bpred:2lev 1 1024 10 1 base_quicksort1936824267
	sim-bpred -bpred 2lev -bpred:2lev 1 2048 10 1 base_quicksort1936824267
	sim-bpred -bpred 2lev -bpred:2lev 1 4096 10 1 base_quicksort1936824267
	sslittle-na-sstrix-gcc -Wall -O3 -funroll-loops -finline-functions  -DRANDOM_SIZE=4194304 -DOFFSET=6 -DSORT=base_quicksort sorts/base_quicksort972475589.c simpleMain.c -o base_quicksort1936824267
	sim-cache -cache:dl1 dl1:256:32:1:l -cache:dl2 dl2:131072:32:1:l -cache:il1 il1:256:32:1:l -cache:il2 dl2 base_quicksort1936824267
	sim-cache -cache:dl1 dl1:256:32:1:l -cache:dl2 dl2:65536:32:1:l -cache:il1 il1:256:32:1:l -cache:il2 dl2 base_quicksort1936824267
	sim-cache -cache:dl1 dl1:1:32:256:l -cache:dl2 dl2:1:32:131072:l -cache:il1 il1:1:32:256:l -cache:il2 dl2 base_quicksort1936824267
	sim-cache -cache:dl1 dl1:1:32:256:l -cache:dl2 dl2:1:32:65536:l -cache:il1 il1:1:32:256:l -cache:il2 dl2 base_quicksort1936824267
	sim-bpred -bpred bimod -bpred:bimod 512 base_quicksort1936824267
	sim-bpred -bpred bimod -bpred:bimod 1024 base_quicksort1936824267
	sim-bpred -bpred bimod -bpred:bimod 2048 base_quicksort1936824267
	sim-bpred -bpred 2lev -bpred:2lev 1 512 10 1 base_quicksort1936824267
	sim-bpred -bpred 2lev -bpred:2lev 1 1024 10 1 base_quicksort1936824267
	sim-bpred -bpred 2lev -bpred:2lev 1 2048 10 1 base_quicksort1936824267
	sim-bpred -bpred 2lev -bpred:2lev 1 4096 10 1 base_quicksort1936824267
