Sat Jul 30 01:58:28 2005
Run as: "./do_simple -c random.org8 -o 8 base_quicksort"
-------------------------------------------------------------------------------------------------
sim-cache                                     4096 |         4096 |         4096 |         4096 |         8192 |         8192 |         8192 |         8192 |        16384 |        16384 |        16384 |        16384 |        32768 |        32768 |        32768 |        32768 |        65536 |        65536 |        65536 |        65536 |       131072 |       131072 |       131072 |       131072 |       262144 |       262144 |       262144 |       262144 |       524288 |       524288 |       524288 |       524288 |      1048576 |      1048576 |      1048576 |      1048576 |      2097152 |      2097152 |      2097152 |      2097152 |      4194304 |      4194304 |      4194304 |      4194304 |
-cache:dl1 dl1:256:32:1:l -cache:dl2 dl2:131072:32:1:l -cache:il1 il1:256:32:1:l -cache:il2 dl2
-cache:dl1 dl1:256:32:1:l -cache:dl2 dl2:65536:32:1:l -cache:il1 il1:256:32:1:l -cache:il2 dl2
-cache:dl1 dl1:1:32:256:l -cache:dl2 dl2:1:32:131072:l -cache:il1 il1:1:32:256:l -cache:il2 dl2
-cache:dl1 dl1:1:32:256:l -cache:dl2 dl2:1:32:65536:l -cache:il1 il1:1:32:256:l -cache:il2 dl2
-------------------------------------------------------------------------------------------------
sim_num_insn                                465758 |       465758 |       465758 |       465758 |      1010382 |      1010382 |      1010382 |      1010382 |      2129935 |      2129935 |      2129935 |      2129935 |      4556597 |      4556597 |      4556597 |      4556597 |      9918840 |      9918840 |      9918840 |      9918840 |     20827479 |     20827479 |     20827479 |     20827479 |     44964549 |     44964549 |     44964549 |     44964549 |     94873761 |     94873761 |     94873761 |     94873761 |    198128932 |    198128932 |    198128932 |    198128932 |    417567746 |    417567746 |    417567746 |    417567746 |    869469104 |    869469104 |    869469104 |    869469104 |
sim_num_refs                                124465 |       124465 |       124465 |       124465 |       263663 |       263663 |       263663 |       263663 |       553235 |       553235 |       553235 |       553235 |      1174128 |      1174128 |      1174128 |      1174128 |      2516651 |      2516651 |      2516651 |      2516651 |      5269254 |      5269254 |      5269254 |      5269254 |     11225164 |     11225164 |     11225164 |     11225164 |     23622668 |     23622668 |     23622668 |     23622668 |     49179400 |     49179400 |     49179400 |     49179400 |    103154297 |    103154297 |    103154297 |    103154297 |    214740016 |    214740016 |    214740016 |    214740016 |
sim_elapsed_time                                 1 |            1 |            7 |            3 |            1 |            1 |           10 |            5 |            1 |            1 |           16 |            7 |            1 |            1 |           26 |           14 |            3 |            3 |           47 |           25 |            5 |            6 |           89 |           44 |           12 |           12 |          164 |           77 |           25 |           25 |          282 |          110 |           52 |           52 |          392 |          139 |          110 |          109 |          454 |          201 |          228 |          229 |          581 |          328 |
sim_inst_rate                          465758.0000 |  465758.0000 |   66536.8571 |  155252.6667 | 1010382.0000 | 1010382.0000 |  101038.2000 |  202076.4000 | 2129935.0000 | 2129935.0000 |  133120.9375 |  304276.4286 | 4556597.0000 | 4556597.0000 |  175253.7308 |  325471.2143 | 3306280.0000 | 3306280.0000 |  211039.1489 |  396753.6000 | 4165495.8000 | 3471246.5000 |  234016.6180 |  473351.7955 | 3747045.7500 | 3747045.7500 |  274174.0793 |  583955.1818 | 3794950.4400 | 3794950.4400 |  336431.7766 |  862488.7364 | 3810171.7692 | 3810171.7692 |  505430.9490 | 1425388.0000 | 3796070.4182 | 3830896.7523 |  919752.7445 | 2077451.4726 | 3813460.9825 | 3796808.3144 | 1496504.4819 | 2650820.4390 |
il1.accesses                                465758 |       465758 |       465758 |       465758 |      1010382 |      1010382 |      1010382 |      1010382 |      2129935 |      2129935 |      2129935 |      2129935 |      4556597 |      4556597 |      4556597 |      4556597 |      9918840 |      9918840 |      9918840 |      9918840 |     20827479 |     20827479 |     20827479 |     20827479 |     44964549 |     44964549 |     44964549 |     44964549 |     94873761 |     94873761 |     94873761 |     94873761 |    198128932 |    198128932 |    198128932 |    198128932 |    417567746 |    417567746 |    417567746 |    417567746 |    869469104 |    869469104 |    869469104 |    869469104 |
il1.hits                                    465307 |       465307 |       465338 |       465338 |      1009929 |      1009929 |      1009960 |      1009960 |      2129470 |      2129470 |      2129510 |      2129510 |      4556143 |      4556143 |      4556174 |      4556174 |      9918386 |      9918386 |      9918417 |      9918417 |     20827026 |     20827026 |     20827057 |     20827057 |     44964096 |     44964096 |     44964127 |     44964127 |     94873308 |     94873308 |     94873339 |     94873339 |    198128479 |    198128479 |    198128510 |    198128510 |    417567293 |    417567293 |    417567324 |    417567324 |    869468651 |    869468651 |    869468682 |    869468682 |
il1.misses                                     451 |          451 |          420 |          420 |          453 |          453 |          422 |          422 |          465 |          465 |          425 |          425 |          454 |          454 |          423 |          423 |          454 |          454 |          423 |          423 |          453 |          453 |          422 |          422 |          453 |          453 |          422 |          422 |          453 |          453 |          422 |          422 |          453 |          453 |          422 |          422 |          453 |          453 |          422 |          422 |          453 |          453 |          422 |          422 |
il1.replacements                               213 |          213 |          164 |          164 |          215 |          215 |          166 |          166 |          227 |          227 |          169 |          169 |          216 |          216 |          167 |          167 |          216 |          216 |          167 |          167 |          216 |          216 |          166 |          166 |          216 |          216 |          166 |          166 |          216 |          216 |          166 |          166 |          216 |          216 |          166 |          166 |          216 |          216 |          166 |          166 |          216 |          216 |          166 |          166 |
il1.writebacks                                   0 |            0 |            0 |            0 |            0 |            0 |            0 |            0 |            0 |            0 |            0 |            0 |            0 |            0 |            0 |            0 |            0 |            0 |            0 |            0 |            0 |            0 |            0 |            0 |            0 |            0 |            0 |            0 |            0 |            0 |            0 |            0 |            0 |            0 |            0 |            0 |            0 |            0 |            0 |            0 |            0 |            0 |            0 |            0 |
il1.invalidations                                0 |            0 |            0 |            0 |            0 |            0 |            0 |            0 |            0 |            0 |            0 |            0 |            0 |            0 |            0 |            0 |            0 |            0 |            0 |            0 |            0 |            0 |            0 |            0 |            0 |            0 |            0 |            0 |            0 |            0 |            0 |            0 |            0 |            0 |            0 |            0 |            0 |            0 |            0 |            0 |            0 |            0 |            0 |            0 |
il1.miss_rate                               0.0010 |       0.0010 |       0.0009 |       0.0009 |       0.0004 |       0.0004 |       0.0004 |       0.0004 |       0.0002 |       0.0002 |       0.0002 |       0.0002 |       0.0001 |       0.0001 |       0.0001 |       0.0001 |       0.0000 |       0.0000 |       0.0000 |       0.0000 |       0.0000 |       0.0000 |       0.0000 |       0.0000 |       0.0000 |       0.0000 |       0.0000 |       0.0000 |       0.0000 |       0.0000 |       0.0000 |       0.0000 |       0.0000 |       0.0000 |       0.0000 |       0.0000 |       0.0000 |       0.0000 |       0.0000 |       0.0000 |       0.0000 |       0.0000 |       0.0000 |       0.0000 |
il1.repl_rate                               0.0005 |       0.0005 |       0.0004 |       0.0004 |       0.0002 |       0.0002 |       0.0002 |       0.0002 |       0.0001 |       0.0001 |       0.0001 |       0.0001 |       0.0000 |       0.0000 |       0.0000 |       0.0000 |       0.0000 |       0.0000 |       0.0000 |       0.0000 |       0.0000 |       0.0000 |       0.0000 |       0.0000 |       0.0000 |       0.0000 |       0.0000 |       0.0000 |       0.0000 |       0.0000 |       0.0000 |       0.0000 |       0.0000 |       0.0000 |       0.0000 |       0.0000 |       0.0000 |       0.0000 |       0.0000 |       0.0000 |       0.0000 |       0.0000 |       0.0000 |       0.0000 |
il1.wb_rate                                 0.0000 |       0.0000 |       0.0000 |       0.0000 |       0.0000 |       0.0000 |       0.0000 |       0.0000 |       0.0000 |       0.0000 |       0.0000 |       0.0000 |       0.0000 |       0.0000 |       0.0000 |       0.0000 |       0.0000 |       0.0000 |       0.0000 |       0.0000 |       0.0000 |       0.0000 |       0.0000 |       0.0000 |       0.0000 |       0.0000 |       0.0000 |       0.0000 |       0.0000 |       0.0000 |       0.0000 |       0.0000 |       0.0000 |       0.0000 |       0.0000 |       0.0000 |       0.0000 |       0.0000 |       0.0000 |       0.0000 |       0.0000 |       0.0000 |       0.0000 |       0.0000 |
il1.inv_rate                                0.0000 |       0.0000 |       0.0000 |       0.0000 |       0.0000 |       0.0000 |       0.0000 |       0.0000 |       0.0000 |       0.0000 |       0.0000 |       0.0000 |       0.0000 |       0.0000 |       0.0000 |       0.0000 |       0.0000 |       0.0000 |       0.0000 |       0.0000 |       0.0000 |       0.0000 |       0.0000 |       0.0000 |       0.0000 |       0.0000 |       0.0000 |       0.0000 |       0.0000 |       0.0000 |       0.0000 |       0.0000 |       0.0000 |       0.0000 |       0.0000 |       0.0000 |       0.0000 |       0.0000 |       0.0000 |       0.0000 |       0.0000 |       0.0000 |       0.0000 |       0.0000 |
dl1.accesses                                140931 |       140931 |       140931 |       140931 |       296513 |       296513 |       296513 |       296513 |       618853 |       618853 |       618853 |       618853 |      1305282 |      1305282 |      1305282 |      1305282 |      2778877 |      2778877 |      2778877 |      2778877 |      5793624 |      5793624 |      5793624 |      5793624 |     12273822 |     12273822 |     12273822 |     12273822 |     25719902 |     25719902 |     25719902 |     25719902 |     53373786 |     53373786 |     53373786 |     53373786 |    111542987 |    111542987 |    111542987 |    111542987 |    231517314 |    231517314 |    231517314 |    231517314 |
dl1.hits                                    138248 |       138248 |       138271 |       138271 |       290329 |       290329 |       290354 |       290354 |       605419 |       605419 |       605472 |       605472 |      1274105 |      1274105 |      1273601 |      1273601 |      2701248 |      2701248 |      2701748 |      2701748 |      5625250 |      5625250 |      5626122 |      5626122 |     11878132 |     11878132 |     11879686 |     11879686 |     24847179 |     24847179 |     24853658 |     24853658 |     51503427 |     51503427 |     51518324 |     51518324 |    107435069 |    107435069 |    107476111 |    107476111 |    222783279 |    222783279 |    222873396 |    222873396 |
dl1.misses                                    2683 |         2683 |         2660 |         2660 |         6184 |         6184 |         6159 |         6159 |        13434 |        13434 |        13381 |        13381 |        31177 |        31177 |        31681 |        31681 |        77629 |        77629 |        77129 |        77129 |       168374 |       168374 |       167502 |       167502 |       395690 |       395690 |       394136 |       394136 |       872723 |       872723 |       866244 |       866244 |      1870359 |      1870359 |      1855462 |      1855462 |      4107918 |      4107918 |      4066876 |      4066876 |      8734035 |      8734035 |      8643918 |      8643918 |
dl1.replacements                              2427 |         2427 |         2404 |         2404 |         5928 |         5928 |         5903 |         5903 |        13178 |        13178 |        13125 |        13125 |        30921 |        30921 |        31425 |        31425 |        77373 |        77373 |        76873 |        76873 |       168118 |       168118 |       167246 |       167246 |       395434 |       395434 |       393880 |       393880 |       872467 |       872467 |       865988 |       865988 |      1870103 |      1870103 |      1855206 |      1855206 |      4107662 |      4107662 |      4066620 |      4066620 |      8733779 |      8733779 |      8643662 |      8643662 |
dl1.writebacks                                2368 |         2368 |         2360 |         2360 |         5672 |         5672 |         5683 |         5683 |        12842 |        12842 |        12874 |        12874 |        29816 |        29816 |        30479 |        30479 |        69780 |        69780 |        69891 |        69891 |       156390 |       156390 |       157089 |       157089 |       356489 |       356489 |       357921 |       357921 |       769672 |       769672 |       770793 |       770793 |      1704273 |      1704273 |      1706483 |      1706483 |      3696253 |      3696253 |      3694250 |      3694250 |      7862256 |      7862256 |      7858337 |      7858337 |
dl1.invalidations                                0 |            0 |            0 |            0 |            0 |            0 |            0 |            0 |            0 |            0 |            0 |            0 |            0 |            0 |            0 |            0 |            0 |            0 |            0 |            0 |            0 |            0 |            0 |            0 |            0 |            0 |            0 |            0 |            0 |            0 |            0 |            0 |            0 |            0 |            0 |            0 |            0 |            0 |            0 |            0 |            0 |            0 |            0 |            0 |
dl1.miss_rate                               0.0190 |       0.0190 |       0.0189 |       0.0189 |       0.0209 |       0.0209 |       0.0208 |       0.0208 |       0.0217 |       0.0217 |       0.0216 |       0.0216 |       0.0239 |       0.0239 |       0.0243 |       0.0243 |       0.0279 |       0.0279 |       0.0278 |       0.0278 |       0.0291 |       0.0291 |       0.0289 |       0.0289 |       0.0322 |       0.0322 |       0.0321 |       0.0321 |       0.0339 |       0.0339 |       0.0337 |       0.0337 |       0.0350 |       0.0350 |       0.0348 |       0.0348 |       0.0368 |       0.0368 |       0.0365 |       0.0365 |       0.0377 |       0.0377 |       0.0373 |       0.0373 |
dl1.repl_rate                               0.0172 |       0.0172 |       0.0171 |       0.0171 |       0.0200 |       0.0200 |       0.0199 |       0.0199 |       0.0213 |       0.0213 |       0.0212 |       0.0212 |       0.0237 |       0.0237 |       0.0241 |       0.0241 |       0.0278 |       0.0278 |       0.0277 |       0.0277 |       0.0290 |       0.0290 |       0.0289 |       0.0289 |       0.0322 |       0.0322 |       0.0321 |       0.0321 |       0.0339 |       0.0339 |       0.0337 |       0.0337 |       0.0350 |       0.0350 |       0.0348 |       0.0348 |       0.0368 |       0.0368 |       0.0365 |       0.0365 |       0.0377 |       0.0377 |       0.0373 |       0.0373 |
dl1.wb_rate                                 0.0168 |       0.0168 |       0.0167 |       0.0167 |       0.0191 |       0.0191 |       0.0192 |       0.0192 |       0.0208 |       0.0208 |       0.0208 |       0.0208 |       0.0228 |       0.0228 |       0.0234 |       0.0234 |       0.0251 |       0.0251 |       0.0252 |       0.0252 |       0.0270 |       0.0270 |       0.0271 |       0.0271 |       0.0290 |       0.0290 |       0.0292 |       0.0292 |       0.0299 |       0.0299 |       0.0300 |       0.0300 |       0.0319 |       0.0319 |       0.0320 |       0.0320 |       0.0331 |       0.0331 |       0.0331 |       0.0331 |       0.0340 |       0.0340 |       0.0339 |       0.0339 |
dl1.inv_rate                                0.0000 |       0.0000 |       0.0000 |       0.0000 |       0.0000 |       0.0000 |       0.0000 |       0.0000 |       0.0000 |       0.0000 |       0.0000 |       0.0000 |       0.0000 |       0.0000 |       0.0000 |       0.0000 |       0.0000 |       0.0000 |       0.0000 |       0.0000 |       0.0000 |       0.0000 |       0.0000 |       0.0000 |       0.0000 |       0.0000 |       0.0000 |       0.0000 |       0.0000 |       0.0000 |       0.0000 |       0.0000 |       0.0000 |       0.0000 |       0.0000 |       0.0000 |       0.0000 |       0.0000 |       0.0000 |       0.0000 |       0.0000 |       0.0000 |       0.0000 |       0.0000 |
dl2.accesses                                  5502 |         5502 |         5440 |         5440 |        12309 |        12309 |        12264 |        12264 |        26741 |        26741 |        26680 |        26680 |        61447 |        61447 |        62583 |        62583 |       147863 |       147863 |       147443 |       147443 |       325217 |       325217 |       325013 |       325013 |       752632 |       752632 |       752479 |       752479 |      1642848 |      1642848 |      1637459 |      1637459 |      3575085 |      3575085 |      3562367 |      3562367 |      7804624 |      7804624 |      7761548 |      7761548 |     16596744 |     16596744 |     16502677 |     16502677 |
dl2.hits                                      4137 |         4137 |         4085 |         4085 |        10430 |        10430 |        10395 |        10395 |        23839 |        23839 |        23793 |        23793 |        56503 |        56503 |        57649 |        57649 |       138822 |       138822 |       138412 |       138412 |       307985 |       307985 |       307791 |       307791 |       719016 |       719016 |       718873 |       718873 |      1576464 |      1575716 |      1571085 |      1524924 |      3442403 |      3077625 |      3402758 |      3041214 |      6805278 |      6391429 |      6665897 |      6294991 |     13934756 |     13146123 |     13638817 |     12912630 |
dl2.misses                                    1365 |         1365 |         1355 |         1355 |         1879 |         1879 |         1869 |         1869 |         2902 |         2902 |         2887 |         2887 |         4944 |         4944 |         4934 |         4934 |         9041 |         9041 |         9031 |         9031 |        17232 |        17232 |        17222 |        17222 |        33616 |        33616 |        33606 |        33606 |        66384 |        67132 |        66374 |       112535 |       132682 |       497460 |       159609 |       521153 |       999346 |      1413195 |      1095651 |      1466557 |      2661988 |      3450621 |      2863860 |      3590047 |
dl2.replacements                               144 |          144 |            0 |            0 |          144 |          144 |            0 |            0 |          150 |          150 |            0 |            0 |          144 |          144 |            0 |            0 |          144 |          144 |            0 |            0 |          144 |          144 |            0 |            0 |          144 |          144 |            0 |            0 |          144 |         1596 |            0 |        46999 |         1610 |       431924 |        28537 |       455617 |       868274 |      1347659 |       964579 |      1401021 |      2530916 |      3385085 |      2732788 |      3524511 |
dl2.writebacks                                  88 |           88 |            0 |            0 |           88 |           88 |            0 |            0 |           89 |           89 |            0 |            0 |           88 |           88 |            0 |            0 |           88 |           88 |            0 |            0 |           88 |           88 |            0 |            0 |           88 |           88 |            0 |            0 |           88 |         1286 |            0 |        46706 |         1295 |       418657 |        28244 |       441512 |       842008 |      1258986 |       936750 |      1310767 |      2387047 |      3117853 |      2586711 |      3245287 |
dl2.invalidations                                0 |            0 |            0 |            0 |            0 |            0 |            0 |            0 |            0 |            0 |            0 |            0 |            0 |            0 |            0 |            0 |            0 |            0 |            0 |            0 |            0 |            0 |            0 |            0 |            0 |            0 |            0 |            0 |            0 |            0 |            0 |            0 |            0 |            0 |            0 |            0 |            0 |            0 |            0 |            0 |            0 |            0 |            0 |            0 |
dl2.miss_rate                               0.2481 |       0.2481 |       0.2491 |       0.2491 |       0.1527 |       0.1527 |       0.1524 |       0.1524 |       0.1085 |       0.1085 |       0.1082 |       0.1082 |       0.0805 |       0.0805 |       0.0788 |       0.0788 |       0.0611 |       0.0611 |       0.0613 |       0.0613 |       0.0530 |       0.0530 |       0.0530 |       0.0530 |       0.0447 |       0.0447 |       0.0447 |       0.0447 |       0.0404 |       0.0409 |       0.0405 |       0.0687 |       0.0371 |       0.1391 |       0.0448 |       0.1463 |       0.1280 |       0.1811 |       0.1412 |       0.1890 |       0.1604 |       0.2079 |       0.1735 |       0.2175 |
dl2.repl_rate                               0.0262 |       0.0262 |       0.0000 |       0.0000 |       0.0117 |       0.0117 |       0.0000 |       0.0000 |       0.0056 |       0.0056 |       0.0000 |       0.0000 |       0.0023 |       0.0023 |       0.0000 |       0.0000 |       0.0010 |       0.0010 |       0.0000 |       0.0000 |       0.0004 |       0.0004 |       0.0000 |       0.0000 |       0.0002 |       0.0002 |       0.0000 |       0.0000 |       0.0001 |       0.0010 |       0.0000 |       0.0287 |       0.0005 |       0.1208 |       0.0080 |       0.1279 |       0.1113 |       0.1727 |       0.1243 |       0.1805 |       0.1525 |       0.2040 |       0.1656 |       0.2136 |
dl2.wb_rate                                 0.0160 |       0.0160 |       0.0000 |       0.0000 |       0.0071 |       0.0071 |       0.0000 |       0.0000 |       0.0033 |       0.0033 |       0.0000 |       0.0000 |       0.0014 |       0.0014 |       0.0000 |       0.0000 |       0.0006 |       0.0006 |       0.0000 |       0.0000 |       0.0003 |       0.0003 |       0.0000 |       0.0000 |       0.0001 |       0.0001 |       0.0000 |       0.0000 |       0.0001 |       0.0008 |       0.0000 |       0.0285 |       0.0004 |       0.1171 |       0.0079 |       0.1239 |       0.1079 |       0.1613 |       0.1207 |       0.1689 |       0.1438 |       0.1879 |       0.1567 |       0.1967 |
dl2.inv_rate                                0.0000 |       0.0000 |       0.0000 |       0.0000 |       0.0000 |       0.0000 |       0.0000 |       0.0000 |       0.0000 |       0.0000 |       0.0000 |       0.0000 |       0.0000 |       0.0000 |       0.0000 |       0.0000 |       0.0000 |       0.0000 |       0.0000 |       0.0000 |       0.0000 |       0.0000 |       0.0000 |       0.0000 |       0.0000 |       0.0000 |       0.0000 |       0.0000 |       0.0000 |       0.0000 |       0.0000 |       0.0000 |       0.0000 |       0.0000 |       0.0000 |       0.0000 |       0.0000 |       0.0000 |       0.0000 |       0.0000 |       0.0000 |       0.0000 |       0.0000 |       0.0000 |
itlb.accesses                               465758 |       465758 |       465758 |       465758 |      1010382 |      1010382 |      1010382 |      1010382 |      2129935 |      2129935 |      2129935 |      2129935 |      4556597 |      4556597 |      4556597 |      4556597 |      9918840 |      9918840 |      9918840 |      9918840 |     20827479 |     20827479 |     20827479 |     20827479 |     44964549 |     44964549 |     44964549 |     44964549 |     94873761 |     94873761 |     94873761 |     94873761 |    198128932 |    198128932 |    198128932 |    198128932 |    417567746 |    417567746 |    417567746 |    417567746 |    869469104 |    869469104 |    869469104 |    869469104 |
itlb.hits                                   465748 |       465748 |       465748 |       465748 |      1010372 |      1010372 |      1010372 |      1010372 |      2129925 |      2129925 |      2129925 |      2129925 |      4556587 |      4556587 |      4556587 |      4556587 |      9918830 |      9918830 |      9918830 |      9918830 |     20827469 |     20827469 |     20827469 |     20827469 |     44964539 |     44964539 |     44964539 |     44964539 |     94873751 |     94873751 |     94873751 |     94873751 |    198128922 |    198128922 |    198128922 |    198128922 |    417567736 |    417567736 |    417567736 |    417567736 |    869469094 |    869469094 |    869469094 |    869469094 |
itlb.misses                                     10 |           10 |           10 |           10 |           10 |           10 |           10 |           10 |           10 |           10 |           10 |           10 |           10 |           10 |           10 |           10 |           10 |           10 |           10 |           10 |           10 |           10 |           10 |           10 |           10 |           10 |           10 |           10 |           10 |           10 |           10 |           10 |           10 |           10 |           10 |           10 |           10 |           10 |           10 |           10 |           10 |           10 |           10 |           10 |
itlb.replacements                                0 |            0 |            0 |            0 |            0 |            0 |            0 |            0 |            0 |            0 |            0 |            0 |            0 |            0 |            0 |            0 |            0 |            0 |            0 |            0 |            0 |            0 |            0 |            0 |            0 |            0 |            0 |            0 |            0 |            0 |            0 |            0 |            0 |            0 |            0 |            0 |            0 |            0 |            0 |            0 |            0 |            0 |            0 |            0 |
itlb.writebacks                                  0 |            0 |            0 |            0 |            0 |            0 |            0 |            0 |            0 |            0 |            0 |            0 |            0 |            0 |            0 |            0 |            0 |            0 |            0 |            0 |            0 |            0 |            0 |            0 |            0 |            0 |            0 |            0 |            0 |            0 |            0 |            0 |            0 |            0 |            0 |            0 |            0 |            0 |            0 |            0 |            0 |            0 |            0 |            0 |
itlb.invalidations                               0 |            0 |            0 |            0 |            0 |            0 |            0 |            0 |            0 |            0 |            0 |            0 |            0 |            0 |            0 |            0 |            0 |            0 |            0 |            0 |            0 |            0 |            0 |            0 |            0 |            0 |            0 |            0 |            0 |            0 |            0 |            0 |            0 |            0 |            0 |            0 |            0 |            0 |            0 |            0 |            0 |            0 |            0 |            0 |
itlb.miss_rate                              0.0000 |       0.0000 |       0.0000 |       0.0000 |       0.0000 |       0.0000 |       0.0000 |       0.0000 |       0.0000 |       0.0000 |       0.0000 |       0.0000 |       0.0000 |       0.0000 |       0.0000 |       0.0000 |       0.0000 |       0.0000 |       0.0000 |       0.0000 |       0.0000 |       0.0000 |       0.0000 |       0.0000 |       0.0000 |       0.0000 |       0.0000 |       0.0000 |       0.0000 |       0.0000 |       0.0000 |       0.0000 |       0.0000 |       0.0000 |       0.0000 |       0.0000 |       0.0000 |       0.0000 |       0.0000 |       0.0000 |       0.0000 |       0.0000 |       0.0000 |       0.0000 |
itlb.repl_rate                              0.0000 |       0.0000 |       0.0000 |       0.0000 |       0.0000 |       0.0000 |       0.0000 |       0.0000 |       0.0000 |       0.0000 |       0.0000 |       0.0000 |       0.0000 |       0.0000 |       0.0000 |       0.0000 |       0.0000 |       0.0000 |       0.0000 |       0.0000 |       0.0000 |       0.0000 |       0.0000 |       0.0000 |       0.0000 |       0.0000 |       0.0000 |       0.0000 |       0.0000 |       0.0000 |       0.0000 |       0.0000 |       0.0000 |       0.0000 |       0.0000 |       0.0000 |       0.0000 |       0.0000 |       0.0000 |       0.0000 |       0.0000 |       0.0000 |       0.0000 |       0.0000 |
itlb.wb_rate                                0.0000 |       0.0000 |       0.0000 |       0.0000 |       0.0000 |       0.0000 |       0.0000 |       0.0000 |       0.0000 |       0.0000 |       0.0000 |       0.0000 |       0.0000 |       0.0000 |       0.0000 |       0.0000 |       0.0000 |       0.0000 |       0.0000 |       0.0000 |       0.0000 |       0.0000 |       0.0000 |       0.0000 |       0.0000 |       0.0000 |       0.0000 |       0.0000 |       0.0000 |       0.0000 |       0.0000 |       0.0000 |       0.0000 |       0.0000 |       0.0000 |       0.0000 |       0.0000 |       0.0000 |       0.0000 |       0.0000 |       0.0000 |       0.0000 |       0.0000 |       0.0000 |
itlb.inv_rate                               0.0000 |       0.0000 |       0.0000 |       0.0000 |       0.0000 |       0.0000 |       0.0000 |       0.0000 |       0.0000 |       0.0000 |       0.0000 |       0.0000 |       0.0000 |       0.0000 |       0.0000 |       0.0000 |       0.0000 |       0.0000 |       0.0000 |       0.0000 |       0.0000 |       0.0000 |       0.0000 |       0.0000 |       0.0000 |       0.0000 |       0.0000 |       0.0000 |       0.0000 |       0.0000 |       0.0000 |       0.0000 |       0.0000 |       0.0000 |       0.0000 |       0.0000 |       0.0000 |       0.0000 |       0.0000 |       0.0000 |       0.0000 |       0.0000 |       0.0000 |       0.0000 |
dtlb.accesses                               140931 |       140931 |       140931 |       140931 |       296513 |       296513 |       296513 |       296513 |       618853 |       618853 |       618853 |       618853 |      1305282 |      1305282 |      1305282 |      1305282 |      2778877 |      2778877 |      2778877 |      2778877 |      5793624 |      5793624 |      5793624 |      5793624 |     12273822 |     12273822 |     12273822 |     12273822 |     25719902 |     25719902 |     25719902 |     25719902 |     53373786 |     53373786 |     53373786 |     53373786 |    111542987 |    111542987 |    111542987 |    111542987 |    231517314 |    231517314 |    231517314 |    231517314 |
dtlb.hits                                   140919 |       140919 |       140919 |       140919 |       296497 |       296497 |       296497 |       296497 |       618829 |       618829 |       618829 |       618829 |      1305242 |      1305242 |      1305242 |      1305242 |      2778805 |      2778805 |      2778805 |      2778805 |      5793452 |      5793452 |      5793452 |      5793452 |     12272623 |     12272623 |     12272623 |     12272623 |     25716800 |     25716800 |     25716800 |     25716800 |     53366775 |     53366775 |     53366775 |     53366775 |    111526121 |    111526121 |    111526121 |    111526121 |    231479251 |    231479251 |    231479251 |    231479251 |
dtlb.misses                                     12 |           12 |           12 |           12 |           16 |           16 |           16 |           16 |           24 |           24 |           24 |           24 |           40 |           40 |           40 |           40 |           72 |           72 |           72 |           72 |          172 |          172 |          172 |          172 |         1199 |         1199 |         1199 |         1199 |         3102 |         3102 |         3102 |         3102 |         7011 |         7011 |         7011 |         7011 |        16866 |        16866 |        16866 |        16866 |        38063 |        38063 |        38063 |        38063 |
dtlb.replacements                                0 |            0 |            0 |            0 |            0 |            0 |            0 |            0 |            0 |            0 |            0 |            0 |            0 |            0 |            0 |            0 |            0 |            0 |            0 |            0 |           44 |           44 |           44 |           44 |         1071 |         1071 |         1071 |         1071 |         2974 |         2974 |         2974 |         2974 |         6883 |         6883 |         6883 |         6883 |        16738 |        16738 |        16738 |        16738 |        37935 |        37935 |        37935 |        37935 |
dtlb.writebacks                                  0 |            0 |            0 |            0 |            0 |            0 |            0 |            0 |            0 |            0 |            0 |            0 |            0 |            0 |            0 |            0 |            0 |            0 |            0 |            0 |           42 |           42 |           42 |           42 |         1069 |         1069 |         1069 |         1069 |         2972 |         2972 |         2972 |         2972 |         6881 |         6881 |         6881 |         6881 |        16736 |        16736 |        16736 |        16736 |        37933 |        37933 |        37933 |        37933 |
dtlb.invalidations                               0 |            0 |            0 |            0 |            0 |            0 |            0 |            0 |            0 |            0 |            0 |            0 |            0 |            0 |            0 |            0 |            0 |            0 |            0 |            0 |            0 |            0 |            0 |            0 |            0 |            0 |            0 |            0 |            0 |            0 |            0 |            0 |            0 |            0 |            0 |            0 |            0 |            0 |            0 |            0 |            0 |            0 |            0 |            0 |
dtlb.miss_rate                              0.0001 |       0.0001 |       0.0001 |       0.0001 |       0.0001 |       0.0001 |       0.0001 |       0.0001 |       0.0000 |       0.0000 |       0.0000 |       0.0000 |       0.0000 |       0.0000 |       0.0000 |       0.0000 |       0.0000 |       0.0000 |       0.0000 |       0.0000 |       0.0000 |       0.0000 |       0.0000 |       0.0000 |       0.0001 |       0.0001 |       0.0001 |       0.0001 |       0.0001 |       0.0001 |       0.0001 |       0.0001 |       0.0001 |       0.0001 |       0.0001 |       0.0001 |       0.0002 |       0.0002 |       0.0002 |       0.0002 |       0.0002 |       0.0002 |       0.0002 |       0.0002 |
dtlb.repl_rate                              0.0000 |       0.0000 |       0.0000 |       0.0000 |       0.0000 |       0.0000 |       0.0000 |       0.0000 |       0.0000 |       0.0000 |       0.0000 |       0.0000 |       0.0000 |       0.0000 |       0.0000 |       0.0000 |       0.0000 |       0.0000 |       0.0000 |       0.0000 |       0.0000 |       0.0000 |       0.0000 |       0.0000 |       0.0001 |       0.0001 |       0.0001 |       0.0001 |       0.0001 |       0.0001 |       0.0001 |       0.0001 |       0.0001 |       0.0001 |       0.0001 |       0.0001 |       0.0002 |       0.0002 |       0.0002 |       0.0002 |       0.0002 |       0.0002 |       0.0002 |       0.0002 |
dtlb.wb_rate                                0.0000 |       0.0000 |       0.0000 |       0.0000 |       0.0000 |       0.0000 |       0.0000 |       0.0000 |       0.0000 |       0.0000 |       0.0000 |       0.0000 |       0.0000 |       0.0000 |       0.0000 |       0.0000 |       0.0000 |       0.0000 |       0.0000 |       0.0000 |       0.0000 |       0.0000 |       0.0000 |       0.0000 |       0.0001 |       0.0001 |       0.0001 |       0.0001 |       0.0001 |       0.0001 |       0.0001 |       0.0001 |       0.0001 |       0.0001 |       0.0001 |       0.0001 |       0.0002 |       0.0002 |       0.0002 |       0.0002 |       0.0002 |       0.0002 |       0.0002 |       0.0002 |
dtlb.inv_rate                               0.0000 |       0.0000 |       0.0000 |       0.0000 |       0.0000 |       0.0000 |       0.0000 |       0.0000 |       0.0000 |       0.0000 |       0.0000 |       0.0000 |       0.0000 |       0.0000 |       0.0000 |       0.0000 |       0.0000 |       0.0000 |       0.0000 |       0.0000 |       0.0000 |       0.0000 |       0.0000 |       0.0000 |       0.0000 |       0.0000 |       0.0000 |       0.0000 |       0.0000 |       0.0000 |       0.0000 |       0.0000 |       0.0000 |       0.0000 |       0.0000 |       0.0000 |       0.0000 |       0.0000 |       0.0000 |       0.0000 |       0.0000 |       0.0000 |       0.0000 |       0.0000 |
ld_text_base                            0x00400000 |   0x00400000 |   0x00400000 |   0x00400000 |   0x00400000 |   0x00400000 |   0x00400000 |   0x00400000 |   0x00400000 |   0x00400000 |   0x00400000 |   0x00400000 |   0x00400000 |   0x00400000 |   0x00400000 |   0x00400000 |   0x00400000 |   0x00400000 |   0x00400000 |   0x00400000 |   0x00400000 |   0x00400000 |   0x00400000 |   0x00400000 |   0x00400000 |   0x00400000 |   0x00400000 |   0x00400000 |   0x00400000 |   0x00400000 |   0x00400000 |   0x00400000 |   0x00400000 |   0x00400000 |   0x00400000 |   0x00400000 |   0x00400000 |   0x00400000 |   0x00400000 |   0x00400000 |   0x00400000 |   0x00400000 |   0x00400000 |   0x00400000 |
ld_text_size                                 73456 |        73456 |        73456 |        73456 |        73488 |        73488 |        73488 |        73488 |        73504 |        73504 |        73504 |        73504 |        73520 |        73520 |        73520 |        73520 |        73520 |        73520 |        73520 |        73520 |        73520 |        73520 |        73520 |        73520 |        73520 |        73520 |        73520 |        73520 |        73520 |        73520 |        73520 |        73520 |        73520 |        73520 |        73520 |        73520 |        73520 |        73520 |        73520 |        73520 |        73520 |        73520 |        73520 |        73520 |
ld_data_base                            0x10000000 |   0x10000000 |   0x10000000 |   0x10000000 |   0x10000000 |   0x10000000 |   0x10000000 |   0x10000000 |   0x10000000 |   0x10000000 |   0x10000000 |   0x10000000 |   0x10000000 |   0x10000000 |   0x10000000 |   0x10000000 |   0x10000000 |   0x10000000 |   0x10000000 |   0x10000000 |   0x10000000 |   0x10000000 |   0x10000000 |   0x10000000 |   0x10000000 |   0x10000000 |   0x10000000 |   0x10000000 |   0x10000000 |   0x10000000 |   0x10000000 |   0x10000000 |   0x10000000 |   0x10000000 |   0x10000000 |   0x10000000 |   0x10000000 |   0x10000000 |   0x10000000 |   0x10000000 |   0x10000000 |   0x10000000 |   0x10000000 |   0x10000000 |
ld_data_size                                  8192 |         8192 |         8192 |         8192 |         8192 |         8192 |         8192 |         8192 |         8192 |         8192 |         8192 |         8192 |         8192 |         8192 |         8192 |         8192 |         8192 |         8192 |         8192 |         8192 |         8192 |         8192 |         8192 |         8192 |         8192 |         8192 |         8192 |         8192 |         8192 |         8192 |         8192 |         8192 |         8192 |         8192 |         8192 |         8192 |         8192 |         8192 |         8192 |         8192 |         8192 |         8192 |         8192 |         8192 |
ld_stack_base                           0x7fffc000 |   0x7fffc000 |   0x7fffc000 |   0x7fffc000 |   0x7fffc000 |   0x7fffc000 |   0x7fffc000 |   0x7fffc000 |   0x7fffc000 |   0x7fffc000 |   0x7fffc000 |   0x7fffc000 |   0x7fffc000 |   0x7fffc000 |   0x7fffc000 |   0x7fffc000 |   0x7fffc000 |   0x7fffc000 |   0x7fffc000 |   0x7fffc000 |   0x7fffc000 |   0x7fffc000 |   0x7fffc000 |   0x7fffc000 |   0x7fffc000 |   0x7fffc000 |   0x7fffc000 |   0x7fffc000 |   0x7fffc000 |   0x7fffc000 |   0x7fffc000 |   0x7fffc000 |   0x7fffc000 |   0x7fffc000 |   0x7fffc000 |   0x7fffc000 |   0x7fffc000 |   0x7fffc000 |   0x7fffc000 |   0x7fffc000 |   0x7fffc000 |   0x7fffc000 |   0x7fffc000 |   0x7fffc000 |
ld_stack_size                                16384 |        16384 |        16384 |        16384 |        16384 |        16384 |        16384 |        16384 |        16384 |        16384 |        16384 |        16384 |        16384 |        16384 |        16384 |        16384 |        16384 |        16384 |        16384 |        16384 |        16384 |        16384 |        16384 |        16384 |        16384 |        16384 |        16384 |        16384 |        16384 |        16384 |        16384 |        16384 |        16384 |        16384 |        16384 |        16384 |        16384 |        16384 |        16384 |        16384 |        16384 |        16384 |        16384 |        16384 |
ld_prog_entry                           0x00400140 |   0x00400140 |   0x00400140 |   0x00400140 |   0x00400140 |   0x00400140 |   0x00400140 |   0x00400140 |   0x00400140 |   0x00400140 |   0x00400140 |   0x00400140 |   0x00400140 |   0x00400140 |   0x00400140 |   0x00400140 |   0x00400140 |   0x00400140 |   0x00400140 |   0x00400140 |   0x00400140 |   0x00400140 |   0x00400140 |   0x00400140 |   0x00400140 |   0x00400140 |   0x00400140 |   0x00400140 |   0x00400140 |   0x00400140 |   0x00400140 |   0x00400140 |   0x00400140 |   0x00400140 |   0x00400140 |   0x00400140 |   0x00400140 |   0x00400140 |   0x00400140 |   0x00400140 |   0x00400140 |   0x00400140 |   0x00400140 |   0x00400140 |
ld_environ_base                         0x7fff8000 |   0x7fff8000 |   0x7fff8000 |   0x7fff8000 |   0x7fff8000 |   0x7fff8000 |   0x7fff8000 |   0x7fff8000 |   0x7fff8000 |   0x7fff8000 |   0x7fff8000 |   0x7fff8000 |   0x7fff8000 |   0x7fff8000 |   0x7fff8000 |   0x7fff8000 |   0x7fff8000 |   0x7fff8000 |   0x7fff8000 |   0x7fff8000 |   0x7fff8000 |   0x7fff8000 |   0x7fff8000 |   0x7fff8000 |   0x7fff8000 |   0x7fff8000 |   0x7fff8000 |   0x7fff8000 |   0x7fff8000 |   0x7fff8000 |   0x7fff8000 |   0x7fff8000 |   0x7fff8000 |   0x7fff8000 |   0x7fff8000 |   0x7fff8000 |   0x7fff8000 |   0x7fff8000 |   0x7fff8000 |   0x7fff8000 |   0x7fff8000 |   0x7fff8000 |   0x7fff8000 |   0x7fff8000 |
ld_target_big_endian                             0 |            0 |            0 |            0 |            0 |            0 |            0 |            0 |            0 |            0 |            0 |            0 |            0 |            0 |            0 |            0 |            0 |            0 |            0 |            0 |            0 |            0 |            0 |            0 |            0 |            0 |            0 |            0 |            0 |            0 |            0 |            0 |            0 |            0 |            0 |            0 |            0 |            0 |            0 |            0 |            0 |            0 |            0 |            0 |
mem.page_count                                  30 |           30 |           30 |           30 |           34 |           34 |           34 |           34 |           42 |           42 |           42 |           42 |           58 |           58 |           58 |           58 |           90 |           90 |           90 |           90 |          154 |          154 |          154 |          154 |          282 |          282 |          282 |          282 |          538 |          538 |          538 |          538 |         1050 |         1050 |         1050 |         1050 |         2074 |         2074 |         2074 |         2074 |         4122 |         4122 |         4122 |         4122 |
mem.page_mem                                  120k |         120k |         120k |         120k |         136k |         136k |         136k |         136k |         168k |         168k |         168k |         168k |         232k |         232k |         232k |         232k |         360k |         360k |         360k |         360k |         616k |         616k |         616k |         616k |        1128k |        1128k |        1128k |        1128k |        2152k |        2152k |        2152k |        2152k |        4200k |        4200k |        4200k |        4200k |        8296k |        8296k |        8296k |        8296k |       16488k |       16488k |       16488k |       16488k |
mem.ptab_misses                                 30 |           30 |           30 |           30 |           34 |           34 |           34 |           34 |           42 |           42 |           42 |           42 |           58 |           58 |           58 |           58 |           90 |           90 |           90 |           90 |          154 |          154 |          154 |          154 |          282 |          282 |          282 |          282 |          538 |          538 |          538 |          538 |         1050 |         1050 |         1050 |         1050 |         2074 |         2074 |         2074 |         2074 |         4122 |         4122 |         4122 |         4122 |
mem.ptab_accesses                          2600238 |      2600238 |      2600238 |      2600238 |      5090090 |      5090090 |      5090090 |      5090090 |     10213078 |     10213078 |     10213078 |     10213078 |     21292680 |     21292680 |     21292680 |     21292680 |     45688842 |     45688842 |     45688842 |     45688842 |     95352892 |     95352892 |     95352892 |     95352892 |    204861568 |    204861568 |    204861568 |    204861568 |    431390576 |    431390576 |    431390576 |    431390576 |    899719028 |    899719028 |    899719028 |    899719028 |   1893812686 |   1893812686 |   1893812686 |   1893812686 |   3941366772 |   3941366772 |   3941366772 |   3941366772 |
mem.ptab_miss_rate                          0.0000 |       0.0000 |       0.0000 |       0.0000 |       0.0000 |       0.0000 |       0.0000 |       0.0000 |       0.0000 |       0.0000 |       0.0000 |       0.0000 |       0.0000 |       0.0000 |       0.0000 |       0.0000 |       0.0000 |       0.0000 |       0.0000 |       0.0000 |       0.0000 |       0.0000 |       0.0000 |       0.0000 |       0.0000 |       0.0000 |       0.0000 |       0.0000 |       0.0000 |       0.0000 |       0.0000 |       0.0000 |       0.0000 |       0.0000 |       0.0000 |       0.0000 |       0.0000 |       0.0000 |       0.0000 |       0.0000 |       0.0000 |       0.0000 |       0.0000 |       0.0000 |
-------------------------------------------------------------------------------------------------
sim-bpred                                     4096 |         4096 |         4096 |         4096 |         4096 |         4096 |         4096 |         8192 |         8192 |         8192 |         8192 |         8192 |         8192 |         8192 |        16384 |        16384 |        16384 |        16384 |        16384 |        16384 |        16384 |        32768 |        32768 |        32768 |        32768 |        32768 |        32768 |        32768 |        65536 |        65536 |        65536 |        65536 |        65536 |        65536 |        65536 |       131072 |       131072 |       131072 |       131072 |       131072 |       131072 |       131072 |       262144 |       262144 |       262144 |       262144 |       262144 |       262144 |       262144 |       524288 |       524288 |       524288 |       524288 |       524288 |       524288 |       524288 |      1048576 |      1048576 |      1048576 |      1048576 |      1048576 |      1048576 |      1048576 |      2097152 |      2097152 |      2097152 |      2097152 |      2097152 |      2097152 |      2097152 |      4194304 |      4194304 |      4194304 |      4194304 |      4194304 |      4194304 |      4194304 |
-bpred bimod -bpred:bimod 512
-bpred bimod -bpred:bimod 1024
-bpred bimod -bpred:bimod 2048
-bpred 2lev -bpred:2lev 1 512 10 1
-bpred 2lev -bpred:2lev 1 1024 10 1
-bpred 2lev -bpred:2lev 1 2048 10 1
-bpred 2lev -bpred:2lev 1 4096 10 1
-------------------------------------------------------------------------------------------------
sim_num_insn                                465758 |       465758 |       465758 |       465758 |       465758 |       465758 |       465758 |      1010382 |      1010382 |      1010382 |      1010382 |      1010382 |      1010382 |      1010382 |      2129935 |      2129935 |      2129935 |      2129935 |      2129935 |      2129935 |      2129935 |      4556597 |      4556597 |      4556597 |      4556597 |      4556597 |      4556597 |      4556597 |      9918840 |      9918840 |      9918840 |      9918840 |      9918840 |      9918840 |      9918840 |     20827479 |     20827479 |     20827479 |     20827479 |     20827479 |     20827479 |     20827479 |     44964549 |     44964549 |     44964549 |     44964549 |     44964549 |     44964549 |     44964549 |     94873761 |     94873761 |     94873761 |     94873761 |     94873761 |     94873761 |     94873761 |    198128932 |    198128932 |    198128932 |    198128932 |    198128932 |    198128932 |    198128932 |    417567746 |    417567746 |    417567746 |    417567746 |    417567746 |    417567746 |    417567746 |    869469104 |    869469104 |    869469104 |    869469104 |    869469104 |    869469104 |    869469104 |
sim_num_refs                                124465 |       124465 |       124465 |       124465 |       124465 |       124465 |       124465 |       263663 |       263663 |       263663 |       263663 |       263663 |       263663 |       263663 |       553235 |       553235 |       553235 |       553235 |       553235 |       553235 |       553235 |      1174128 |      1174128 |      1174128 |      1174128 |      1174128 |      1174128 |      1174128 |      2516651 |      2516651 |      2516651 |      2516651 |      2516651 |      2516651 |      2516651 |      5269254 |      5269254 |      5269254 |      5269254 |      5269254 |      5269254 |      5269254 |     11225164 |     11225164 |     11225164 |     11225164 |     11225164 |     11225164 |     11225164 |     23622668 |     23622668 |     23622668 |     23622668 |     23622668 |     23622668 |     23622668 |     49179400 |     49179400 |     49179400 |     49179400 |     49179400 |     49179400 |     49179400 |    103154297 |    103154297 |    103154297 |    103154297 |    103154297 |    103154297 |    103154297 |    214740016 |    214740016 |    214740016 |    214740016 |    214740016 |    214740016 |    214740016 |
sim_elapsed_time                                 1 |            1 |            1 |            1 |            1 |            1 |            1 |            1 |            1 |            1 |            1 |            1 |            1 |            1 |            1 |            1 |            1 |            1 |            1 |            1 |            1 |            1 |            1 |            1 |            1 |            1 |            1 |            1 |            1 |            1 |            1 |            1 |            1 |            1 |            1 |            3 |            2 |            3 |            2 |            3 |            2 |            3 |            5 |            5 |            6 |            5 |            6 |            5 |            6 |           12 |           11 |           11 |           12 |           12 |           11 |           12 |           24 |           24 |           24 |           24 |           24 |           24 |           24 |           50 |           51 |           50 |           51 |           50 |           51 |           51 |          105 |          104 |          104 |          106 |          106 |          106 |          106 |
sim_inst_rate                          465758.0000 |  465758.0000 |  465758.0000 |  465758.0000 |  465758.0000 |  465758.0000 |  465758.0000 | 1010382.0000 | 1010382.0000 | 1010382.0000 | 1010382.0000 | 1010382.0000 | 1010382.0000 | 1010382.0000 | 2129935.0000 | 2129935.0000 | 2129935.0000 | 2129935.0000 | 2129935.0000 | 2129935.0000 | 2129935.0000 | 4556597.0000 | 4556597.0000 | 4556597.0000 | 4556597.0000 | 4556597.0000 | 4556597.0000 | 4556597.0000 | 9918840.0000 | 9918840.0000 | 9918840.0000 | 9918840.0000 | 9918840.0000 | 9918840.0000 | 9918840.0000 | 6942493.0000 |10413739.5000 | 6942493.0000 |10413739.5000 | 6942493.0000 |10413739.5000 | 6942493.0000 | 8992909.8000 | 8992909.8000 | 7494091.5000 | 8992909.8000 | 7494091.5000 | 8992909.8000 | 7494091.5000 | 7906146.7500 | 8624887.3636 | 8624887.3636 | 7906146.7500 | 7906146.7500 | 8624887.3636 | 7906146.7500 | 8255372.1667 | 8255372.1667 | 8255372.1667 | 8255372.1667 | 8255372.1667 | 8255372.1667 | 8255372.1667 | 8351354.9200 | 8187602.8627 | 8351354.9200 | 8187602.8627 | 8351354.9200 | 8187602.8627 | 8187602.8627 | 8280658.1333 | 8360279.8462 | 8360279.8462 | 8202538.7170 | 8202538.7170 | 8202538.7170 | 8202538.7170 |
sim_num_branches                             75823 |        75823 |        75823 |        75823 |        75823 |        75823 |        75823 |       166028 |       166028 |       166028 |       166028 |       166028 |       166028 |       166028 |       352280 |       352280 |       352280 |       352280 |       352280 |       352280 |       352280 |       758706 |       758706 |       758706 |       758706 |       758706 |       758706 |       758706 |      1658876 |      1658876 |      1658876 |      1658876 |      1658876 |      1658876 |      1658876 |      3499198 |      3499198 |      3499198 |      3499198 |      3499198 |      3499198 |      3499198 |      7579233 |      7579233 |      7579233 |      7579233 |      7579233 |      7579233 |      7579233 |     16062454 |     16062454 |     16062454 |     16062454 |     16062454 |     16062454 |     16062454 |     33578313 |     33578313 |     33578313 |     33578313 |     33578313 |     33578313 |     33578313 |     70978163 |     70978163 |     70978163 |     70978163 |     70978163 |     70978163 |     70978163 |    148217519 |    148217519 |    148217519 |    148217519 |    148217519 |    148217519 |    148217519 |
sim_IPB                                     6.1427 |       6.1427 |       6.1427 |       6.1427 |       6.1427 |       6.1427 |       6.1427 |       6.0856 |       6.0856 |       6.0856 |       6.0856 |       6.0856 |       6.0856 |       6.0856 |       6.0461 |       6.0461 |       6.0461 |       6.0461 |       6.0461 |       6.0461 |       6.0461 |       6.0057 |       6.0057 |       6.0057 |       6.0057 |       6.0057 |       6.0057 |       6.0057 |       5.9793 |       5.9793 |       5.9793 |       5.9793 |       5.9793 |       5.9793 |       5.9793 |       5.9521 |       5.9521 |       5.9521 |       5.9521 |       5.9521 |       5.9521 |       5.9521 |       5.9326 |       5.9326 |       5.9326 |       5.9326 |       5.9326 |       5.9326 |       5.9326 |       5.9066 |       5.9066 |       5.9066 |       5.9066 |       5.9066 |       5.9066 |       5.9066 |       5.9005 |       5.9005 |       5.9005 |       5.9005 |       5.9005 |       5.9005 |       5.9005 |       5.8830 |       5.8830 |       5.8830 |       5.8830 |       5.8830 |       5.8830 |       5.8830 |       5.8662 |       5.8662 |       5.8662 |       5.8662 |       5.8662 |       5.8662 |       5.8662 |
bpred_bimod.lookups                          75823 |        75823 |        75823 |xxxxxxxxxxxxx |xxxxxxxxxxxxx |xxxxxxxxxxxxx |xxxxxxxxxxxxx |       166028 |       166028 |       166028 |xxxxxxxxxxxxx |xxxxxxxxxxxxx |xxxxxxxxxxxxx |xxxxxxxxxxxxx |       352280 |       352280 |       352280 |xxxxxxxxxxxxx |xxxxxxxxxxxxx |xxxxxxxxxxxxx |xxxxxxxxxxxxx |       758706 |       758706 |       758706 |xxxxxxxxxxxxx |xxxxxxxxxxxxx |xxxxxxxxxxxxx |xxxxxxxxxxxxx |      1658876 |      1658876 |      1658876 |xxxxxxxxxxxxx |xxxxxxxxxxxxx |xxxxxxxxxxxxx |xxxxxxxxxxxxx |      3499198 |      3499198 |      3499198 |xxxxxxxxxxxxx |xxxxxxxxxxxxx |xxxxxxxxxxxxx |xxxxxxxxxxxxx |      7579233 |      7579233 |      7579233 |xxxxxxxxxxxxx |xxxxxxxxxxxxx |xxxxxxxxxxxxx |xxxxxxxxxxxxx |     16062454 |     16062454 |     16062454 |xxxxxxxxxxxxx |xxxxxxxxxxxxx |xxxxxxxxxxxxx |xxxxxxxxxxxxx |     33578313 |     33578313 |     33578313 |xxxxxxxxxxxxx |xxxxxxxxxxxxx |xxxxxxxxxxxxx |xxxxxxxxxxxxx |     70978163 |     70978163 |     70978163 |xxxxxxxxxxxxx |xxxxxxxxxxxxx |xxxxxxxxxxxxx |xxxxxxxxxxxxx |    148217519 |    148217519 |    148217519 |
bpred_bimod.updates                          75823 |        75823 |        75823 |xxxxxxxxxxxxx |xxxxxxxxxxxxx |xxxxxxxxxxxxx |xxxxxxxxxxxxx |       166028 |       166028 |       166028 |xxxxxxxxxxxxx |xxxxxxxxxxxxx |xxxxxxxxxxxxx |xxxxxxxxxxxxx |       352280 |       352280 |       352280 |xxxxxxxxxxxxx |xxxxxxxxxxxxx |xxxxxxxxxxxxx |xxxxxxxxxxxxx |       758706 |       758706 |       758706 |xxxxxxxxxxxxx |xxxxxxxxxxxxx |xxxxxxxxxxxxx |xxxxxxxxxxxxx |      1658876 |      1658876 |      1658876 |xxxxxxxxxxxxx |xxxxxxxxxxxxx |xxxxxxxxxxxxx |xxxxxxxxxxxxx |      3499198 |      3499198 |      3499198 |xxxxxxxxxxxxx |xxxxxxxxxxxxx |xxxxxxxxxxxxx |xxxxxxxxxxxxx |      7579233 |      7579233 |      7579233 |xxxxxxxxxxxxx |xxxxxxxxxxxxx |xxxxxxxxxxxxx |xxxxxxxxxxxxx |     16062454 |     16062454 |     16062454 |xxxxxxxxxxxxx |xxxxxxxxxxxxx |xxxxxxxxxxxxx |xxxxxxxxxxxxx |     33578313 |     33578313 |     33578313 |xxxxxxxxxxxxx |xxxxxxxxxxxxx |xxxxxxxxxxxxx |xxxxxxxxxxxxx |     70978163 |     70978163 |     70978163 |xxxxxxxxxxxxx |xxxxxxxxxxxxx |xxxxxxxxxxxxx |xxxxxxxxxxxxx |    148217519 |    148217519 |    148217519 |
bpred_bimod.addr_hits                        53722 |        53722 |        53721 |xxxxxxxxxxxxx |xxxxxxxxxxxxx |xxxxxxxxxxxxx |xxxxxxxxxxxxx |       118764 |       118765 |       118768 |xxxxxxxxxxxxx |xxxxxxxxxxxxx |xxxxxxxxxxxxx |xxxxxxxxxxxxx |       248863 |       248864 |       248868 |xxxxxxxxxxxxx |xxxxxxxxxxxxx |xxxxxxxxxxxxx |xxxxxxxxxxxxx |       537743 |       537745 |       537745 |xxxxxxxxxxxxx |xxxxxxxxxxxxx |xxxxxxxxxxxxx |xxxxxxxxxxxxx |      1194299 |      1194301 |      1194302 |xxxxxxxxxxxxx |xxxxxxxxxxxxx |xxxxxxxxxxxxx |xxxxxxxxxxxxx |      2515976 |      2515978 |      2515979 |xxxxxxxxxxxxx |xxxxxxxxxxxxx |xxxxxxxxxxxxx |xxxxxxxxxxxxx |      5565816 |      5565817 |      5565819 |xxxxxxxxxxxxx |xxxxxxxxxxxxx |xxxxxxxxxxxxx |xxxxxxxxxxxxx |     11723926 |     11723928 |     11723928 |xxxxxxxxxxxxx |xxxxxxxxxxxxx |xxxxxxxxxxxxx |xxxxxxxxxxxxx |     24574026 |     24574027 |     24574027 |xxxxxxxxxxxxx |xxxxxxxxxxxxx |xxxxxxxxxxxxx |xxxxxxxxxxxxx |     52090843 |     52090844 |     52090845 |xxxxxxxxxxxxx |xxxxxxxxxxxxx |xxxxxxxxxxxxx |xxxxxxxxxxxxx |    108027438 |    108027439 |    108027439 |
bpred_bimod.dir_hits                         53833 |        53831 |        53829 |xxxxxxxxxxxxx |xxxxxxxxxxxxx |xxxxxxxxxxxxx |xxxxxxxxxxxxx |       118876 |       118875 |       118877 |xxxxxxxxxxxxx |xxxxxxxxxxxxx |xxxxxxxxxxxxx |xxxxxxxxxxxxx |       248975 |       248972 |       248976 |xxxxxxxxxxxxx |xxxxxxxxxxxxx |xxxxxxxxxxxxx |xxxxxxxxxxxxx |       537855 |       537854 |       537853 |xxxxxxxxxxxxx |xxxxxxxxxxxxx |xxxxxxxxxxxxx |xxxxxxxxxxxxx |      1194411 |      1194409 |      1194409 |xxxxxxxxxxxxx |xxxxxxxxxxxxx |xxxxxxxxxxxxx |xxxxxxxxxxxxx |      2516090 |      2516088 |      2516088 |xxxxxxxxxxxxx |xxxxxxxxxxxxx |xxxxxxxxxxxxx |xxxxxxxxxxxxx |      5565930 |      5565928 |      5565929 |xxxxxxxxxxxxx |xxxxxxxxxxxxx |xxxxxxxxxxxxx |xxxxxxxxxxxxx |     11724039 |     11724038 |     11724037 |xxxxxxxxxxxxx |xxxxxxxxxxxxx |xxxxxxxxxxxxx |xxxxxxxxxxxxx |     24574140 |     24574138 |     24574137 |xxxxxxxxxxxxx |xxxxxxxxxxxxx |xxxxxxxxxxxxx |xxxxxxxxxxxxx |     52090957 |     52090955 |     52090955 |xxxxxxxxxxxxx |xxxxxxxxxxxxx |xxxxxxxxxxxxx |xxxxxxxxxxxxx |    108027551 |    108027549 |    108027548 |
bpred_bimod.misses                           21990 |        21992 |        21994 |xxxxxxxxxxxxx |xxxxxxxxxxxxx |xxxxxxxxxxxxx |xxxxxxxxxxxxx |        47152 |        47153 |        47151 |xxxxxxxxxxxxx |xxxxxxxxxxxxx |xxxxxxxxxxxxx |xxxxxxxxxxxxx |       103305 |       103308 |       103304 |xxxxxxxxxxxxx |xxxxxxxxxxxxx |xxxxxxxxxxxxx |xxxxxxxxxxxxx |       220851 |       220852 |       220853 |xxxxxxxxxxxxx |xxxxxxxxxxxxx |xxxxxxxxxxxxx |xxxxxxxxxxxxx |       464465 |       464467 |       464467 |xxxxxxxxxxxxx |xxxxxxxxxxxxx |xxxxxxxxxxxxx |xxxxxxxxxxxxx |       983108 |       983110 |       983110 |xxxxxxxxxxxxx |xxxxxxxxxxxxx |xxxxxxxxxxxxx |xxxxxxxxxxxxx |      2013303 |      2013305 |      2013304 |xxxxxxxxxxxxx |xxxxxxxxxxxxx |xxxxxxxxxxxxx |xxxxxxxxxxxxx |      4338415 |      4338416 |      4338417 |xxxxxxxxxxxxx |xxxxxxxxxxxxx |xxxxxxxxxxxxx |xxxxxxxxxxxxx |      9004173 |      9004175 |      9004176 |xxxxxxxxxxxxx |xxxxxxxxxxxxx |xxxxxxxxxxxxx |xxxxxxxxxxxxx |     18887206 |     18887208 |     18887208 |xxxxxxxxxxxxx |xxxxxxxxxxxxx |xxxxxxxxxxxxx |xxxxxxxxxxxxx |     40189968 |     40189970 |     40189971 |
bpred_bimod.jr_hits                             64 |           64 |           64 |xxxxxxxxxxxxx |xxxxxxxxxxxxx |xxxxxxxxxxxxx |xxxxxxxxxxxxx |           64 |           64 |           64 |xxxxxxxxxxxxx |xxxxxxxxxxxxx |xxxxxxxxxxxxx |xxxxxxxxxxxxx |           64 |           64 |           64 |xxxxxxxxxxxxx |xxxxxxxxxxxxx |xxxxxxxxxxxxx |xxxxxxxxxxxxx |           64 |           64 |           64 |xxxxxxxxxxxxx |xxxxxxxxxxxxx |xxxxxxxxxxxxx |xxxxxxxxxxxxx |           64 |           64 |           64 |xxxxxxxxxxxxx |xxxxxxxxxxxxx |xxxxxxxxxxxxx |xxxxxxxxxxxxx |           64 |           64 |           64 |xxxxxxxxxxxxx |xxxxxxxxxxxxx |xxxxxxxxxxxxx |xxxxxxxxxxxxx |           64 |           64 |           64 |xxxxxxxxxxxxx |xxxxxxxxxxxxx |xxxxxxxxxxxxx |xxxxxxxxxxxxx |           64 |           64 |           64 |xxxxxxxxxxxxx |xxxxxxxxxxxxx |xxxxxxxxxxxxx |xxxxxxxxxxxxx |           64 |           64 |           64 |xxxxxxxxxxxxx |xxxxxxxxxxxxx |xxxxxxxxxxxxx |xxxxxxxxxxxxx |           64 |           64 |           64 |xxxxxxxxxxxxx |xxxxxxxxxxxxx |xxxxxxxxxxxxx |xxxxxxxxxxxxx |           64 |           64 |           64 |
bpred_bimod.jr_seen                             64 |           64 |           64 |xxxxxxxxxxxxx |xxxxxxxxxxxxx |xxxxxxxxxxxxx |xxxxxxxxxxxxx |           64 |           64 |           64 |xxxxxxxxxxxxx |xxxxxxxxxxxxx |xxxxxxxxxxxxx |xxxxxxxxxxxxx |           64 |           64 |           64 |xxxxxxxxxxxxx |xxxxxxxxxxxxx |xxxxxxxxxxxxx |xxxxxxxxxxxxx |           64 |           64 |           64 |xxxxxxxxxxxxx |xxxxxxxxxxxxx |xxxxxxxxxxxxx |xxxxxxxxxxxxx |           64 |           64 |           64 |xxxxxxxxxxxxx |xxxxxxxxxxxxx |xxxxxxxxxxxxx |xxxxxxxxxxxxx |           64 |           64 |           64 |xxxxxxxxxxxxx |xxxxxxxxxxxxx |xxxxxxxxxxxxx |xxxxxxxxxxxxx |           64 |           64 |           64 |xxxxxxxxxxxxx |xxxxxxxxxxxxx |xxxxxxxxxxxxx |xxxxxxxxxxxxx |           64 |           64 |           64 |xxxxxxxxxxxxx |xxxxxxxxxxxxx |xxxxxxxxxxxxx |xxxxxxxxxxxxx |           64 |           64 |           64 |xxxxxxxxxxxxx |xxxxxxxxxxxxx |xxxxxxxxxxxxx |xxxxxxxxxxxxx |           64 |           64 |           64 |xxxxxxxxxxxxx |xxxxxxxxxxxxx |xxxxxxxxxxxxx |xxxxxxxxxxxxx |           64 |           64 |           64 |
bpred_bimod.jr_non_ras_hits.PP                   0 |            0 |            0 |xxxxxxxxxxxxx |xxxxxxxxxxxxx |xxxxxxxxxxxxx |xxxxxxxxxxxxx |            0 |            0 |            0 |xxxxxxxxxxxxx |xxxxxxxxxxxxx |xxxxxxxxxxxxx |xxxxxxxxxxxxx |            0 |            0 |            0 |xxxxxxxxxxxxx |xxxxxxxxxxxxx |xxxxxxxxxxxxx |xxxxxxxxxxxxx |            0 |            0 |            0 |xxxxxxxxxxxxx |xxxxxxxxxxxxx |xxxxxxxxxxxxx |xxxxxxxxxxxxx |            0 |            0 |            0 |xxxxxxxxxxxxx |xxxxxxxxxxxxx |xxxxxxxxxxxxx |xxxxxxxxxxxxx |            0 |            0 |            0 |xxxxxxxxxxxxx |xxxxxxxxxxxxx |xxxxxxxxxxxxx |xxxxxxxxxxxxx |            0 |            0 |            0 |xxxxxxxxxxxxx |xxxxxxxxxxxxx |xxxxxxxxxxxxx |xxxxxxxxxxxxx |            0 |            0 |            0 |xxxxxxxxxxxxx |xxxxxxxxxxxxx |xxxxxxxxxxxxx |xxxxxxxxxxxxx |            0 |            0 |            0 |xxxxxxxxxxxxx |xxxxxxxxxxxxx |xxxxxxxxxxxxx |xxxxxxxxxxxxx |            0 |            0 |            0 |xxxxxxxxxxxxx |xxxxxxxxxxxxx |xxxxxxxxxxxxx |xxxxxxxxxxxxx |            0 |            0 |            0 |
bpred_bimod.jr_non_ras_seen.PP                   0 |            0 |            0 |xxxxxxxxxxxxx |xxxxxxxxxxxxx |xxxxxxxxxxxxx |xxxxxxxxxxxxx |            0 |            0 |            0 |xxxxxxxxxxxxx |xxxxxxxxxxxxx |xxxxxxxxxxxxx |xxxxxxxxxxxxx |            0 |            0 |            0 |xxxxxxxxxxxxx |xxxxxxxxxxxxx |xxxxxxxxxxxxx |xxxxxxxxxxxxx |            0 |            0 |            0 |xxxxxxxxxxxxx |xxxxxxxxxxxxx |xxxxxxxxxxxxx |xxxxxxxxxxxxx |            0 |            0 |            0 |xxxxxxxxxxxxx |xxxxxxxxxxxxx |xxxxxxxxxxxxx |xxxxxxxxxxxxx |            0 |            0 |            0 |xxxxxxxxxxxxx |xxxxxxxxxxxxx |xxxxxxxxxxxxx |xxxxxxxxxxxxx |            0 |            0 |            0 |xxxxxxxxxxxxx |xxxxxxxxxxxxx |xxxxxxxxxxxxx |xxxxxxxxxxxxx |            0 |            0 |            0 |xxxxxxxxxxxxx |xxxxxxxxxxxxx |xxxxxxxxxxxxx |xxxxxxxxxxxxx |            0 |            0 |            0 |xxxxxxxxxxxxx |xxxxxxxxxxxxx |xxxxxxxxxxxxx |xxxxxxxxxxxxx |            0 |            0 |            0 |xxxxxxxxxxxxx |xxxxxxxxxxxxx |xxxxxxxxxxxxx |xxxxxxxxxxxxx |            0 |            0 |            0 |
bpred_bimod.bpred_addr_rate                 0.7085 |       0.7085 |       0.7085 |xxxxxxxxxxxxx |xxxxxxxxxxxxx |xxxxxxxxxxxxx |xxxxxxxxxxxxx |       0.7153 |       0.7153 |       0.7153 |xxxxxxxxxxxxx |xxxxxxxxxxxxx |xxxxxxxxxxxxx |xxxxxxxxxxxxx |       0.7064 |       0.7064 |       0.7064 |xxxxxxxxxxxxx |xxxxxxxxxxxxx |xxxxxxxxxxxxx |xxxxxxxxxxxxx |       0.7088 |       0.7088 |       0.7088 |xxxxxxxxxxxxx |xxxxxxxxxxxxx |xxxxxxxxxxxxx |xxxxxxxxxxxxx |       0.7199 |       0.7199 |       0.7199 |xxxxxxxxxxxxx |xxxxxxxxxxxxx |xxxxxxxxxxxxx |xxxxxxxxxxxxx |       0.7190 |       0.7190 |       0.7190 |xxxxxxxxxxxxx |xxxxxxxxxxxxx |xxxxxxxxxxxxx |xxxxxxxxxxxxx |       0.7344 |       0.7344 |       0.7344 |xxxxxxxxxxxxx |xxxxxxxxxxxxx |xxxxxxxxxxxxx |xxxxxxxxxxxxx |       0.7299 |       0.7299 |       0.7299 |xxxxxxxxxxxxx |xxxxxxxxxxxxx |xxxxxxxxxxxxx |xxxxxxxxxxxxx |       0.7318 |       0.7318 |       0.7318 |xxxxxxxxxxxxx |xxxxxxxxxxxxx |xxxxxxxxxxxxx |xxxxxxxxxxxxx |       0.7339 |       0.7339 |       0.7339 |xxxxxxxxxxxxx |xxxxxxxxxxxxx |xxxxxxxxxxxxx |xxxxxxxxxxxxx |       0.7288 |       0.7288 |       0.7288 |
bpred_bimod.bpred_dir_rate                  0.7100 |       0.7100 |       0.7099 |xxxxxxxxxxxxx |xxxxxxxxxxxxx |xxxxxxxxxxxxx |xxxxxxxxxxxxx |       0.7160 |       0.7160 |       0.7160 |xxxxxxxxxxxxx |xxxxxxxxxxxxx |xxxxxxxxxxxxx |xxxxxxxxxxxxx |       0.7068 |       0.7067 |       0.7068 |xxxxxxxxxxxxx |xxxxxxxxxxxxx |xxxxxxxxxxxxx |xxxxxxxxxxxxx |       0.7089 |       0.7089 |       0.7089 |xxxxxxxxxxxxx |xxxxxxxxxxxxx |xxxxxxxxxxxxx |xxxxxxxxxxxxx |       0.7200 |       0.7200 |       0.7200 |xxxxxxxxxxxxx |xxxxxxxxxxxxx |xxxxxxxxxxxxx |xxxxxxxxxxxxx |       0.7190 |       0.7190 |       0.7190 |xxxxxxxxxxxxx |xxxxxxxxxxxxx |xxxxxxxxxxxxx |xxxxxxxxxxxxx |       0.7344 |       0.7344 |       0.7344 |xxxxxxxxxxxxx |xxxxxxxxxxxxx |xxxxxxxxxxxxx |xxxxxxxxxxxxx |       0.7299 |       0.7299 |       0.7299 |xxxxxxxxxxxxx |xxxxxxxxxxxxx |xxxxxxxxxxxxx |xxxxxxxxxxxxx |       0.7318 |       0.7318 |       0.7318 |xxxxxxxxxxxxx |xxxxxxxxxxxxx |xxxxxxxxxxxxx |xxxxxxxxxxxxx |       0.7339 |       0.7339 |       0.7339 |xxxxxxxxxxxxx |xxxxxxxxxxxxx |xxxxxxxxxxxxx |xxxxxxxxxxxxx |       0.7288 |       0.7288 |       0.7288 |
bpred_bimod.bpred_jr_rate                   1.0000 |       1.0000 |       1.0000 |xxxxxxxxxxxxx |xxxxxxxxxxxxx |xxxxxxxxxxxxx |xxxxxxxxxxxxx |       1.0000 |       1.0000 |       1.0000 |xxxxxxxxxxxxx |xxxxxxxxxxxxx |xxxxxxxxxxxxx |xxxxxxxxxxxxx |       1.0000 |       1.0000 |       1.0000 |xxxxxxxxxxxxx |xxxxxxxxxxxxx |xxxxxxxxxxxxx |xxxxxxxxxxxxx |       1.0000 |       1.0000 |       1.0000 |xxxxxxxxxxxxx |xxxxxxxxxxxxx |xxxxxxxxxxxxx |xxxxxxxxxxxxx |       1.0000 |       1.0000 |       1.0000 |xxxxxxxxxxxxx |xxxxxxxxxxxxx |xxxxxxxxxxxxx |xxxxxxxxxxxxx |       1.0000 |       1.0000 |       1.0000 |xxxxxxxxxxxxx |xxxxxxxxxxxxx |xxxxxxxxxxxxx |xxxxxxxxxxxxx |       1.0000 |       1.0000 |       1.0000 |xxxxxxxxxxxxx |xxxxxxxxxxxxx |xxxxxxxxxxxxx |xxxxxxxxxxxxx |       1.0000 |       1.0000 |       1.0000 |xxxxxxxxxxxxx |xxxxxxxxxxxxx |xxxxxxxxxxxxx |xxxxxxxxxxxxx |       1.0000 |       1.0000 |       1.0000 |xxxxxxxxxxxxx |xxxxxxxxxxxxx |xxxxxxxxxxxxx |xxxxxxxxxxxxx |       1.0000 |       1.0000 |       1.0000 |xxxxxxxxxxxxx |xxxxxxxxxxxxx |xxxxxxxxxxxxx |xxxxxxxxxxxxx |       1.0000 |       1.0000 |       1.0000 |
bpred_bimod.bpred_jr_non_ras_rate.PP       <error: |      <error: |      <error: |xxxxxxxxxxxxx |xxxxxxxxxxxxx |xxxxxxxxxxxxx |xxxxxxxxxxxxx |      <error: |      <error: |      <error: |xxxxxxxxxxxxx |xxxxxxxxxxxxx |xxxxxxxxxxxxx |xxxxxxxxxxxxx |      <error: |      <error: |      <error: |xxxxxxxxxxxxx |xxxxxxxxxxxxx |xxxxxxxxxxxxx |xxxxxxxxxxxxx |      <error: |      <error: |      <error: |xxxxxxxxxxxxx |xxxxxxxxxxxxx |xxxxxxxxxxxxx |xxxxxxxxxxxxx |      <error: |      <error: |      <error: |xxxxxxxxxxxxx |xxxxxxxxxxxxx |xxxxxxxxxxxxx |xxxxxxxxxxxxx |      <error: |      <error: |      <error: |xxxxxxxxxxxxx |xxxxxxxxxxxxx |xxxxxxxxxxxxx |xxxxxxxxxxxxx |      <error: |      <error: |      <error: |xxxxxxxxxxxxx |xxxxxxxxxxxxx |xxxxxxxxxxxxx |xxxxxxxxxxxxx |      <error: |      <error: |      <error: |xxxxxxxxxxxxx |xxxxxxxxxxxxx |xxxxxxxxxxxxx |xxxxxxxxxxxxx |      <error: |      <error: |      <error: |xxxxxxxxxxxxx |xxxxxxxxxxxxx |xxxxxxxxxxxxx |xxxxxxxxxxxxx |      <error: |      <error: |      <error: |xxxxxxxxxxxxx |xxxxxxxxxxxxx |xxxxxxxxxxxxx |xxxxxxxxxxxxx |      <error: |      <error: |      <error: |
bpred_bimod.retstack_pushes                     66 |           66 |           66 |xxxxxxxxxxxxx |xxxxxxxxxxxxx |xxxxxxxxxxxxx |xxxxxxxxxxxxx |           66 |           66 |           66 |xxxxxxxxxxxxx |xxxxxxxxxxxxx |xxxxxxxxxxxxx |xxxxxxxxxxxxx |           66 |           66 |           66 |xxxxxxxxxxxxx |xxxxxxxxxxxxx |xxxxxxxxxxxxx |xxxxxxxxxxxxx |           66 |           66 |           66 |xxxxxxxxxxxxx |xxxxxxxxxxxxx |xxxxxxxxxxxxx |xxxxxxxxxxxxx |           66 |           66 |           66 |xxxxxxxxxxxxx |xxxxxxxxxxxxx |xxxxxxxxxxxxx |xxxxxxxxxxxxx |           66 |           66 |           66 |xxxxxxxxxxxxx |xxxxxxxxxxxxx |xxxxxxxxxxxxx |xxxxxxxxxxxxx |           66 |           66 |           66 |xxxxxxxxxxxxx |xxxxxxxxxxxxx |xxxxxxxxxxxxx |xxxxxxxxxxxxx |           66 |           66 |           66 |xxxxxxxxxxxxx |xxxxxxxxxxxxx |xxxxxxxxxxxxx |xxxxxxxxxxxxx |           66 |           66 |           66 |xxxxxxxxxxxxx |xxxxxxxxxxxxx |xxxxxxxxxxxxx |xxxxxxxxxxxxx |           66 |           66 |           66 |xxxxxxxxxxxxx |xxxxxxxxxxxxx |xxxxxxxxxxxxx |xxxxxxxxxxxxx |           66 |           66 |           66 |
bpred_bimod.retstack_pops                       64 |           64 |           64 |xxxxxxxxxxxxx |xxxxxxxxxxxxx |xxxxxxxxxxxxx |xxxxxxxxxxxxx |           64 |           64 |           64 |xxxxxxxxxxxxx |xxxxxxxxxxxxx |xxxxxxxxxxxxx |xxxxxxxxxxxxx |           64 |           64 |           64 |xxxxxxxxxxxxx |xxxxxxxxxxxxx |xxxxxxxxxxxxx |xxxxxxxxxxxxx |           64 |           64 |           64 |xxxxxxxxxxxxx |xxxxxxxxxxxxx |xxxxxxxxxxxxx |xxxxxxxxxxxxx |           64 |           64 |           64 |xxxxxxxxxxxxx |xxxxxxxxxxxxx |xxxxxxxxxxxxx |xxxxxxxxxxxxx |           64 |           64 |           64 |xxxxxxxxxxxxx |xxxxxxxxxxxxx |xxxxxxxxxxxxx |xxxxxxxxxxxxx |           64 |           64 |           64 |xxxxxxxxxxxxx |xxxxxxxxxxxxx |xxxxxxxxxxxxx |xxxxxxxxxxxxx |           64 |           64 |           64 |xxxxxxxxxxxxx |xxxxxxxxxxxxx |xxxxxxxxxxxxx |xxxxxxxxxxxxx |           64 |           64 |           64 |xxxxxxxxxxxxx |xxxxxxxxxxxxx |xxxxxxxxxxxxx |xxxxxxxxxxxxx |           64 |           64 |           64 |xxxxxxxxxxxxx |xxxxxxxxxxxxx |xxxxxxxxxxxxx |xxxxxxxxxxxxx |           64 |           64 |           64 |
bpred_bimod.used_ras.PP                         64 |           64 |           64 |xxxxxxxxxxxxx |xxxxxxxxxxxxx |xxxxxxxxxxxxx |xxxxxxxxxxxxx |           64 |           64 |           64 |xxxxxxxxxxxxx |xxxxxxxxxxxxx |xxxxxxxxxxxxx |xxxxxxxxxxxxx |           64 |           64 |           64 |xxxxxxxxxxxxx |xxxxxxxxxxxxx |xxxxxxxxxxxxx |xxxxxxxxxxxxx |           64 |           64 |           64 |xxxxxxxxxxxxx |xxxxxxxxxxxxx |xxxxxxxxxxxxx |xxxxxxxxxxxxx |           64 |           64 |           64 |xxxxxxxxxxxxx |xxxxxxxxxxxxx |xxxxxxxxxxxxx |xxxxxxxxxxxxx |           64 |           64 |           64 |xxxxxxxxxxxxx |xxxxxxxxxxxxx |xxxxxxxxxxxxx |xxxxxxxxxxxxx |           64 |           64 |           64 |xxxxxxxxxxxxx |xxxxxxxxxxxxx |xxxxxxxxxxxxx |xxxxxxxxxxxxx |           64 |           64 |           64 |xxxxxxxxxxxxx |xxxxxxxxxxxxx |xxxxxxxxxxxxx |xxxxxxxxxxxxx |           64 |           64 |           64 |xxxxxxxxxxxxx |xxxxxxxxxxxxx |xxxxxxxxxxxxx |xxxxxxxxxxxxx |           64 |           64 |           64 |xxxxxxxxxxxxx |xxxxxxxxxxxxx |xxxxxxxxxxxxx |xxxxxxxxxxxxx |           64 |           64 |           64 |
bpred_bimod.ras_hits.PP                         64 |           64 |           64 |xxxxxxxxxxxxx |xxxxxxxxxxxxx |xxxxxxxxxxxxx |xxxxxxxxxxxxx |           64 |           64 |           64 |xxxxxxxxxxxxx |xxxxxxxxxxxxx |xxxxxxxxxxxxx |xxxxxxxxxxxxx |           64 |           64 |           64 |xxxxxxxxxxxxx |xxxxxxxxxxxxx |xxxxxxxxxxxxx |xxxxxxxxxxxxx |           64 |           64 |           64 |xxxxxxxxxxxxx |xxxxxxxxxxxxx |xxxxxxxxxxxxx |xxxxxxxxxxxxx |           64 |           64 |           64 |xxxxxxxxxxxxx |xxxxxxxxxxxxx |xxxxxxxxxxxxx |xxxxxxxxxxxxx |           64 |           64 |           64 |xxxxxxxxxxxxx |xxxxxxxxxxxxx |xxxxxxxxxxxxx |xxxxxxxxxxxxx |           64 |           64 |           64 |xxxxxxxxxxxxx |xxxxxxxxxxxxx |xxxxxxxxxxxxx |xxxxxxxxxxxxx |           64 |           64 |           64 |xxxxxxxxxxxxx |xxxxxxxxxxxxx |xxxxxxxxxxxxx |xxxxxxxxxxxxx |           64 |           64 |           64 |xxxxxxxxxxxxx |xxxxxxxxxxxxx |xxxxxxxxxxxxx |xxxxxxxxxxxxx |           64 |           64 |           64 |xxxxxxxxxxxxx |xxxxxxxxxxxxx |xxxxxxxxxxxxx |xxxxxxxxxxxxx |           64 |           64 |           64 |
bpred_bimod.ras_rate.PP                     1.0000 |       1.0000 |       1.0000 |xxxxxxxxxxxxx |xxxxxxxxxxxxx |xxxxxxxxxxxxx |xxxxxxxxxxxxx |       1.0000 |       1.0000 |       1.0000 |xxxxxxxxxxxxx |xxxxxxxxxxxxx |xxxxxxxxxxxxx |xxxxxxxxxxxxx |       1.0000 |       1.0000 |       1.0000 |xxxxxxxxxxxxx |xxxxxxxxxxxxx |xxxxxxxxxxxxx |xxxxxxxxxxxxx |       1.0000 |       1.0000 |       1.0000 |xxxxxxxxxxxxx |xxxxxxxxxxxxx |xxxxxxxxxxxxx |xxxxxxxxxxxxx |       1.0000 |       1.0000 |       1.0000 |xxxxxxxxxxxxx |xxxxxxxxxxxxx |xxxxxxxxxxxxx |xxxxxxxxxxxxx |       1.0000 |       1.0000 |       1.0000 |xxxxxxxxxxxxx |xxxxxxxxxxxxx |xxxxxxxxxxxxx |xxxxxxxxxxxxx |       1.0000 |       1.0000 |       1.0000 |xxxxxxxxxxxxx |xxxxxxxxxxxxx |xxxxxxxxxxxxx |xxxxxxxxxxxxx |       1.0000 |       1.0000 |       1.0000 |xxxxxxxxxxxxx |xxxxxxxxxxxxx |xxxxxxxxxxxxx |xxxxxxxxxxxxx |       1.0000 |       1.0000 |       1.0000 |xxxxxxxxxxxxx |xxxxxxxxxxxxx |xxxxxxxxxxxxx |xxxxxxxxxxxxx |       1.0000 |       1.0000 |       1.0000 |xxxxxxxxxxxxx |xxxxxxxxxxxxx |xxxxxxxxxxxxx |xxxxxxxxxxxxx |       1.0000 |       1.0000 |       1.0000 |
bpred_2lev.lookups                   xxxxxxxxxxxxx |xxxxxxxxxxxxx |xxxxxxxxxxxxx |        75823 |        75823 |        75823 |        75823 |xxxxxxxxxxxxx |xxxxxxxxxxxxx |xxxxxxxxxxxxx |       166028 |       166028 |       166028 |       166028 |xxxxxxxxxxxxx |xxxxxxxxxxxxx |xxxxxxxxxxxxx |       352280 |       352280 |       352280 |       352280 |xxxxxxxxxxxxx |xxxxxxxxxxxxx |xxxxxxxxxxxxx |       758706 |       758706 |       758706 |       758706 |xxxxxxxxxxxxx |xxxxxxxxxxxxx |xxxxxxxxxxxxx |      1658876 |      1658876 |      1658876 |      1658876 |xxxxxxxxxxxxx |xxxxxxxxxxxxx |xxxxxxxxxxxxx |      3499198 |      3499198 |      3499198 |      3499198 |xxxxxxxxxxxxx |xxxxxxxxxxxxx |xxxxxxxxxxxxx |      7579233 |      7579233 |      7579233 |      7579233 |xxxxxxxxxxxxx |xxxxxxxxxxxxx |xxxxxxxxxxxxx |     16062454 |     16062454 |     16062454 |     16062454 |xxxxxxxxxxxxx |xxxxxxxxxxxxx |xxxxxxxxxxxxx |     33578313 |     33578313 |     33578313 |     33578313 |xxxxxxxxxxxxx |xxxxxxxxxxxxx |xxxxxxxxxxxxx |     70978163 |     70978163 |     70978163 |     70978163 |xxxxxxxxxxxxx |xxxxxxxxxxxxx |xxxxxxxxxxxxx |    148217519 |    148217519 |    148217519 |    148217519 |
[...]
bpred_2lev.retstack_pushes           xxxxxxxxxxxxx |xxxxxxxxxxxxx |xxxxxxxxxxxxx |           66 |           66 |           66 |           66 |xxxxxxxxxxxxx |xxxxxxxxxxxxx |xxxxxxxxxxxxx |           66 |           66 |           66 |           66 |xxxxxxxxxxxxx |xxxxxxxxxxxxx |xxxxxxxxxxxxx |           66 |           66 |           66 |           66 |xxxxxxxxxxxxx |xxxxxxxxxxxxx |xxxxxxxxxxxxx |           66 |           66 |           66 |           66 |xxxxxxxxxxxxx |xxxxxxxxxxxxx |xxxxxxxxxxxxx |           66 |           66 |           66 |           66 |xxxxxxxxxxxxx |xxxxxxxxxxxxx |xxxxxxxxxxxxx |           66 |           66 |           66 |           66 |xxxxxxxxxxxxx |xxxxxxxxxxxxx |xxxxxxxxxxxxx |           66 |           66 |           66 |           66 |xxxxxxxxxxxxx |xxxxxxxxxxxxx |xxxxxxxxxxxxx |           66 |           66 |           66 |           66 |xxxxxxxxxxxxx |xxxxxxxxxxxxx |xxxxxxxxxxxxx |           66 |           66 |           66 |           66 |xxxxxxxxxxxxx |xxxxxxxxxxxxx |xxxxxxxxxxxxx |           66 |           66 |           66 |           66 |xxxxxxxxxxxxx |xxxxxxxxxxxxx |xxxxxxxxxxxxx |           66 |           66 |           66 |           66 |
bpred_2lev.retstack_pops             xxxxxxxxxxxxx |xxxxxxxxxxxxx |xxxxxxxxxxxxx |           64 |           64 |           64 |           64 |xxxxxxxxxxxxx |xxxxxxxxxxxxx |xxxxxxxxxxxxx |           64 |           64 |           64 |           64 |xxxxxxxxxxxxx |xxxxxxxxxxxxx |xxxxxxxxxxxxx |           64 |           64 |           64 |           64 |xxxxxxxxxxxxx |xxxxxxxxxxxxx |xxxxxxxxxxxxx |           64 |           64 |           64 |           64 |xxxxxxxxxxxxx |xxxxxxxxxxxxx |xxxxxxxxxxxxx |           64 |           64 |           64 |           64 |xxxxxxxxxxxxx |xxxxxxxxxxxxx |xxxxxxxxxxxxx |           64 |           64 |           64 |           64 |xxxxxxxxxxxxx |xxxxxxxxxxxxx |xxxxxxxxxxxxx |           64 |           64 |           64 |           64 |xxxxxxxxxxxxx |xxxxxxxxxxxxx |xxxxxxxxxxxxx |           64 |           64 |           64 |           64 |xxxxxxxxxxxxx |xxxxxxxxxxxxx |xxxxxxxxxxxxx |           64 |           64 |           64 |           64 |xxxxxxxxxxxxx |xxxxxxxxxxxxx |xxxxxxxxxxxxx |           64 |           64 |           64 |           64 |xxxxxxxxxxxxx |xxxxxxxxxxxxx |xxxxxxxxxxxxx |           64 |           64 |           64 |           64 |
bpred_2lev.used_ras.PP               xxxxxxxxxxxxx |xxxxxxxxxxxxx |xxxxxxxxxxxxx |           64 |           64 |           64 |           64 |xxxxxxxxxxxxx |xxxxxxxxxxxxx |xxxxxxxxxxxxx |           64 |           64 |           64 |           64 |xxxxxxxxxxxxx |xxxxxxxxxxxxx |xxxxxxxxxxxxx |           64 |           64 |           64 |           64 |xxxxxxxxxxxxx |xxxxxxxxxxxxx |xxxxxxxxxxxxx |           64 |           64 |           64 |           64 |xxxxxxxxxxxxx |xxxxxxxxxxxxx |xxxxxxxxxxxxx |           64 |           64 |           64 |           64 |xxxxxxxxxxxxx |xxxxxxxxxxxxx |xxxxxxxxxxxxx |           64 |           64 |           64 |           64 |xxxxxxxxxxxxx |xxxxxxxxxxxxx |xxxxxxxxxxxxx |           64 |           64 |           64 |           64 |xxxxxxxxxxxxx |xxxxxxxxxxxxx |xxxxxxxxxxxxx |           64 |           64 |           64 |           64 |xxxxxxxxxxxxx |xxxxxxxxxxxxx |xxxxxxxxxxxxx |           64 |           64 |           64 |           64 |xxxxxxxxxxxxx |xxxxxxxxxxxxx |xxxxxxxxxxxxx |           64 |           64 |           64 |           64 |xxxxxxxxxxxxx |xxxxxxxxxxxxx |xxxxxxxxxxxxx |           64 |           64 |           64 |           64 |
bpred_2lev.ras_hits.PP               xxxxxxxxxxxxx |xxxxxxxxxxxxx |xxxxxxxxxxxxx |           64 |           64 |           64 |           64 |xxxxxxxxxxxxx |xxxxxxxxxxxxx |xxxxxxxxxxxxx |           64 |           64 |           64 |           64 |xxxxxxxxxxxxx |xxxxxxxxxxxxx |xxxxxxxxxxxxx |           64 |           64 |           64 |           64 |xxxxxxxxxxxxx |xxxxxxxxxxxxx |xxxxxxxxxxxxx |           64 |           64 |           64 |           64 |xxxxxxxxxxxxx |xxxxxxxxxxxxx |xxxxxxxxxxxxx |           64 |           64 |           64 |           64 |xxxxxxxxxxxxx |xxxxxxxxxxxxx |xxxxxxxxxxxxx |           64 |           64 |           64 |           64 |xxxxxxxxxxxxx |xxxxxxxxxxxxx |xxxxxxxxxxxxx |           64 |           64 |           64 |           64 |xxxxxxxxxxxxx |xxxxxxxxxxxxx |xxxxxxxxxxxxx |           64 |           64 |           64 |           64 |xxxxxxxxxxxxx |xxxxxxxxxxxxx |xxxxxxxxxxxxx |           64 |           64 |           64 |           64 |xxxxxxxxxxxxx |xxxxxxxxxxxxx |xxxxxxxxxxxxx |           64 |           64 |           64 |           64 |xxxxxxxxxxxxx |xxxxxxxxxxxxx |xxxxxxxxxxxxx |           64 |           64 |           64 |           64 |
bpred_2lev.ras_rate.PP               xxxxxxxxxxxxx |xxxxxxxxxxxxx |xxxxxxxxxxxxx |       1.0000 |       1.0000 |       1.0000 |       1.0000 |xxxxxxxxxxxxx |xxxxxxxxxxxxx |xxxxxxxxxxxxx |       1.0000 |       1.0000 |       1.0000 |       1.0000 |xxxxxxxxxxxxx |xxxxxxxxxxxxx |xxxxxxxxxxxxx |       1.0000 |       1.0000 |       1.0000 |       1.0000 |xxxxxxxxxxxxx |xxxxxxxxxxxxx |xxxxxxxxxxxxx |       1.0000 |       1.0000 |       1.0000 |       1.0000 |xxxxxxxxxxxxx |xxxxxxxxxxxxx |xxxxxxxxxxxxx |       1.0000 |       1.0000 |       1.0000 |       1.0000 |xxxxxxxxxxxxx |xxxxxxxxxxxxx |xxxxxxxxxxxxx |       1.0000 |       1.0000 |       1.0000 |       1.0000 |xxxxxxxxxxxxx |xxxxxxxxxxxxx |xxxxxxxxxxxxx |       1.0000 |       1.0000 |       1.0000 |       1.0000 |xxxxxxxxxxxxx |xxxxxxxxxxxxx |xxxxxxxxxxxxx |       1.0000 |       1.0000 |       1.0000 |       1.0000 |xxxxxxxxxxxxx |xxxxxxxxxxxxx |xxxxxxxxxxxxx |       1.0000 |       1.0000 |       1.0000 |       1.0000 |xxxxxxxxxxxxx |xxxxxxxxxxxxx |xxxxxxxxxxxxx |       1.0000 |       1.0000 |       1.0000 |       1.0000 |xxxxxxxxxxxxx |xxxxxxxxxxxxx |xxxxxxxxxxxxx |       1.0000 |       1.0000 |       1.0000 |       1.0000 |

Command list: 
	sslittle-na-sstrix-gcc -Wall -O3 -funroll-loops -finline-functions  -DRANDOM_SIZE=4096 -DOFFSET=8 -DSORT=base_quicksort sorts/base_quicksort41455484.c simpleMain.c -o base_quicksort441838006
	sim-cache -cache:dl1 dl1:256:32:1:l -cache:dl2 dl2:131072:32:1:l -cache:il1 il1:256:32:1:l -cache:il2 dl2 base_quicksort441838006
	sim-cache -cache:dl1 dl1:256:32:1:l -cache:dl2 dl2:65536:32:1:l -cache:il1 il1:256:32:1:l -cache:il2 dl2 base_quicksort441838006
	sim-cache -cache:dl1 dl1:1:32:256:l -cache:dl2 dl2:1:32:131072:l -cache:il1 il1:1:32:256:l -cache:il2 dl2 base_quicksort441838006
	sim-cache -cache:dl1 dl1:1:32:256:l -cache:dl2 dl2:1:32:65536:l -cache:il1 il1:1:32:256:l -cache:il2 dl2 base_quicksort441838006
	sim-bpred -bpred bimod -bpred:bimod 512 base_quicksort441838006
	sim-bpred -bpred bimod -bpred:bimod 1024 base_quicksort441838006
	sim-bpred -bpred bimod -bpred:bimod 2048 base_quicksort441838006
	sim-bpred -bpred 2lev -bpred:2lev 1 512 10 1 base_quicksort441838006
	sim-bpred -bpred 2lev -bpred:2lev 1 1024 10 1 base_quicksort441838006
	sim-bpred -bpred 2lev -bpred:2lev 1 2048 10 1 base_quicksort441838006
	sim-bpred -bpred 2lev -bpred:2lev 1 4096 10 1 base_quicksort441838006
	sslittle-na-sstrix-gcc -Wall -O3 -funroll-loops -finline-functions  -DRANDOM_SIZE=8192 -DOFFSET=8 -DSORT=base_quicksort sorts/base_quicksort41455484.c simpleMain.c -o base_quicksort441838006
	sim-cache -cache:dl1 dl1:256:32:1:l -cache:dl2 dl2:131072:32:1:l -cache:il1 il1:256:32:1:l -cache:il2 dl2 base_quicksort441838006
	sim-cache -cache:dl1 dl1:256:32:1:l -cache:dl2 dl2:65536:32:1:l -cache:il1 il1:256:32:1:l -cache:il2 dl2 base_quicksort441838006
	sim-cache -cache:dl1 dl1:1:32:256:l -cache:dl2 dl2:1:32:131072:l -cache:il1 il1:1:32:256:l -cache:il2 dl2 base_quicksort441838006
	sim-cache -cache:dl1 dl1:1:32:256:l -cache:dl2 dl2:1:32:65536:l -cache:il1 il1:1:32:256:l -cache:il2 dl2 base_quicksort441838006
	sim-bpred -bpred bimod -bpred:bimod 512 base_quicksort441838006
	sim-bpred -bpred bimod -bpred:bimod 1024 base_quicksort441838006
	sim-bpred -bpred bimod -bpred:bimod 2048 base_quicksort441838006
	sim-bpred -bpred 2lev -bpred:2lev 1 512 10 1 base_quicksort441838006
	sim-bpred -bpred 2lev -bpred:2lev 1 1024 10 1 base_quicksort441838006
	sim-bpred -bpred 2lev -bpred:2lev 1 2048 10 1 base_quicksort441838006
	sim-bpred -bpred 2lev -bpred:2lev 1 4096 10 1 base_quicksort441838006
	sslittle-na-sstrix-gcc -Wall -O3 -funroll-loops -finline-functions  -DRANDOM_SIZE=16384 -DOFFSET=8 -DSORT=base_quicksort sorts/base_quicksort41455484.c simpleMain.c -o base_quicksort441838006
	sim-cache -cache:dl1 dl1:256:32:1:l -cache:dl2 dl2:131072:32:1:l -cache:il1 il1:256:32:1:l -cache:il2 dl2 base_quicksort441838006
	sim-cache -cache:dl1 dl1:256:32:1:l -cache:dl2 dl2:65536:32:1:l -cache:il1 il1:256:32:1:l -cache:il2 dl2 base_quicksort441838006
	sim-cache -cache:dl1 dl1:1:32:256:l -cache:dl2 dl2:1:32:131072:l -cache:il1 il1:1:32:256:l -cache:il2 dl2 base_quicksort441838006
	sim-cache -cache:dl1 dl1:1:32:256:l -cache:dl2 dl2:1:32:65536:l -cache:il1 il1:1:32:256:l -cache:il2 dl2 base_quicksort441838006
	sim-bpred -bpred bimod -bpred:bimod 512 base_quicksort441838006
	sim-bpred -bpred bimod -bpred:bimod 1024 base_quicksort441838006
	sim-bpred -bpred bimod -bpred:bimod 2048 base_quicksort441838006
	sim-bpred -bpred 2lev -bpred:2lev 1 512 10 1 base_quicksort441838006
	sim-bpred -bpred 2lev -bpred:2lev 1 1024 10 1 base_quicksort441838006
	sim-bpred -bpred 2lev -bpred:2lev 1 2048 10 1 base_quicksort441838006
	sim-bpred -bpred 2lev -bpred:2lev 1 4096 10 1 base_quicksort441838006
	sslittle-na-sstrix-gcc -Wall -O3 -funroll-loops -finline-functions  -DRANDOM_SIZE=32768 -DOFFSET=8 -DSORT=base_quicksort sorts/base_quicksort41455484.c simpleMain.c -o base_quicksort441838006
	sim-cache -cache:dl1 dl1:256:32:1:l -cache:dl2 dl2:131072:32:1:l -cache:il1 il1:256:32:1:l -cache:il2 dl2 base_quicksort441838006
	sim-cache -cache:dl1 dl1:256:32:1:l -cache:dl2 dl2:65536:32:1:l -cache:il1 il1:256:32:1:l -cache:il2 dl2 base_quicksort441838006
	sim-cache -cache:dl1 dl1:1:32:256:l -cache:dl2 dl2:1:32:131072:l -cache:il1 il1:1:32:256:l -cache:il2 dl2 base_quicksort441838006
	sim-cache -cache:dl1 dl1:1:32:256:l -cache:dl2 dl2:1:32:65536:l -cache:il1 il1:1:32:256:l -cache:il2 dl2 base_quicksort441838006
	sim-bpred -bpred bimod -bpred:bimod 512 base_quicksort441838006
	sim-bpred -bpred bimod -bpred:bimod 1024 base_quicksort441838006
	sim-bpred -bpred bimod -bpred:bimod 2048 base_quicksort441838006
	sim-bpred -bpred 2lev -bpred:2lev 1 512 10 1 base_quicksort441838006
	sim-bpred -bpred 2lev -bpred:2lev 1 1024 10 1 base_quicksort441838006
	sim-bpred -bpred 2lev -bpred:2lev 1 2048 10 1 base_quicksort441838006
	sim-bpred -bpred 2lev -bpred:2lev 1 4096 10 1 base_quicksort441838006
	sslittle-na-sstrix-gcc -Wall -O3 -funroll-loops -finline-functions  -DRANDOM_SIZE=65536 -DOFFSET=8 -DSORT=base_quicksort sorts/base_quicksort41455484.c simpleMain.c -o base_quicksort441838006
	sim-cache -cache:dl1 dl1:256:32:1:l -cache:dl2 dl2:131072:32:1:l -cache:il1 il1:256:32:1:l -cache:il2 dl2 base_quicksort441838006
	sim-cache -cache:dl1 dl1:256:32:1:l -cache:dl2 dl2:65536:32:1:l -cache:il1 il1:256:32:1:l -cache:il2 dl2 base_quicksort441838006
	sim-cache -cache:dl1 dl1:1:32:256:l -cache:dl2 dl2:1:32:131072:l -cache:il1 il1:1:32:256:l -cache:il2 dl2 base_quicksort441838006
	sim-cache -cache:dl1 dl1:1:32:256:l -cache:dl2 dl2:1:32:65536:l -cache:il1 il1:1:32:256:l -cache:il2 dl2 base_quicksort441838006
	sim-bpred -bpred bimod -bpred:bimod 512 base_quicksort441838006
	sim-bpred -bpred bimod -bpred:bimod 1024 base_quicksort441838006
	sim-bpred -bpred bimod -bpred:bimod 2048 base_quicksort441838006
	sim-bpred -bpred 2lev -bpred:2lev 1 512 10 1 base_quicksort441838006
	sim-bpred -bpred 2lev -bpred:2lev 1 1024 10 1 base_quicksort441838006
	sim-bpred -bpred 2lev -bpred:2lev 1 2048 10 1 base_quicksort441838006
	sim-bpred -bpred 2lev -bpred:2lev 1 4096 10 1 base_quicksort441838006
	sslittle-na-sstrix-gcc -Wall -O3 -funroll-loops -finline-functions  -DRANDOM_SIZE=131072 -DOFFSET=8 -DSORT=base_quicksort sorts/base_quicksort41455484.c simpleMain.c -o base_quicksort441838006
	sim-cache -cache:dl1 dl1:256:32:1:l -cache:dl2 dl2:131072:32:1:l -cache:il1 il1:256:32:1:l -cache:il2 dl2 base_quicksort441838006
	sim-cache -cache:dl1 dl1:256:32:1:l -cache:dl2 dl2:65536:32:1:l -cache:il1 il1:256:32:1:l -cache:il2 dl2 base_quicksort441838006
	sim-cache -cache:dl1 dl1:1:32:256:l -cache:dl2 dl2:1:32:131072:l -cache:il1 il1:1:32:256:l -cache:il2 dl2 base_quicksort441838006
	sim-cache -cache:dl1 dl1:1:32:256:l -cache:dl2 dl2:1:32:65536:l -cache:il1 il1:1:32:256:l -cache:il2 dl2 base_quicksort441838006
	sim-bpred -bpred bimod -bpred:bimod 512 base_quicksort441838006
	sim-bpred -bpred bimod -bpred:bimod 1024 base_quicksort441838006
	sim-bpred -bpred bimod -bpred:bimod 2048 base_quicksort441838006
	sim-bpred -bpred 2lev -bpred:2lev 1 512 10 1 base_quicksort441838006
	sim-bpred -bpred 2lev -bpred:2lev 1 1024 10 1 base_quicksort441838006
	sim-bpred -bpred 2lev -bpred:2lev 1 2048 10 1 base_quicksort441838006
	sim-bpred -bpred 2lev -bpred:2lev 1 4096 10 1 base_quicksort441838006
	sslittle-na-sstrix-gcc -Wall -O3 -funroll-loops -finline-functions  -DRANDOM_SIZE=262144 -DOFFSET=8 -DSORT=base_quicksort sorts/base_quicksort41455484.c simpleMain.c -o base_quicksort441838006
	sim-cache -cache:dl1 dl1:256:32:1:l -cache:dl2 dl2:131072:32:1:l -cache:il1 il1:256:32:1:l -cache:il2 dl2 base_quicksort441838006
	sim-cache -cache:dl1 dl1:256:32:1:l -cache:dl2 dl2:65536:32:1:l -cache:il1 il1:256:32:1:l -cache:il2 dl2 base_quicksort441838006
	sim-cache -cache:dl1 dl1:1:32:256:l -cache:dl2 dl2:1:32:131072:l -cache:il1 il1:1:32:256:l -cache:il2 dl2 base_quicksort441838006
	sim-cache -cache:dl1 dl1:1:32:256:l -cache:dl2 dl2:1:32:65536:l -cache:il1 il1:1:32:256:l -cache:il2 dl2 base_quicksort441838006
	sim-bpred -bpred bimod -bpred:bimod 512 base_quicksort441838006
	sim-bpred -bpred bimod -bpred:bimod 1024 base_quicksort441838006
	sim-bpred -bpred bimod -bpred:bimod 2048 base_quicksort441838006
	sim-bpred -bpred 2lev -bpred:2lev 1 512 10 1 base_quicksort441838006
	sim-bpred -bpred 2lev -bpred:2lev 1 1024 10 1 base_quicksort441838006
	sim-bpred -bpred 2lev -bpred:2lev 1 2048 10 1 base_quicksort441838006
	sim-bpred -bpred 2lev -bpred:2lev 1 4096 10 1 base_quicksort441838006
	sslittle-na-sstrix-gcc -Wall -O3 -funroll-loops -finline-functions  -DRANDOM_SIZE=524288 -DOFFSET=8 -DSORT=base_quicksort sorts/base_quicksort41455484.c simpleMain.c -o base_quicksort441838006
	sim-cache -cache:dl1 dl1:256:32:1:l -cache:dl2 dl2:131072:32:1:l -cache:il1 il1:256:32:1:l -cache:il2 dl2 base_quicksort441838006
	sim-cache -cache:dl1 dl1:256:32:1:l -cache:dl2 dl2:65536:32:1:l -cache:il1 il1:256:32:1:l -cache:il2 dl2 base_quicksort441838006
	sim-cache -cache:dl1 dl1:1:32:256:l -cache:dl2 dl2:1:32:131072:l -cache:il1 il1:1:32:256:l -cache:il2 dl2 base_quicksort441838006
	sim-cache -cache:dl1 dl1:1:32:256:l -cache:dl2 dl2:1:32:65536:l -cache:il1 il1:1:32:256:l -cache:il2 dl2 base_quicksort441838006
	sim-bpred -bpred bimod -bpred:bimod 512 base_quicksort441838006
	sim-bpred -bpred bimod -bpred:bimod 1024 base_quicksort441838006
	sim-bpred -bpred bimod -bpred:bimod 2048 base_quicksort441838006
	sim-bpred -bpred 2lev -bpred:2lev 1 512 10 1 base_quicksort441838006
	sim-bpred -bpred 2lev -bpred:2lev 1 1024 10 1 base_quicksort441838006
	sim-bpred -bpred 2lev -bpred:2lev 1 2048 10 1 base_quicksort441838006
	sim-bpred -bpred 2lev -bpred:2lev 1 4096 10 1 base_quicksort441838006
	sslittle-na-sstrix-gcc -Wall -O3 -funroll-loops -finline-functions  -DRANDOM_SIZE=1048576 -DOFFSET=8 -DSORT=base_quicksort sorts/base_quicksort41455484.c simpleMain.c -o base_quicksort441838006
	sim-cache -cache:dl1 dl1:256:32:1:l -cache:dl2 dl2:131072:32:1:l -cache:il1 il1:256:32:1:l -cache:il2 dl2 base_quicksort441838006
	sim-cache -cache:dl1 dl1:256:32:1:l -cache:dl2 dl2:65536:32:1:l -cache:il1 il1:256:32:1:l -cache:il2 dl2 base_quicksort441838006
	sim-cache -cache:dl1 dl1:1:32:256:l -cache:dl2 dl2:1:32:131072:l -cache:il1 il1:1:32:256:l -cache:il2 dl2 base_quicksort441838006
	sim-cache -cache:dl1 dl1:1:32:256:l -cache:dl2 dl2:1:32:65536:l -cache:il1 il1:1:32:256:l -cache:il2 dl2 base_quicksort441838006
	sim-bpred -bpred bimod -bpred:bimod 512 base_quicksort441838006
	sim-bpred -bpred bimod -bpred:bimod 1024 base_quicksort441838006
	sim-bpred -bpred bimod -bpred:bimod 2048 base_quicksort441838006
	sim-bpred -bpred 2lev -bpred:2lev 1 512 10 1 base_quicksort441838006
	sim-bpred -bpred 2lev -bpred:2lev 1 1024 10 1 base_quicksort441838006
	sim-bpred -bpred 2lev -bpred:2lev 1 2048 10 1 base_quicksort441838006
	sim-bpred -bpred 2lev -bpred:2lev 1 4096 10 1 base_quicksort441838006
	sslittle-na-sstrix-gcc -Wall -O3 -funroll-loops -finline-functions  -DRANDOM_SIZE=2097152 -DOFFSET=8 -DSORT=base_quicksort sorts/base_quicksort41455484.c simpleMain.c -o base_quicksort441838006
	sim-cache -cache:dl1 dl1:256:32:1:l -cache:dl2 dl2:131072:32:1:l -cache:il1 il1:256:32:1:l -cache:il2 dl2 base_quicksort441838006
	sim-cache -cache:dl1 dl1:256:32:1:l -cache:dl2 dl2:65536:32:1:l -cache:il1 il1:256:32:1:l -cache:il2 dl2 base_quicksort441838006
	sim-cache -cache:dl1 dl1:1:32:256:l -cache:dl2 dl2:1:32:131072:l -cache:il1 il1:1:32:256:l -cache:il2 dl2 base_quicksort441838006
	sim-cache -cache:dl1 dl1:1:32:256:l -cache:dl2 dl2:1:32:65536:l -cache:il1 il1:1:32:256:l -cache:il2 dl2 base_quicksort441838006
	sim-bpred -bpred bimod -bpred:bimod 512 base_quicksort441838006
	sim-bpred -bpred bimod -bpred:bimod 1024 base_quicksort441838006
	sim-bpred -bpred bimod -bpred:bimod 2048 base_quicksort441838006
	sim-bpred -bpred 2lev -bpred:2lev 1 512 10 1 base_quicksort441838006
	sim-bpred -bpred 2lev -bpred:2lev 1 1024 10 1 base_quicksort441838006
	sim-bpred -bpred 2lev -bpred:2lev 1 2048 10 1 base_quicksort441838006
	sim-bpred -bpred 2lev -bpred:2lev 1 4096 10 1 base_quicksort441838006
	sslittle-na-sstrix-gcc -Wall -O3 -funroll-loops -finline-functions  -DRANDOM_SIZE=4194304 -DOFFSET=8 -DSORT=base_quicksort sorts/base_quicksort41455484.c simpleMain.c -o base_quicksort441838006
	sim-cache -cache:dl1 dl1:256:32:1:l -cache:dl2 dl2:131072:32:1:l -cache:il1 il1:256:32:1:l -cache:il2 dl2 base_quicksort441838006
	sim-cache -cache:dl1 dl1:256:32:1:l -cache:dl2 dl2:65536:32:1:l -cache:il1 il1:256:32:1:l -cache:il2 dl2 base_quicksort441838006
	sim-cache -cache:dl1 dl1:1:32:256:l -cache:dl2 dl2:1:32:131072:l -cache:il1 il1:1:32:256:l -cache:il2 dl2 base_quicksort441838006
	sim-cache -cache:dl1 dl1:1:32:256:l -cache:dl2 dl2:1:32:65536:l -cache:il1 il1:1:32:256:l -cache:il2 dl2 base_quicksort441838006
	sim-bpred -bpred bimod -bpred:bimod 512 base_quicksort441838006
	sim-bpred -bpred bimod -bpred:bimod 1024 base_quicksort441838006
	sim-bpred -bpred bimod -bpred:bimod 2048 base_quicksort441838006
	sim-bpred -bpred 2lev -bpred:2lev 1 512 10 1 base_quicksort441838006
	sim-bpred -bpred 2lev -bpred:2lev 1 1024 10 1 base_quicksort441838006
	sim-bpred -bpred 2lev -bpred:2lev 1 2048 10 1 base_quicksort441838006
	sim-bpred -bpred 2lev -bpred:2lev 1 4096 10 1 base_quicksort441838006
