Tue Jun 21 20:55:46 2005
Run as: "./do_simple -c random.org1 -o 1 base_quicksort9"
-------------------------------------------------------------------------------------------------
sim-cache                                     4096 |         4096 |         4096 |         4096 |         8192 |         8192 |         8192 |         8192 |        16384 |        16384 |        16384 |        16384 |        32768 |        32768 |        32768 |        32768 |        65536 |        65536 |        65536 |        65536 |       131072 |       131072 |       131072 |       131072 |       262144 |       262144 |       262144 |       262144 |       524288 |       524288 |       524288 |       524288 |      1048576 |      1048576 |      1048576 |      1048576 |      2097152 |      2097152 |      2097152 |      2097152 |      4194304 |      4194304 |      4194304 |      4194304 |
-cache:dl1 dl1:256:32:1:l -cache:dl2 dl2:131072:32:1:l -cache:il1 il1:256:32:1:l -cache:il2 dl2
-cache:dl1 dl1:256:32:1:l -cache:dl2 dl2:65536:32:1:l -cache:il1 il1:256:32:1:l -cache:il2 dl2
-cache:dl1 dl1:1:32:256:l -cache:dl2 dl2:1:32:131072:l -cache:il1 il1:1:32:256:l -cache:il2 dl2
-cache:dl1 dl1:1:32:256:l -cache:dl2 dl2:1:32:65536:l -cache:il1 il1:1:32:256:l -cache:il2 dl2
-------------------------------------------------------------------------------------------------
sim_num_insn                                470340 |       470340 |       470340 |       470340 |      1005947 |      1005947 |      1005947 |      1005947 |      2113852 |      2113852 |      2113852 |      2113852 |      4515489 |      4515489 |      4515489 |      4515489 |      9634175 |      9634175 |      9634175 |      9634175 |     20468604 |     20468604 |     20468604 |     20468604 |     43237104 |     43237104 |     43237104 |     43237104 |     91551171 |     91551171 |     91551171 |     91551171 |    192038538 |    192038538 |    192038538 |    192038538 |    400771087 |    400771087 |    400771087 |    400771087 |    838506966 |    838506966 |    838506966 |    838506966 |
sim_num_refs                                127097 |       127097 |       127097 |       127097 |       266802 |       266802 |       266802 |       266802 |       558532 |       558532 |       558532 |       558532 |      1181410 |      1181410 |      1181410 |      1181410 |      2498006 |      2498006 |      2498006 |      2498006 |      5272666 |      5272666 |      5272666 |      5272666 |     11077891 |     11077891 |     11077891 |     11077891 |     23308527 |     23308527 |     23308527 |     23308527 |     48730156 |     48730156 |     48730156 |     48730156 |    101580175 |    101580175 |    101580175 |    101580175 |    211884871 |    211884871 |    211884871 |    211884871 |
sim_elapsed_time                                 1 |            1 |            7 |            3 |            1 |            1 |            9 |            5 |            1 |            1 |           15 |            8 |            1 |            1 |           25 |           13 |            2 |            3 |           45 |           23 |            5 |            5 |           84 |           42 |           11 |           11 |          154 |           73 |           23 |           23 |          265 |          103 |           49 |           48 |          370 |          130 |          102 |          101 |          425 |          187 |          212 |          211 |          543 |          305 |
sim_inst_rate                          470340.0000 |  470340.0000 |   67191.4286 |  156780.0000 | 1005947.0000 | 1005947.0000 |  111771.8889 |  201189.4000 | 2113852.0000 | 2113852.0000 |  140923.4667 |  264231.5000 | 4515489.0000 | 4515489.0000 |  180619.5600 |  347345.3077 | 4817087.5000 | 3211391.6667 |  214092.7778 |  418877.1739 | 4093720.8000 | 4093720.8000 |  243673.8571 |  487347.7143 | 3930645.8182 | 3930645.8182 |  280760.4156 |  592289.0959 | 3980485.6957 | 3980485.6957 |  345476.1170 |  888846.3204 | 3919153.8367 | 4000802.8750 |  519023.0757 | 1477219.5231 | 3929128.3039 | 3968030.5644 |  942990.7929 | 2143160.8930 | 3955221.5377 | 3973966.6635 | 1544211.7238 | 2749203.1672 |
il1.accesses                                470340 |       470340 |       470340 |       470340 |      1005947 |      1005947 |      1005947 |      1005947 |      2113852 |      2113852 |      2113852 |      2113852 |      4515489 |      4515489 |      4515489 |      4515489 |      9634175 |      9634175 |      9634175 |      9634175 |     20468604 |     20468604 |     20468604 |     20468604 |     43237104 |     43237104 |     43237104 |     43237104 |     91551171 |     91551171 |     91551171 |     91551171 |    192038538 |    192038538 |    192038538 |    192038538 |    400771087 |    400771087 |    400771087 |    400771087 |    838506966 |    838506966 |    838506966 |    838506966 |
il1.hits                                    469870 |       469870 |       469899 |       469899 |      1005475 |      1005475 |      1005504 |      1005504 |      2113367 |      2113367 |      2113405 |      2113405 |      4515015 |      4515015 |      4515045 |      4515045 |      9633701 |      9633701 |      9633731 |      9633731 |     20468131 |     20468131 |     20468161 |     20468161 |     43236631 |     43236631 |     43236661 |     43236661 |     91550698 |     91550698 |     91550728 |     91550728 |    192038065 |    192038065 |    192038095 |    192038095 |    400770614 |    400770614 |    400770644 |    400770644 |    838506493 |    838506493 |    838506523 |    838506523 |
il1.misses                                     470 |          470 |          441 |          441 |          472 |          472 |          443 |          443 |          485 |          485 |          447 |          447 |          474 |          474 |          444 |          444 |          474 |          474 |          444 |          444 |          473 |          473 |          443 |          443 |          473 |          473 |          443 |          443 |          473 |          473 |          443 |          443 |          473 |          473 |          443 |          443 |          473 |          473 |          443 |          443 |          473 |          473 |          443 |          443 |
il1.replacements                               228 |          228 |          185 |          185 |          230 |          230 |          187 |          187 |          245 |          245 |          191 |          191 |          233 |          233 |          188 |          188 |          233 |          233 |          188 |          188 |          233 |          233 |          187 |          187 |          233 |          233 |          187 |          187 |          233 |          233 |          187 |          187 |          233 |          233 |          187 |          187 |          233 |          233 |          187 |          187 |          233 |          233 |          187 |          187 |
il1.writebacks                                   0 |            0 |            0 |            0 |            0 |            0 |            0 |            0 |            0 |            0 |            0 |            0 |            0 |            0 |            0 |            0 |            0 |            0 |            0 |            0 |            0 |            0 |            0 |            0 |            0 |            0 |            0 |            0 |            0 |            0 |            0 |            0 |            0 |            0 |            0 |            0 |            0 |            0 |            0 |            0 |            0 |            0 |            0 |            0 |
il1.invalidations                                0 |            0 |            0 |            0 |            0 |            0 |            0 |            0 |            0 |            0 |            0 |            0 |            0 |            0 |            0 |            0 |            0 |            0 |            0 |            0 |            0 |            0 |            0 |            0 |            0 |            0 |            0 |            0 |            0 |            0 |            0 |            0 |            0 |            0 |            0 |            0 |            0 |            0 |            0 |            0 |            0 |            0 |            0 |            0 |
il1.miss_rate                               0.0010 |       0.0010 |       0.0009 |       0.0009 |       0.0005 |       0.0005 |       0.0004 |       0.0004 |       0.0002 |       0.0002 |       0.0002 |       0.0002 |       0.0001 |       0.0001 |       0.0001 |       0.0001 |       0.0000 |       0.0000 |       0.0000 |       0.0000 |       0.0000 |       0.0000 |       0.0000 |       0.0000 |       0.0000 |       0.0000 |       0.0000 |       0.0000 |       0.0000 |       0.0000 |       0.0000 |       0.0000 |       0.0000 |       0.0000 |       0.0000 |       0.0000 |       0.0000 |       0.0000 |       0.0000 |       0.0000 |       0.0000 |       0.0000 |       0.0000 |       0.0000 |
il1.repl_rate                               0.0005 |       0.0005 |       0.0004 |       0.0004 |       0.0002 |       0.0002 |       0.0002 |       0.0002 |       0.0001 |       0.0001 |       0.0001 |       0.0001 |       0.0001 |       0.0001 |       0.0000 |       0.0000 |       0.0000 |       0.0000 |       0.0000 |       0.0000 |       0.0000 |       0.0000 |       0.0000 |       0.0000 |       0.0000 |       0.0000 |       0.0000 |       0.0000 |       0.0000 |       0.0000 |       0.0000 |       0.0000 |       0.0000 |       0.0000 |       0.0000 |       0.0000 |       0.0000 |       0.0000 |       0.0000 |       0.0000 |       0.0000 |       0.0000 |       0.0000 |       0.0000 |
il1.wb_rate                                 0.0000 |       0.0000 |       0.0000 |       0.0000 |       0.0000 |       0.0000 |       0.0000 |       0.0000 |       0.0000 |       0.0000 |       0.0000 |       0.0000 |       0.0000 |       0.0000 |       0.0000 |       0.0000 |       0.0000 |       0.0000 |       0.0000 |       0.0000 |       0.0000 |       0.0000 |       0.0000 |       0.0000 |       0.0000 |       0.0000 |       0.0000 |       0.0000 |       0.0000 |       0.0000 |       0.0000 |       0.0000 |       0.0000 |       0.0000 |       0.0000 |       0.0000 |       0.0000 |       0.0000 |       0.0000 |       0.0000 |       0.0000 |       0.0000 |       0.0000 |       0.0000 |
il1.inv_rate                                0.0000 |       0.0000 |       0.0000 |       0.0000 |       0.0000 |       0.0000 |       0.0000 |       0.0000 |       0.0000 |       0.0000 |       0.0000 |       0.0000 |       0.0000 |       0.0000 |       0.0000 |       0.0000 |       0.0000 |       0.0000 |       0.0000 |       0.0000 |       0.0000 |       0.0000 |       0.0000 |       0.0000 |       0.0000 |       0.0000 |       0.0000 |       0.0000 |       0.0000 |       0.0000 |       0.0000 |       0.0000 |       0.0000 |       0.0000 |       0.0000 |       0.0000 |       0.0000 |       0.0000 |       0.0000 |       0.0000 |       0.0000 |       0.0000 |       0.0000 |       0.0000 |
dl1.accesses                                143563 |       143563 |       143563 |       143563 |       299652 |       299652 |       299652 |       299652 |       624150 |       624150 |       624150 |       624150 |      1312564 |      1312564 |      1312564 |      1312564 |      2760232 |      2760232 |      2760232 |      2760232 |      5797036 |      5797036 |      5797036 |      5797036 |     12126549 |     12126549 |     12126549 |     12126549 |     25405761 |     25405761 |     25405761 |     25405761 |     52924542 |     52924542 |     52924542 |     52924542 |    109968865 |    109968865 |    109968865 |    109968865 |    228662169 |    228662169 |    228662169 |    228662169 |
dl1.hits                                    140821 |       140821 |       140749 |       140749 |       293722 |       293722 |       293690 |       293690 |       611210 |       611210 |       611200 |       611200 |      1282623 |      1282623 |      1282555 |      1282555 |      2691405 |      2691405 |      2691213 |      2691213 |      5638955 |      5638955 |      5640010 |      5640010 |     11774639 |     11774639 |     11776210 |     11776210 |     24617271 |     24617271 |     24624104 |     24624104 |     51207357 |     51207357 |     51224353 |     51224353 |    106274034 |    106274034 |    106317073 |    106317073 |    220672446 |    220672446 |    220775187 |    220775187 |
dl1.misses                                    2742 |         2742 |         2814 |         2814 |         5930 |         5930 |         5962 |         5962 |        12940 |        12940 |        12950 |        12950 |        29941 |        29941 |        30009 |        30009 |        68827 |        68827 |        69019 |        69019 |       158081 |       158081 |       157026 |       157026 |       351910 |       351910 |       350339 |       350339 |       788490 |       788490 |       781657 |       781657 |      1717185 |      1717185 |      1700189 |      1700189 |      3694831 |      3694831 |      3651792 |      3651792 |      7989723 |      7989723 |      7886982 |      7886982 |
dl1.replacements                              2486 |         2486 |         2558 |         2558 |         5674 |         5674 |         5706 |         5706 |        12684 |        12684 |        12694 |        12694 |        29685 |        29685 |        29753 |        29753 |        68571 |        68571 |        68763 |        68763 |       157825 |       157825 |       156770 |       156770 |       351654 |       351654 |       350083 |       350083 |       788234 |       788234 |       781401 |       781401 |      1716929 |      1716929 |      1699933 |      1699933 |      3694575 |      3694575 |      3651536 |      3651536 |      7989467 |      7989467 |      7886726 |      7886726 |
dl1.writebacks                                2393 |         2393 |         2480 |         2480 |         5509 |         5509 |         5596 |         5596 |        12448 |        12448 |        12581 |        12581 |        29052 |        29052 |        29357 |        29357 |        66512 |        66512 |        67279 |        67279 |       152591 |       152591 |       153109 |       153109 |       339193 |       339193 |       341202 |       341202 |       751824 |       751824 |       753282 |       753282 |      1642960 |      1642960 |      1644607 |      1644607 |      3550627 |      3550627 |      3549844 |      3549844 |      7664822 |      7664822 |      7656224 |      7656224 |
dl1.invalidations                                0 |            0 |            0 |            0 |            0 |            0 |            0 |            0 |            0 |            0 |            0 |            0 |            0 |            0 |            0 |            0 |            0 |            0 |            0 |            0 |            0 |            0 |            0 |            0 |            0 |            0 |            0 |            0 |            0 |            0 |            0 |            0 |            0 |            0 |            0 |            0 |            0 |            0 |            0 |            0 |            0 |            0 |            0 |            0 |
dl1.miss_rate                               0.0191 |       0.0191 |       0.0196 |       0.0196 |       0.0198 |       0.0198 |       0.0199 |       0.0199 |       0.0207 |       0.0207 |       0.0207 |       0.0207 |       0.0228 |       0.0228 |       0.0229 |       0.0229 |       0.0249 |       0.0249 |       0.0250 |       0.0250 |       0.0273 |       0.0273 |       0.0271 |       0.0271 |       0.0290 |       0.0290 |       0.0289 |       0.0289 |       0.0310 |       0.0310 |       0.0308 |       0.0308 |       0.0324 |       0.0324 |       0.0321 |       0.0321 |       0.0336 |       0.0336 |       0.0332 |       0.0332 |       0.0349 |       0.0349 |       0.0345 |       0.0345 |
dl1.repl_rate                               0.0173 |       0.0173 |       0.0178 |       0.0178 |       0.0189 |       0.0189 |       0.0190 |       0.0190 |       0.0203 |       0.0203 |       0.0203 |       0.0203 |       0.0226 |       0.0226 |       0.0227 |       0.0227 |       0.0248 |       0.0248 |       0.0249 |       0.0249 |       0.0272 |       0.0272 |       0.0270 |       0.0270 |       0.0290 |       0.0290 |       0.0289 |       0.0289 |       0.0310 |       0.0310 |       0.0308 |       0.0308 |       0.0324 |       0.0324 |       0.0321 |       0.0321 |       0.0336 |       0.0336 |       0.0332 |       0.0332 |       0.0349 |       0.0349 |       0.0345 |       0.0345 |
dl1.wb_rate                                 0.0167 |       0.0167 |       0.0173 |       0.0173 |       0.0184 |       0.0184 |       0.0187 |       0.0187 |       0.0199 |       0.0199 |       0.0202 |       0.0202 |       0.0221 |       0.0221 |       0.0224 |       0.0224 |       0.0241 |       0.0241 |       0.0244 |       0.0244 |       0.0263 |       0.0263 |       0.0264 |       0.0264 |       0.0280 |       0.0280 |       0.0281 |       0.0281 |       0.0296 |       0.0296 |       0.0297 |       0.0297 |       0.0310 |       0.0310 |       0.0311 |       0.0311 |       0.0323 |       0.0323 |       0.0323 |       0.0323 |       0.0335 |       0.0335 |       0.0335 |       0.0335 |
dl1.inv_rate                                0.0000 |       0.0000 |       0.0000 |       0.0000 |       0.0000 |       0.0000 |       0.0000 |       0.0000 |       0.0000 |       0.0000 |       0.0000 |       0.0000 |       0.0000 |       0.0000 |       0.0000 |       0.0000 |       0.0000 |       0.0000 |       0.0000 |       0.0000 |       0.0000 |       0.0000 |       0.0000 |       0.0000 |       0.0000 |       0.0000 |       0.0000 |       0.0000 |       0.0000 |       0.0000 |       0.0000 |       0.0000 |       0.0000 |       0.0000 |       0.0000 |       0.0000 |       0.0000 |       0.0000 |       0.0000 |       0.0000 |       0.0000 |       0.0000 |       0.0000 |       0.0000 |
dl2.accesses                                  5605 |         5605 |         5735 |         5735 |        11911 |        11911 |        12001 |        12001 |        25873 |        25873 |        25978 |        25978 |        59467 |        59467 |        59810 |        59810 |       135813 |       135813 |       136742 |       136742 |       311145 |       311145 |       310578 |       310578 |       691576 |       691576 |       691984 |       691984 |      1540787 |      1540787 |      1535382 |      1535382 |      3360618 |      3360618 |      3345239 |      3345239 |      7245931 |      7245931 |      7202079 |      7202079 |     15655018 |     15655018 |     15543649 |     15543649 |
dl2.hits                                      4216 |         4216 |         4361 |         4361 |        10007 |        10007 |        10113 |        10113 |        22946 |        22946 |        23072 |        23072 |        54498 |        54498 |        54856 |        54856 |       126748 |       126748 |       127692 |       127692 |       293889 |       293889 |       293337 |       293337 |       657936 |       657936 |       658359 |       658359 |      1474379 |      1473622 |      1468989 |      1448351 |      3227891 |      2880957 |      3162597 |      2809692 |      6265611 |      5971456 |      6183235 |      5842097 |     13119495 |     12501124 |     12819575 |     12243677 |
dl2.misses                                    1389 |         1389 |         1374 |         1374 |         1904 |         1904 |         1888 |         1888 |         2927 |         2927 |         2906 |         2906 |         4969 |         4969 |         4954 |         4954 |         9065 |         9065 |         9050 |         9050 |        17256 |        17256 |        17241 |        17241 |        33640 |        33640 |        33625 |        33625 |        66408 |        67165 |        66393 |        87031 |       132727 |       479661 |       182642 |       535547 |       980320 |      1274475 |      1018844 |      1359982 |      2535523 |      3153894 |      2724074 |      3299972 |
dl2.replacements                               171 |          171 |            0 |            0 |          173 |          173 |            0 |            0 |          178 |          178 |            0 |            0 |          173 |          173 |            0 |            0 |          173 |          173 |            0 |            0 |          173 |          173 |            0 |            0 |          173 |          173 |            0 |            0 |          173 |         1629 |            0 |        21495 |         1655 |       414125 |        51570 |       470011 |       849248 |      1208939 |       887772 |      1294446 |      2404451 |      3088358 |      2593002 |      3234436 |
dl2.writebacks                                 105 |          105 |            0 |            0 |          107 |          107 |            0 |            0 |          108 |          108 |            0 |            0 |          107 |          107 |            0 |            0 |          107 |          107 |            0 |            0 |          107 |          107 |            0 |            0 |          107 |          107 |            0 |            0 |          107 |         1304 |            0 |        21184 |         1328 |       408832 |        51259 |       461381 |       842140 |      1190768 |       880405 |      1274561 |      2370118 |      3024196 |      2549511 |      3165048 |
dl2.invalidations                                0 |            0 |            0 |            0 |            0 |            0 |            0 |            0 |            0 |            0 |            0 |            0 |            0 |            0 |            0 |            0 |            0 |            0 |            0 |            0 |            0 |            0 |            0 |            0 |            0 |            0 |            0 |            0 |            0 |            0 |            0 |            0 |            0 |            0 |            0 |            0 |            0 |            0 |            0 |            0 |            0 |            0 |            0 |            0 |
dl2.miss_rate                               0.2478 |       0.2478 |       0.2396 |       0.2396 |       0.1599 |       0.1599 |       0.1573 |       0.1573 |       0.1131 |       0.1131 |       0.1119 |       0.1119 |       0.0836 |       0.0836 |       0.0828 |       0.0828 |       0.0667 |       0.0667 |       0.0662 |       0.0662 |       0.0555 |       0.0555 |       0.0555 |       0.0555 |       0.0486 |       0.0486 |       0.0486 |       0.0486 |       0.0431 |       0.0436 |       0.0432 |       0.0567 |       0.0395 |       0.1427 |       0.0546 |       0.1601 |       0.1353 |       0.1759 |       0.1415 |       0.1888 |       0.1620 |       0.2015 |       0.1753 |       0.2123 |
dl2.repl_rate                               0.0305 |       0.0305 |       0.0000 |       0.0000 |       0.0145 |       0.0145 |       0.0000 |       0.0000 |       0.0069 |       0.0069 |       0.0000 |       0.0000 |       0.0029 |       0.0029 |       0.0000 |       0.0000 |       0.0013 |       0.0013 |       0.0000 |       0.0000 |       0.0006 |       0.0006 |       0.0000 |       0.0000 |       0.0003 |       0.0003 |       0.0000 |       0.0000 |       0.0001 |       0.0011 |       0.0000 |       0.0140 |       0.0005 |       0.1232 |       0.0154 |       0.1405 |       0.1172 |       0.1668 |       0.1233 |       0.1797 |       0.1536 |       0.1973 |       0.1668 |       0.2081 |
dl2.wb_rate                                 0.0187 |       0.0187 |       0.0000 |       0.0000 |       0.0090 |       0.0090 |       0.0000 |       0.0000 |       0.0042 |       0.0042 |       0.0000 |       0.0000 |       0.0018 |       0.0018 |       0.0000 |       0.0000 |       0.0008 |       0.0008 |       0.0000 |       0.0000 |       0.0003 |       0.0003 |       0.0000 |       0.0000 |       0.0002 |       0.0002 |       0.0000 |       0.0000 |       0.0001 |       0.0008 |       0.0000 |       0.0138 |       0.0004 |       0.1217 |       0.0153 |       0.1379 |       0.1162 |       0.1643 |       0.1222 |       0.1770 |       0.1514 |       0.1932 |       0.1640 |       0.2036 |
dl2.inv_rate                                0.0000 |       0.0000 |       0.0000 |       0.0000 |       0.0000 |       0.0000 |       0.0000 |       0.0000 |       0.0000 |       0.0000 |       0.0000 |       0.0000 |       0.0000 |       0.0000 |       0.0000 |       0.0000 |       0.0000 |       0.0000 |       0.0000 |       0.0000 |       0.0000 |       0.0000 |       0.0000 |       0.0000 |       0.0000 |       0.0000 |       0.0000 |       0.0000 |       0.0000 |       0.0000 |       0.0000 |       0.0000 |       0.0000 |       0.0000 |       0.0000 |       0.0000 |       0.0000 |       0.0000 |       0.0000 |       0.0000 |       0.0000 |       0.0000 |       0.0000 |       0.0000 |
itlb.accesses                               470340 |       470340 |       470340 |       470340 |      1005947 |      1005947 |      1005947 |      1005947 |      2113852 |      2113852 |      2113852 |      2113852 |      4515489 |      4515489 |      4515489 |      4515489 |      9634175 |      9634175 |      9634175 |      9634175 |     20468604 |     20468604 |     20468604 |     20468604 |     43237104 |     43237104 |     43237104 |     43237104 |     91551171 |     91551171 |     91551171 |     91551171 |    192038538 |    192038538 |    192038538 |    192038538 |    400771087 |    400771087 |    400771087 |    400771087 |    838506966 |    838506966 |    838506966 |    838506966 |
itlb.hits                                   470330 |       470330 |       470330 |       470330 |      1005937 |      1005937 |      1005937 |      1005937 |      2113842 |      2113842 |      2113842 |      2113842 |      4515479 |      4515479 |      4515479 |      4515479 |      9634165 |      9634165 |      9634165 |      9634165 |     20468594 |     20468594 |     20468594 |     20468594 |     43237094 |     43237094 |     43237094 |     43237094 |     91551161 |     91551161 |     91551161 |     91551161 |    192038528 |    192038528 |    192038528 |    192038528 |    400771077 |    400771077 |    400771077 |    400771077 |    838506956 |    838506956 |    838506956 |    838506956 |
itlb.misses                                     10 |           10 |           10 |           10 |           10 |           10 |           10 |           10 |           10 |           10 |           10 |           10 |           10 |           10 |           10 |           10 |           10 |           10 |           10 |           10 |           10 |           10 |           10 |           10 |           10 |           10 |           10 |           10 |           10 |           10 |           10 |           10 |           10 |           10 |           10 |           10 |           10 |           10 |           10 |           10 |           10 |           10 |           10 |           10 |
itlb.replacements                                0 |            0 |            0 |            0 |            0 |            0 |            0 |            0 |            0 |            0 |            0 |            0 |            0 |            0 |            0 |            0 |            0 |            0 |            0 |            0 |            0 |            0 |            0 |            0 |            0 |            0 |            0 |            0 |            0 |            0 |            0 |            0 |            0 |            0 |            0 |            0 |            0 |            0 |            0 |            0 |            0 |            0 |            0 |            0 |
itlb.writebacks                                  0 |            0 |            0 |            0 |            0 |            0 |            0 |            0 |            0 |            0 |            0 |            0 |            0 |            0 |            0 |            0 |            0 |            0 |            0 |            0 |            0 |            0 |            0 |            0 |            0 |            0 |            0 |            0 |            0 |            0 |            0 |            0 |            0 |            0 |            0 |            0 |            0 |            0 |            0 |            0 |            0 |            0 |            0 |            0 |
itlb.invalidations                               0 |            0 |            0 |            0 |            0 |            0 |            0 |            0 |            0 |            0 |            0 |            0 |            0 |            0 |            0 |            0 |            0 |            0 |            0 |            0 |            0 |            0 |            0 |            0 |            0 |            0 |            0 |            0 |            0 |            0 |            0 |            0 |            0 |            0 |            0 |            0 |            0 |            0 |            0 |            0 |            0 |            0 |            0 |            0 |
itlb.miss_rate                              0.0000 |       0.0000 |       0.0000 |       0.0000 |       0.0000 |       0.0000 |       0.0000 |       0.0000 |       0.0000 |       0.0000 |       0.0000 |       0.0000 |       0.0000 |       0.0000 |       0.0000 |       0.0000 |       0.0000 |       0.0000 |       0.0000 |       0.0000 |       0.0000 |       0.0000 |       0.0000 |       0.0000 |       0.0000 |       0.0000 |       0.0000 |       0.0000 |       0.0000 |       0.0000 |       0.0000 |       0.0000 |       0.0000 |       0.0000 |       0.0000 |       0.0000 |       0.0000 |       0.0000 |       0.0000 |       0.0000 |       0.0000 |       0.0000 |       0.0000 |       0.0000 |
itlb.repl_rate                              0.0000 |       0.0000 |       0.0000 |       0.0000 |       0.0000 |       0.0000 |       0.0000 |       0.0000 |       0.0000 |       0.0000 |       0.0000 |       0.0000 |       0.0000 |       0.0000 |       0.0000 |       0.0000 |       0.0000 |       0.0000 |       0.0000 |       0.0000 |       0.0000 |       0.0000 |       0.0000 |       0.0000 |       0.0000 |       0.0000 |       0.0000 |       0.0000 |       0.0000 |       0.0000 |       0.0000 |       0.0000 |       0.0000 |       0.0000 |       0.0000 |       0.0000 |       0.0000 |       0.0000 |       0.0000 |       0.0000 |       0.0000 |       0.0000 |       0.0000 |       0.0000 |
itlb.wb_rate                                0.0000 |       0.0000 |       0.0000 |       0.0000 |       0.0000 |       0.0000 |       0.0000 |       0.0000 |       0.0000 |       0.0000 |       0.0000 |       0.0000 |       0.0000 |       0.0000 |       0.0000 |       0.0000 |       0.0000 |       0.0000 |       0.0000 |       0.0000 |       0.0000 |       0.0000 |       0.0000 |       0.0000 |       0.0000 |       0.0000 |       0.0000 |       0.0000 |       0.0000 |       0.0000 |       0.0000 |       0.0000 |       0.0000 |       0.0000 |       0.0000 |       0.0000 |       0.0000 |       0.0000 |       0.0000 |       0.0000 |       0.0000 |       0.0000 |       0.0000 |       0.0000 |
itlb.inv_rate                               0.0000 |       0.0000 |       0.0000 |       0.0000 |       0.0000 |       0.0000 |       0.0000 |       0.0000 |       0.0000 |       0.0000 |       0.0000 |       0.0000 |       0.0000 |       0.0000 |       0.0000 |       0.0000 |       0.0000 |       0.0000 |       0.0000 |       0.0000 |       0.0000 |       0.0000 |       0.0000 |       0.0000 |       0.0000 |       0.0000 |       0.0000 |       0.0000 |       0.0000 |       0.0000 |       0.0000 |       0.0000 |       0.0000 |       0.0000 |       0.0000 |       0.0000 |       0.0000 |       0.0000 |       0.0000 |       0.0000 |       0.0000 |       0.0000 |       0.0000 |       0.0000 |
dtlb.accesses                               143563 |       143563 |       143563 |       143563 |       299652 |       299652 |       299652 |       299652 |       624150 |       624150 |       624150 |       624150 |      1312564 |      1312564 |      1312564 |      1312564 |      2760232 |      2760232 |      2760232 |      2760232 |      5797036 |      5797036 |      5797036 |      5797036 |     12126549 |     12126549 |     12126549 |     12126549 |     25405761 |     25405761 |     25405761 |     25405761 |     52924542 |     52924542 |     52924542 |     52924542 |    109968865 |    109968865 |    109968865 |    109968865 |    228662169 |    228662169 |    228662169 |    228662169 |
dtlb.hits                                   143551 |       143551 |       143551 |       143551 |       299636 |       299636 |       299636 |       299636 |       624126 |       624126 |       624126 |       624126 |      1312524 |      1312524 |      1312524 |      1312524 |      2760160 |      2760160 |      2760160 |      2760160 |      5796851 |      5796851 |      5796851 |      5796851 |     12125519 |     12125519 |     12125519 |     12125519 |     25402956 |     25402956 |     25402956 |     25402956 |     52918005 |     52918005 |     52918005 |     52918005 |    109953978 |    109953978 |    109953978 |    109953978 |    228627497 |    228627497 |    228627497 |    228627497 |
dtlb.misses                                     12 |           12 |           12 |           12 |           16 |           16 |           16 |           16 |           24 |           24 |           24 |           24 |           40 |           40 |           40 |           40 |           72 |           72 |           72 |           72 |          185 |          185 |          185 |          185 |         1030 |         1030 |         1030 |         1030 |         2805 |         2805 |         2805 |         2805 |         6537 |         6537 |         6537 |         6537 |        14887 |        14887 |        14887 |        14887 |        34672 |        34672 |        34672 |        34672 |
dtlb.replacements                                0 |            0 |            0 |            0 |            0 |            0 |            0 |            0 |            0 |            0 |            0 |            0 |            0 |            0 |            0 |            0 |            0 |            0 |            0 |            0 |           57 |           57 |           57 |           57 |          902 |          902 |          902 |          902 |         2677 |         2677 |         2677 |         2677 |         6409 |         6409 |         6409 |         6409 |        14759 |        14759 |        14759 |        14759 |        34544 |        34544 |        34544 |        34544 |
dtlb.writebacks                                  0 |            0 |            0 |            0 |            0 |            0 |            0 |            0 |            0 |            0 |            0 |            0 |            0 |            0 |            0 |            0 |            0 |            0 |            0 |            0 |           54 |           54 |           54 |           54 |          893 |          893 |          893 |          893 |         2662 |         2662 |         2662 |         2662 |         6379 |         6379 |         6379 |         6379 |        14693 |        14693 |        14693 |        14693 |        34404 |        34404 |        34404 |        34404 |
dtlb.invalidations                               0 |            0 |            0 |            0 |            0 |            0 |            0 |            0 |            0 |            0 |            0 |            0 |            0 |            0 |            0 |            0 |            0 |            0 |            0 |            0 |            0 |            0 |            0 |            0 |            0 |            0 |            0 |            0 |            0 |            0 |            0 |            0 |            0 |            0 |            0 |            0 |            0 |            0 |            0 |            0 |            0 |            0 |            0 |            0 |
dtlb.miss_rate                              0.0001 |       0.0001 |       0.0001 |       0.0001 |       0.0001 |       0.0001 |       0.0001 |       0.0001 |       0.0000 |       0.0000 |       0.0000 |       0.0000 |       0.0000 |       0.0000 |       0.0000 |       0.0000 |       0.0000 |       0.0000 |       0.0000 |       0.0000 |       0.0000 |       0.0000 |       0.0000 |       0.0000 |       0.0001 |       0.0001 |       0.0001 |       0.0001 |       0.0001 |       0.0001 |       0.0001 |       0.0001 |       0.0001 |       0.0001 |       0.0001 |       0.0001 |       0.0001 |       0.0001 |       0.0001 |       0.0001 |       0.0002 |       0.0002 |       0.0002 |       0.0002 |
dtlb.repl_rate                              0.0000 |       0.0000 |       0.0000 |       0.0000 |       0.0000 |       0.0000 |       0.0000 |       0.0000 |       0.0000 |       0.0000 |       0.0000 |       0.0000 |       0.0000 |       0.0000 |       0.0000 |       0.0000 |       0.0000 |       0.0000 |       0.0000 |       0.0000 |       0.0000 |       0.0000 |       0.0000 |       0.0000 |       0.0001 |       0.0001 |       0.0001 |       0.0001 |       0.0001 |       0.0001 |       0.0001 |       0.0001 |       0.0001 |       0.0001 |       0.0001 |       0.0001 |       0.0001 |       0.0001 |       0.0001 |       0.0001 |       0.0002 |       0.0002 |       0.0002 |       0.0002 |
dtlb.wb_rate                                0.0000 |       0.0000 |       0.0000 |       0.0000 |       0.0000 |       0.0000 |       0.0000 |       0.0000 |       0.0000 |       0.0000 |       0.0000 |       0.0000 |       0.0000 |       0.0000 |       0.0000 |       0.0000 |       0.0000 |       0.0000 |       0.0000 |       0.0000 |       0.0000 |       0.0000 |       0.0000 |       0.0000 |       0.0001 |       0.0001 |       0.0001 |       0.0001 |       0.0001 |       0.0001 |       0.0001 |       0.0001 |       0.0001 |       0.0001 |       0.0001 |       0.0001 |       0.0001 |       0.0001 |       0.0001 |       0.0001 |       0.0002 |       0.0002 |       0.0002 |       0.0002 |
dtlb.inv_rate                               0.0000 |       0.0000 |       0.0000 |       0.0000 |       0.0000 |       0.0000 |       0.0000 |       0.0000 |       0.0000 |       0.0000 |       0.0000 |       0.0000 |       0.0000 |       0.0000 |       0.0000 |       0.0000 |       0.0000 |       0.0000 |       0.0000 |       0.0000 |       0.0000 |       0.0000 |       0.0000 |       0.0000 |       0.0000 |       0.0000 |       0.0000 |       0.0000 |       0.0000 |       0.0000 |       0.0000 |       0.0000 |       0.0000 |       0.0000 |       0.0000 |       0.0000 |       0.0000 |       0.0000 |       0.0000 |       0.0000 |       0.0000 |       0.0000 |       0.0000 |       0.0000 |
ld_text_base                            0x00400000 |   0x00400000 |   0x00400000 |   0x00400000 |   0x00400000 |   0x00400000 |   0x00400000 |   0x00400000 |   0x00400000 |   0x00400000 |   0x00400000 |   0x00400000 |   0x00400000 |   0x00400000 |   0x00400000 |   0x00400000 |   0x00400000 |   0x00400000 |   0x00400000 |   0x00400000 |   0x00400000 |   0x00400000 |   0x00400000 |   0x00400000 |   0x00400000 |   0x00400000 |   0x00400000 |   0x00400000 |   0x00400000 |   0x00400000 |   0x00400000 |   0x00400000 |   0x00400000 |   0x00400000 |   0x00400000 |   0x00400000 |   0x00400000 |   0x00400000 |   0x00400000 |   0x00400000 |   0x00400000 |   0x00400000 |   0x00400000 |   0x00400000 |
ld_text_size                                 74192 |        74192 |        74192 |        74192 |        74224 |        74224 |        74224 |        74224 |        74240 |        74240 |        74240 |        74240 |        74256 |        74256 |        74256 |        74256 |        74256 |        74256 |        74256 |        74256 |        74256 |        74256 |        74256 |        74256 |        74256 |        74256 |        74256 |        74256 |        74256 |        74256 |        74256 |        74256 |        74256 |        74256 |        74256 |        74256 |        74256 |        74256 |        74256 |        74256 |        74256 |        74256 |        74256 |        74256 |
ld_data_base                            0x10000000 |   0x10000000 |   0x10000000 |   0x10000000 |   0x10000000 |   0x10000000 |   0x10000000 |   0x10000000 |   0x10000000 |   0x10000000 |   0x10000000 |   0x10000000 |   0x10000000 |   0x10000000 |   0x10000000 |   0x10000000 |   0x10000000 |   0x10000000 |   0x10000000 |   0x10000000 |   0x10000000 |   0x10000000 |   0x10000000 |   0x10000000 |   0x10000000 |   0x10000000 |   0x10000000 |   0x10000000 |   0x10000000 |   0x10000000 |   0x10000000 |   0x10000000 |   0x10000000 |   0x10000000 |   0x10000000 |   0x10000000 |   0x10000000 |   0x10000000 |   0x10000000 |   0x10000000 |   0x10000000 |   0x10000000 |   0x10000000 |   0x10000000 |
ld_data_size                                  8192 |         8192 |         8192 |         8192 |         8192 |         8192 |         8192 |         8192 |         8192 |         8192 |         8192 |         8192 |         8192 |         8192 |         8192 |         8192 |         8192 |         8192 |         8192 |         8192 |         8192 |         8192 |         8192 |         8192 |         8192 |         8192 |         8192 |         8192 |         8192 |         8192 |         8192 |         8192 |         8192 |         8192 |         8192 |         8192 |         8192 |         8192 |         8192 |         8192 |         8192 |         8192 |         8192 |         8192 |
ld_stack_base                           0x7fffc000 |   0x7fffc000 |   0x7fffc000 |   0x7fffc000 |   0x7fffc000 |   0x7fffc000 |   0x7fffc000 |   0x7fffc000 |   0x7fffc000 |   0x7fffc000 |   0x7fffc000 |   0x7fffc000 |   0x7fffc000 |   0x7fffc000 |   0x7fffc000 |   0x7fffc000 |   0x7fffc000 |   0x7fffc000 |   0x7fffc000 |   0x7fffc000 |   0x7fffc000 |   0x7fffc000 |   0x7fffc000 |   0x7fffc000 |   0x7fffc000 |   0x7fffc000 |   0x7fffc000 |   0x7fffc000 |   0x7fffc000 |   0x7fffc000 |   0x7fffc000 |   0x7fffc000 |   0x7fffc000 |   0x7fffc000 |   0x7fffc000 |   0x7fffc000 |   0x7fffc000 |   0x7fffc000 |   0x7fffc000 |   0x7fffc000 |   0x7fffc000 |   0x7fffc000 |   0x7fffc000 |   0x7fffc000 |
ld_stack_size                                16384 |        16384 |        16384 |        16384 |        16384 |        16384 |        16384 |        16384 |        16384 |        16384 |        16384 |        16384 |        16384 |        16384 |        16384 |        16384 |        16384 |        16384 |        16384 |        16384 |        16384 |        16384 |        16384 |        16384 |        16384 |        16384 |        16384 |        16384 |        16384 |        16384 |        16384 |        16384 |        16384 |        16384 |        16384 |        16384 |        16384 |        16384 |        16384 |        16384 |        16384 |        16384 |        16384 |        16384 |
ld_prog_entry                           0x00400140 |   0x00400140 |   0x00400140 |   0x00400140 |   0x00400140 |   0x00400140 |   0x00400140 |   0x00400140 |   0x00400140 |   0x00400140 |   0x00400140 |   0x00400140 |   0x00400140 |   0x00400140 |   0x00400140 |   0x00400140 |   0x00400140 |   0x00400140 |   0x00400140 |   0x00400140 |   0x00400140 |   0x00400140 |   0x00400140 |   0x00400140 |   0x00400140 |   0x00400140 |   0x00400140 |   0x00400140 |   0x00400140 |   0x00400140 |   0x00400140 |   0x00400140 |   0x00400140 |   0x00400140 |   0x00400140 |   0x00400140 |   0x00400140 |   0x00400140 |   0x00400140 |   0x00400140 |   0x00400140 |   0x00400140 |   0x00400140 |   0x00400140 |
ld_environ_base                         0x7fff8000 |   0x7fff8000 |   0x7fff8000 |   0x7fff8000 |   0x7fff8000 |   0x7fff8000 |   0x7fff8000 |   0x7fff8000 |   0x7fff8000 |   0x7fff8000 |   0x7fff8000 |   0x7fff8000 |   0x7fff8000 |   0x7fff8000 |   0x7fff8000 |   0x7fff8000 |   0x7fff8000 |   0x7fff8000 |   0x7fff8000 |   0x7fff8000 |   0x7fff8000 |   0x7fff8000 |   0x7fff8000 |   0x7fff8000 |   0x7fff8000 |   0x7fff8000 |   0x7fff8000 |   0x7fff8000 |   0x7fff8000 |   0x7fff8000 |   0x7fff8000 |   0x7fff8000 |   0x7fff8000 |   0x7fff8000 |   0x7fff8000 |   0x7fff8000 |   0x7fff8000 |   0x7fff8000 |   0x7fff8000 |   0x7fff8000 |   0x7fff8000 |   0x7fff8000 |   0x7fff8000 |   0x7fff8000 |
ld_target_big_endian                             0 |            0 |            0 |            0 |            0 |            0 |            0 |            0 |            0 |            0 |            0 |            0 |            0 |            0 |            0 |            0 |            0 |            0 |            0 |            0 |            0 |            0 |            0 |            0 |            0 |            0 |            0 |            0 |            0 |            0 |            0 |            0 |            0 |            0 |            0 |            0 |            0 |            0 |            0 |            0 |            0 |            0 |            0 |            0 |
mem.page_count                                  31 |           31 |           31 |           31 |           35 |           35 |           35 |           35 |           43 |           43 |           43 |           43 |           59 |           59 |           59 |           59 |           91 |           91 |           91 |           91 |          155 |          155 |          155 |          155 |          283 |          283 |          283 |          283 |          539 |          539 |          539 |          539 |         1051 |         1051 |         1051 |         1051 |         2075 |         2075 |         2075 |         2075 |         4123 |         4123 |         4123 |         4123 |
mem.page_mem                                  124k |         124k |         124k |         124k |         140k |         140k |         140k |         140k |         172k |         172k |         172k |         172k |         236k |         236k |         236k |         236k |         364k |         364k |         364k |         364k |         620k |         620k |         620k |         620k |        1132k |        1132k |        1132k |        1132k |        2156k |        2156k |        2156k |        2156k |        4204k |        4204k |        4204k |        4204k |        8300k |        8300k |        8300k |        8300k |       16492k |       16492k |       16492k |       16492k |
mem.ptab_misses                                 31 |           31 |           31 |           31 |           35 |           35 |           35 |           35 |           43 |           43 |           43 |           43 |           59 |           59 |           59 |           59 |           91 |           91 |           91 |           91 |          155 |          155 |          155 |          155 |          283 |          283 |          283 |          283 |          539 |          539 |          539 |          539 |         1051 |         1051 |         1051 |         1051 |         2075 |         2075 |         2075 |         2075 |         4123 |         4123 |         4123 |         4123 |
mem.ptab_accesses                          2628250 |      2628250 |      2628250 |      2628250 |      5083048 |      5083048 |      5083048 |      5083048 |     10163760 |     10163760 |     10163760 |     10163760 |     21147232 |     21147232 |     21147232 |     21147232 |     44517312 |     44517312 |     44517312 |     44517312 |     93928636 |     93928636 |     93928636 |     93928636 |    197661662 |    197661662 |    197661662 |    197661662 |    417476354 |    417476354 |    417476354 |    417476354 |    874463384 |    874463384 |    874463384 |    874463384 |   1823482226 |   1823482226 |   1823482226 |   1823482226 |   3811812350 |   3811812350 |   3811812350 |   3811812350 |
mem.ptab_miss_rate                          0.0000 |       0.0000 |       0.0000 |       0.0000 |       0.0000 |       0.0000 |       0.0000 |       0.0000 |       0.0000 |       0.0000 |       0.0000 |       0.0000 |       0.0000 |       0.0000 |       0.0000 |       0.0000 |       0.0000 |       0.0000 |       0.0000 |       0.0000 |       0.0000 |       0.0000 |       0.0000 |       0.0000 |       0.0000 |       0.0000 |       0.0000 |       0.0000 |       0.0000 |       0.0000 |       0.0000 |       0.0000 |       0.0000 |       0.0000 |       0.0000 |       0.0000 |       0.0000 |       0.0000 |       0.0000 |       0.0000 |       0.0000 |       0.0000 |       0.0000 |       0.0000 |
-------------------------------------------------------------------------------------------------
sim-bpred                                     4096 |         4096 |         4096 |         4096 |         4096 |         4096 |         4096 |         8192 |         8192 |         8192 |         8192 |         8192 |         8192 |         8192 |        16384 |        16384 |        16384 |        16384 |        16384 |        16384 |        16384 |        32768 |        32768 |        32768 |        32768 |        32768 |        32768 |        32768 |        65536 |        65536 |        65536 |        65536 |        65536 |        65536 |        65536 |       131072 |       131072 |       131072 |       131072 |       131072 |       131072 |       131072 |       262144 |       262144 |       262144 |       262144 |       262144 |       262144 |       262144 |       524288 |       524288 |       524288 |       524288 |       524288 |       524288 |       524288 |      1048576 |      1048576 |      1048576 |      1048576 |      1048576 |      1048576 |      1048576 |      2097152 |      2097152 |      2097152 |      2097152 |      2097152 |      2097152 |      2097152 |      4194304 |      4194304 |      4194304 |      4194304 |      4194304 |      4194304 |      4194304 |
-bpred bimod -bpred:bimod 512
-bpred bimod -bpred:bimod 1024
-bpred bimod -bpred:bimod 2048
-bpred 2lev -bpred:2lev 1 512 10 1
-bpred 2lev -bpred:2lev 1 1024 10 1
-bpred 2lev -bpred:2lev 1 2048 10 1
-bpred 2lev -bpred:2lev 1 4096 10 1
-------------------------------------------------------------------------------------------------
sim_num_insn                                470340 |       470340 |       470340 |       470340 |       470340 |       470340 |       470340 |      1005947 |      1005947 |      1005947 |      1005947 |      1005947 |      1005947 |      1005947 |      2113852 |      2113852 |      2113852 |      2113852 |      2113852 |      2113852 |      2113852 |      4515489 |      4515489 |      4515489 |      4515489 |      4515489 |      4515489 |      4515489 |      9634175 |      9634175 |      9634175 |      9634175 |      9634175 |      9634175 |      9634175 |     20468604 |     20468604 |     20468604 |     20468604 |     20468604 |     20468604 |     20468604 |     43237104 |     43237104 |     43237104 |     43237104 |     43237104 |     43237104 |     43237104 |     91551171 |     91551171 |     91551171 |     91551171 |     91551171 |     91551171 |     91551171 |    192038538 |    192038538 |    192038538 |    192038538 |    192038538 |    192038538 |    192038538 |    400771087 |    400771087 |    400771087 |    400771087 |    400771087 |    400771087 |    400771087 |    838506966 |    838506966 |    838506966 |    838506966 |    838506966 |    838506966 |    838506966 |
sim_num_refs                                127097 |       127097 |       127097 |       127097 |       127097 |       127097 |       127097 |       266802 |       266802 |       266802 |       266802 |       266802 |       266802 |       266802 |       558532 |       558532 |       558532 |       558532 |       558532 |       558532 |       558532 |      1181410 |      1181410 |      1181410 |      1181410 |      1181410 |      1181410 |      1181410 |      2498006 |      2498006 |      2498006 |      2498006 |      2498006 |      2498006 |      2498006 |      5272666 |      5272666 |      5272666 |      5272666 |      5272666 |      5272666 |      5272666 |     11077891 |     11077891 |     11077891 |     11077891 |     11077891 |     11077891 |     11077891 |     23308527 |     23308527 |     23308527 |     23308527 |     23308527 |     23308527 |     23308527 |     48730156 |     48730156 |     48730156 |     48730156 |     48730156 |     48730156 |     48730156 |    101580175 |    101580175 |    101580175 |    101580175 |    101580175 |    101580175 |    101580175 |    211884871 |    211884871 |    211884871 |    211884871 |    211884871 |    211884871 |    211884871 |
sim_elapsed_time                                 1 |            1 |            1 |            1 |            1 |            1 |            1 |            1 |            1 |            1 |            1 |            1 |            1 |            1 |            1 |            1 |            1 |            1 |            1 |            1 |            1 |            1 |            1 |            1 |            1 |            1 |            1 |            1 |            1 |            1 |            2 |            1 |            1 |            2 |            1 |            2 |            2 |            3 |            2 |            3 |            3 |            3 |            5 |            5 |            7 |            5 |            5 |            8 |            5 |           11 |           10 |           15 |           11 |           11 |           16 |           11 |           22 |           22 |           32 |           22 |           23 |           35 |           22 |           45 |           46 |           67 |           46 |           47 |           72 |           47 |           95 |           95 |          143 |           96 |           97 |          152 |           99 |
sim_inst_rate                          470340.0000 |  470340.0000 |  470340.0000 |  470340.0000 |  470340.0000 |  470340.0000 |  470340.0000 | 1005947.0000 | 1005947.0000 | 1005947.0000 | 1005947.0000 | 1005947.0000 | 1005947.0000 | 1005947.0000 | 2113852.0000 | 2113852.0000 | 2113852.0000 | 2113852.0000 | 2113852.0000 | 2113852.0000 | 2113852.0000 | 4515489.0000 | 4515489.0000 | 4515489.0000 | 4515489.0000 | 4515489.0000 | 4515489.0000 | 4515489.0000 | 9634175.0000 | 9634175.0000 | 4817087.5000 | 9634175.0000 | 9634175.0000 | 4817087.5000 | 9634175.0000 |10234302.0000 |10234302.0000 | 6822868.0000 |10234302.0000 | 6822868.0000 | 6822868.0000 | 6822868.0000 | 8647420.8000 | 8647420.8000 | 6176729.1429 | 8647420.8000 | 8647420.8000 | 5404638.0000 | 8647420.8000 | 8322833.7273 | 9155117.1000 | 6103411.4000 | 8322833.7273 | 8322833.7273 | 5721948.1875 | 8322833.7273 | 8729024.4545 | 8729024.4545 | 6001204.3125 | 8729024.4545 | 8349501.6522 | 5486815.3714 | 8729024.4545 | 8906024.1556 | 8712414.9348 | 5981658.0149 | 8712414.9348 | 8527044.4043 | 5566265.0972 | 8527044.4043 | 8826389.1158 | 8826389.1158 | 5863685.0769 | 8734447.5625 | 8644401.7113 | 5516493.1974 | 8469767.3333 |
sim_num_branches                             77359 |        77359 |        77359 |        77359 |        77359 |        77359 |        77359 |       166700 |       166700 |       166700 |       166700 |       166700 |       166700 |       166700 |       353121 |       353121 |       353121 |       353121 |       353121 |       353121 |       353121 |       758810 |       758810 |       758810 |       758810 |       758810 |       758810 |       758810 |      1625230 |      1625230 |      1625230 |      1625230 |      1625230 |      1625230 |      1625230 |      3467622 |      3467622 |      3467622 |      3467622 |      3467622 |      3467622 |      3467622 |      7350285 |      7350285 |      7350285 |      7350285 |      7350285 |      7350285 |      7350285 |     15612703 |     15612703 |     15612703 |     15612703 |     15612703 |     15612703 |     15612703 |     32824177 |     32824177 |     32824177 |     32824177 |     32824177 |     32824177 |     32824177 |     68707839 |     68707839 |     68707839 |     68707839 |     68707839 |     68707839 |     68707839 |    144126636 |    144126636 |    144126636 |    144126636 |    144126636 |    144126636 |    144126636 |
sim_IPB                                     6.0800 |       6.0800 |       6.0800 |       6.0800 |       6.0800 |       6.0800 |       6.0800 |       6.0345 |       6.0345 |       6.0345 |       6.0345 |       6.0345 |       6.0345 |       6.0345 |       5.9862 |       5.9862 |       5.9862 |       5.9862 |       5.9862 |       5.9862 |       5.9862 |       5.9508 |       5.9508 |       5.9508 |       5.9508 |       5.9508 |       5.9508 |       5.9508 |       5.9279 |       5.9279 |       5.9279 |       5.9279 |       5.9279 |       5.9279 |       5.9279 |       5.9028 |       5.9028 |       5.9028 |       5.9028 |       5.9028 |       5.9028 |       5.9028 |       5.8824 |       5.8824 |       5.8824 |       5.8824 |       5.8824 |       5.8824 |       5.8824 |       5.8639 |       5.8639 |       5.8639 |       5.8639 |       5.8639 |       5.8639 |       5.8639 |       5.8505 |       5.8505 |       5.8505 |       5.8505 |       5.8505 |       5.8505 |       5.8505 |       5.8330 |       5.8330 |       5.8330 |       5.8330 |       5.8330 |       5.8330 |       5.8330 |       5.8178 |       5.8178 |       5.8178 |       5.8178 |       5.8178 |       5.8178 |       5.8178 |
bpred_bimod.lookups                          77359 |        77359 |        77359 |xxxxxxxxxxxxx |xxxxxxxxxxxxx |xxxxxxxxxxxxx |xxxxxxxxxxxxx |       166700 |       166700 |       166700 |xxxxxxxxxxxxx |xxxxxxxxxxxxx |xxxxxxxxxxxxx |xxxxxxxxxxxxx |       353121 |       353121 |       353121 |xxxxxxxxxxxxx |xxxxxxxxxxxxx |xxxxxxxxxxxxx |xxxxxxxxxxxxx |       758810 |       758810 |       758810 |xxxxxxxxxxxxx |xxxxxxxxxxxxx |xxxxxxxxxxxxx |xxxxxxxxxxxxx |      1625230 |      1625230 |      1625230 |xxxxxxxxxxxxx |xxxxxxxxxxxxx |xxxxxxxxxxxxx |xxxxxxxxxxxxx |      3467622 |      3467622 |      3467622 |xxxxxxxxxxxxx |xxxxxxxxxxxxx |xxxxxxxxxxxxx |xxxxxxxxxxxxx |      7350285 |      7350285 |      7350285 |xxxxxxxxxxxxx |xxxxxxxxxxxxx |xxxxxxxxxxxxx |xxxxxxxxxxxxx |     15612703 |     15612703 |     15612703 |xxxxxxxxxxxxx |xxxxxxxxxxxxx |xxxxxxxxxxxxx |xxxxxxxxxxxxx |     32824177 |     32824177 |     32824177 |xxxxxxxxxxxxx |xxxxxxxxxxxxx |xxxxxxxxxxxxx |xxxxxxxxxxxxx |     68707839 |     68707839 |     68707839 |xxxxxxxxxxxxx |xxxxxxxxxxxxx |xxxxxxxxxxxxx |xxxxxxxxxxxxx |    144126636 |    144126636 |    144126636 |
bpred_bimod.updates                          77359 |        77359 |        77359 |xxxxxxxxxxxxx |xxxxxxxxxxxxx |xxxxxxxxxxxxx |xxxxxxxxxxxxx |       166700 |       166700 |       166700 |xxxxxxxxxxxxx |xxxxxxxxxxxxx |xxxxxxxxxxxxx |xxxxxxxxxxxxx |       353121 |       353121 |       353121 |xxxxxxxxxxxxx |xxxxxxxxxxxxx |xxxxxxxxxxxxx |xxxxxxxxxxxxx |       758810 |       758810 |       758810 |xxxxxxxxxxxxx |xxxxxxxxxxxxx |xxxxxxxxxxxxx |xxxxxxxxxxxxx |      1625230 |      1625230 |      1625230 |xxxxxxxxxxxxx |xxxxxxxxxxxxx |xxxxxxxxxxxxx |xxxxxxxxxxxxx |      3467622 |      3467622 |      3467622 |xxxxxxxxxxxxx |xxxxxxxxxxxxx |xxxxxxxxxxxxx |xxxxxxxxxxxxx |      7350285 |      7350285 |      7350285 |xxxxxxxxxxxxx |xxxxxxxxxxxxx |xxxxxxxxxxxxx |xxxxxxxxxxxxx |     15612703 |     15612703 |     15612703 |xxxxxxxxxxxxx |xxxxxxxxxxxxx |xxxxxxxxxxxxx |xxxxxxxxxxxxx |     32824177 |     32824177 |     32824177 |xxxxxxxxxxxxx |xxxxxxxxxxxxx |xxxxxxxxxxxxx |xxxxxxxxxxxxx |     68707839 |     68707839 |     68707839 |xxxxxxxxxxxxx |xxxxxxxxxxxxx |xxxxxxxxxxxxx |xxxxxxxxxxxxx |    144126636 |    144126636 |    144126636 |
bpred_bimod.addr_hits                        53974 |        53974 |        53974 |xxxxxxxxxxxxx |xxxxxxxxxxxxx |xxxxxxxxxxxxx |xxxxxxxxxxxxx |       116613 |       116614 |       116614 |xxxxxxxxxxxxx |xxxxxxxxxxxxx |xxxxxxxxxxxxx |xxxxxxxxxxxxx |       243283 |       243282 |       243282 |xxxxxxxxxxxxx |xxxxxxxxxxxxx |xxxxxxxxxxxxx |xxxxxxxxxxxxx |       524748 |       524748 |       524749 |xxxxxxxxxxxxx |xxxxxxxxxxxxx |xxxxxxxxxxxxx |xxxxxxxxxxxxx |      1128511 |      1128514 |      1128513 |xxxxxxxxxxxxx |xxxxxxxxxxxxx |xxxxxxxxxxxxx |xxxxxxxxxxxxx |      2430013 |      2430011 |      2430013 |xxxxxxxxxxxxx |xxxxxxxxxxxxx |xxxxxxxxxxxxx |xxxxxxxxxxxxx |      5162647 |      5162648 |      5162649 |xxxxxxxxxxxxx |xxxxxxxxxxxxx |xxxxxxxxxxxxx |xxxxxxxxxxxxx |     11015436 |     11015436 |     11015439 |xxxxxxxxxxxxx |xxxxxxxxxxxxx |xxxxxxxxxxxxx |xxxxxxxxxxxxx |     23153029 |     23153029 |     23153031 |xxxxxxxxxxxxx |xxxxxxxxxxxxx |xxxxxxxxxxxxx |xxxxxxxxxxxxx |     48349043 |     48349040 |     48349040 |xxxxxxxxxxxxx |xxxxxxxxxxxxx |xxxxxxxxxxxxx |xxxxxxxxxxxxx |    101579663 |    101579662 |    101579665 |
bpred_bimod.dir_hits                         54097 |        54095 |        54094 |xxxxxxxxxxxxx |xxxxxxxxxxxxx |xxxxxxxxxxxxx |xxxxxxxxxxxxx |       116737 |       116735 |       116736 |xxxxxxxxxxxxx |xxxxxxxxxxxxx |xxxxxxxxxxxxx |xxxxxxxxxxxxx |       243408 |       243403 |       243403 |xxxxxxxxxxxxx |xxxxxxxxxxxxx |xxxxxxxxxxxxx |xxxxxxxxxxxxx |       524870 |       524867 |       524867 |xxxxxxxxxxxxx |xxxxxxxxxxxxx |xxxxxxxxxxxxx |xxxxxxxxxxxxx |      1128632 |      1128631 |      1128629 |xxxxxxxxxxxxx |xxxxxxxxxxxxx |xxxxxxxxxxxxx |xxxxxxxxxxxxx |      2430137 |      2430131 |      2430132 |xxxxxxxxxxxxx |xxxxxxxxxxxxx |xxxxxxxxxxxxx |xxxxxxxxxxxxx |      5162771 |      5162768 |      5162768 |xxxxxxxxxxxxx |xxxxxxxxxxxxx |xxxxxxxxxxxxx |xxxxxxxxxxxxx |     11015558 |     11015555 |     11015558 |xxxxxxxxxxxxx |xxxxxxxxxxxxx |xxxxxxxxxxxxx |xxxxxxxxxxxxx |     23153152 |     23153150 |     23153152 |xxxxxxxxxxxxx |xxxxxxxxxxxxx |xxxxxxxxxxxxx |xxxxxxxxxxxxx |     48349170 |     48349162 |     48349161 |xxxxxxxxxxxxx |xxxxxxxxxxxxx |xxxxxxxxxxxxx |xxxxxxxxxxxxx |    101579786 |    101579782 |    101579785 |
bpred_bimod.misses                           23262 |        23264 |        23265 |xxxxxxxxxxxxx |xxxxxxxxxxxxx |xxxxxxxxxxxxx |xxxxxxxxxxxxx |        49963 |        49965 |        49964 |xxxxxxxxxxxxx |xxxxxxxxxxxxx |xxxxxxxxxxxxx |xxxxxxxxxxxxx |       109713 |       109718 |       109718 |xxxxxxxxxxxxx |xxxxxxxxxxxxx |xxxxxxxxxxxxx |xxxxxxxxxxxxx |       233940 |       233943 |       233943 |xxxxxxxxxxxxx |xxxxxxxxxxxxx |xxxxxxxxxxxxx |xxxxxxxxxxxxx |       496598 |       496599 |       496601 |xxxxxxxxxxxxx |xxxxxxxxxxxxx |xxxxxxxxxxxxx |xxxxxxxxxxxxx |      1037485 |      1037491 |      1037490 |xxxxxxxxxxxxx |xxxxxxxxxxxxx |xxxxxxxxxxxxx |xxxxxxxxxxxxx |      2187514 |      2187517 |      2187517 |xxxxxxxxxxxxx |xxxxxxxxxxxxx |xxxxxxxxxxxxx |xxxxxxxxxxxxx |      4597145 |      4597148 |      4597145 |xxxxxxxxxxxxx |xxxxxxxxxxxxx |xxxxxxxxxxxxx |xxxxxxxxxxxxx |      9671025 |      9671027 |      9671025 |xxxxxxxxxxxxx |xxxxxxxxxxxxx |xxxxxxxxxxxxx |xxxxxxxxxxxxx |     20358669 |     20358677 |     20358678 |xxxxxxxxxxxxx |xxxxxxxxxxxxx |xxxxxxxxxxxxx |xxxxxxxxxxxxx |     42546850 |     42546854 |     42546851 |
bpred_bimod.jr_hits                             64 |           64 |           64 |xxxxxxxxxxxxx |xxxxxxxxxxxxx |xxxxxxxxxxxxx |xxxxxxxxxxxxx |           64 |           64 |           64 |xxxxxxxxxxxxx |xxxxxxxxxxxxx |xxxxxxxxxxxxx |xxxxxxxxxxxxx |           64 |           64 |           64 |xxxxxxxxxxxxx |xxxxxxxxxxxxx |xxxxxxxxxxxxx |xxxxxxxxxxxxx |           64 |           64 |           64 |xxxxxxxxxxxxx |xxxxxxxxxxxxx |xxxxxxxxxxxxx |xxxxxxxxxxxxx |           64 |           64 |           64 |xxxxxxxxxxxxx |xxxxxxxxxxxxx |xxxxxxxxxxxxx |xxxxxxxxxxxxx |           64 |           64 |           64 |xxxxxxxxxxxxx |xxxxxxxxxxxxx |xxxxxxxxxxxxx |xxxxxxxxxxxxx |           64 |           64 |           64 |xxxxxxxxxxxxx |xxxxxxxxxxxxx |xxxxxxxxxxxxx |xxxxxxxxxxxxx |           64 |           64 |           64 |xxxxxxxxxxxxx |xxxxxxxxxxxxx |xxxxxxxxxxxxx |xxxxxxxxxxxxx |           64 |           64 |           64 |xxxxxxxxxxxxx |xxxxxxxxxxxxx |xxxxxxxxxxxxx |xxxxxxxxxxxxx |           64 |           64 |           64 |xxxxxxxxxxxxx |xxxxxxxxxxxxx |xxxxxxxxxxxxx |xxxxxxxxxxxxx |           64 |           64 |           64 |
bpred_bimod.jr_seen                             64 |           64 |           64 |xxxxxxxxxxxxx |xxxxxxxxxxxxx |xxxxxxxxxxxxx |xxxxxxxxxxxxx |           64 |           64 |           64 |xxxxxxxxxxxxx |xxxxxxxxxxxxx |xxxxxxxxxxxxx |xxxxxxxxxxxxx |           64 |           64 |           64 |xxxxxxxxxxxxx |xxxxxxxxxxxxx |xxxxxxxxxxxxx |xxxxxxxxxxxxx |           64 |           64 |           64 |xxxxxxxxxxxxx |xxxxxxxxxxxxx |xxxxxxxxxxxxx |xxxxxxxxxxxxx |           64 |           64 |           64 |xxxxxxxxxxxxx |xxxxxxxxxxxxx |xxxxxxxxxxxxx |xxxxxxxxxxxxx |           64 |           64 |           64 |xxxxxxxxxxxxx |xxxxxxxxxxxxx |xxxxxxxxxxxxx |xxxxxxxxxxxxx |           64 |           64 |           64 |xxxxxxxxxxxxx |xxxxxxxxxxxxx |xxxxxxxxxxxxx |xxxxxxxxxxxxx |           64 |           64 |           64 |xxxxxxxxxxxxx |xxxxxxxxxxxxx |xxxxxxxxxxxxx |xxxxxxxxxxxxx |           64 |           64 |           64 |xxxxxxxxxxxxx |xxxxxxxxxxxxx |xxxxxxxxxxxxx |xxxxxxxxxxxxx |           64 |           64 |           64 |xxxxxxxxxxxxx |xxxxxxxxxxxxx |xxxxxxxxxxxxx |xxxxxxxxxxxxx |           64 |           64 |           64 |
bpred_bimod.jr_non_ras_hits.PP                   0 |            0 |            0 |xxxxxxxxxxxxx |xxxxxxxxxxxxx |xxxxxxxxxxxxx |xxxxxxxxxxxxx |            0 |            0 |            0 |xxxxxxxxxxxxx |xxxxxxxxxxxxx |xxxxxxxxxxxxx |xxxxxxxxxxxxx |            0 |            0 |            0 |xxxxxxxxxxxxx |xxxxxxxxxxxxx |xxxxxxxxxxxxx |xxxxxxxxxxxxx |            0 |            0 |            0 |xxxxxxxxxxxxx |xxxxxxxxxxxxx |xxxxxxxxxxxxx |xxxxxxxxxxxxx |            0 |            0 |            0 |xxxxxxxxxxxxx |xxxxxxxxxxxxx |xxxxxxxxxxxxx |xxxxxxxxxxxxx |            0 |            0 |            0 |xxxxxxxxxxxxx |xxxxxxxxxxxxx |xxxxxxxxxxxxx |xxxxxxxxxxxxx |            0 |            0 |            0 |xxxxxxxxxxxxx |xxxxxxxxxxxxx |xxxxxxxxxxxxx |xxxxxxxxxxxxx |            0 |            0 |            0 |xxxxxxxxxxxxx |xxxxxxxxxxxxx |xxxxxxxxxxxxx |xxxxxxxxxxxxx |            0 |            0 |            0 |xxxxxxxxxxxxx |xxxxxxxxxxxxx |xxxxxxxxxxxxx |xxxxxxxxxxxxx |            0 |            0 |            0 |xxxxxxxxxxxxx |xxxxxxxxxxxxx |xxxxxxxxxxxxx |xxxxxxxxxxxxx |            0 |            0 |            0 |
bpred_bimod.jr_non_ras_seen.PP                   0 |            0 |            0 |xxxxxxxxxxxxx |xxxxxxxxxxxxx |xxxxxxxxxxxxx |xxxxxxxxxxxxx |            0 |            0 |            0 |xxxxxxxxxxxxx |xxxxxxxxxxxxx |xxxxxxxxxxxxx |xxxxxxxxxxxxx |            0 |            0 |            0 |xxxxxxxxxxxxx |xxxxxxxxxxxxx |xxxxxxxxxxxxx |xxxxxxxxxxxxx |            0 |            0 |            0 |xxxxxxxxxxxxx |xxxxxxxxxxxxx |xxxxxxxxxxxxx |xxxxxxxxxxxxx |            0 |            0 |            0 |xxxxxxxxxxxxx |xxxxxxxxxxxxx |xxxxxxxxxxxxx |xxxxxxxxxxxxx |            0 |            0 |            0 |xxxxxxxxxxxxx |xxxxxxxxxxxxx |xxxxxxxxxxxxx |xxxxxxxxxxxxx |            0 |            0 |            0 |xxxxxxxxxxxxx |xxxxxxxxxxxxx |xxxxxxxxxxxxx |xxxxxxxxxxxxx |            0 |            0 |            0 |xxxxxxxxxxxxx |xxxxxxxxxxxxx |xxxxxxxxxxxxx |xxxxxxxxxxxxx |            0 |            0 |            0 |xxxxxxxxxxxxx |xxxxxxxxxxxxx |xxxxxxxxxxxxx |xxxxxxxxxxxxx |            0 |            0 |            0 |xxxxxxxxxxxxx |xxxxxxxxxxxxx |xxxxxxxxxxxxx |xxxxxxxxxxxxx |            0 |            0 |            0 |
bpred_bimod.bpred_addr_rate                 0.6977 |       0.6977 |       0.6977 |xxxxxxxxxxxxx |xxxxxxxxxxxxx |xxxxxxxxxxxxx |xxxxxxxxxxxxx |       0.6995 |       0.6995 |       0.6995 |xxxxxxxxxxxxx |xxxxxxxxxxxxx |xxxxxxxxxxxxx |xxxxxxxxxxxxx |       0.6890 |       0.6889 |       0.6889 |xxxxxxxxxxxxx |xxxxxxxxxxxxx |xxxxxxxxxxxxx |xxxxxxxxxxxxx |       0.6915 |       0.6915 |       0.6915 |xxxxxxxxxxxxx |xxxxxxxxxxxxx |xxxxxxxxxxxxx |xxxxxxxxxxxxx |       0.6944 |       0.6944 |       0.6944 |xxxxxxxxxxxxx |xxxxxxxxxxxxx |xxxxxxxxxxxxx |xxxxxxxxxxxxx |       0.7008 |       0.7008 |       0.7008 |xxxxxxxxxxxxx |xxxxxxxxxxxxx |xxxxxxxxxxxxx |xxxxxxxxxxxxx |       0.7024 |       0.7024 |       0.7024 |xxxxxxxxxxxxx |xxxxxxxxxxxxx |xxxxxxxxxxxxx |xxxxxxxxxxxxx |       0.7055 |       0.7055 |       0.7055 |xxxxxxxxxxxxx |xxxxxxxxxxxxx |xxxxxxxxxxxxx |xxxxxxxxxxxxx |       0.7054 |       0.7054 |       0.7054 |xxxxxxxxxxxxx |xxxxxxxxxxxxx |xxxxxxxxxxxxx |xxxxxxxxxxxxx |       0.7037 |       0.7037 |       0.7037 |xxxxxxxxxxxxx |xxxxxxxxxxxxx |xxxxxxxxxxxxx |xxxxxxxxxxxxx |       0.7048 |       0.7048 |       0.7048 |
bpred_bimod.bpred_dir_rate                  0.6993 |       0.6993 |       0.6993 |xxxxxxxxxxxxx |xxxxxxxxxxxxx |xxxxxxxxxxxxx |xxxxxxxxxxxxx |       0.7003 |       0.7003 |       0.7003 |xxxxxxxxxxxxx |xxxxxxxxxxxxx |xxxxxxxxxxxxx |xxxxxxxxxxxxx |       0.6893 |       0.6893 |       0.6893 |xxxxxxxxxxxxx |xxxxxxxxxxxxx |xxxxxxxxxxxxx |xxxxxxxxxxxxx |       0.6917 |       0.6917 |       0.6917 |xxxxxxxxxxxxx |xxxxxxxxxxxxx |xxxxxxxxxxxxx |xxxxxxxxxxxxx |       0.6944 |       0.6944 |       0.6944 |xxxxxxxxxxxxx |xxxxxxxxxxxxx |xxxxxxxxxxxxx |xxxxxxxxxxxxx |       0.7008 |       0.7008 |       0.7008 |xxxxxxxxxxxxx |xxxxxxxxxxxxx |xxxxxxxxxxxxx |xxxxxxxxxxxxx |       0.7024 |       0.7024 |       0.7024 |xxxxxxxxxxxxx |xxxxxxxxxxxxx |xxxxxxxxxxxxx |xxxxxxxxxxxxx |       0.7056 |       0.7056 |       0.7056 |xxxxxxxxxxxxx |xxxxxxxxxxxxx |xxxxxxxxxxxxx |xxxxxxxxxxxxx |       0.7054 |       0.7054 |       0.7054 |xxxxxxxxxxxxx |xxxxxxxxxxxxx |xxxxxxxxxxxxx |xxxxxxxxxxxxx |       0.7037 |       0.7037 |       0.7037 |xxxxxxxxxxxxx |xxxxxxxxxxxxx |xxxxxxxxxxxxx |xxxxxxxxxxxxx |       0.7048 |       0.7048 |       0.7048 |
bpred_bimod.bpred_jr_rate                   1.0000 |       1.0000 |       1.0000 |xxxxxxxxxxxxx |xxxxxxxxxxxxx |xxxxxxxxxxxxx |xxxxxxxxxxxxx |       1.0000 |       1.0000 |       1.0000 |xxxxxxxxxxxxx |xxxxxxxxxxxxx |xxxxxxxxxxxxx |xxxxxxxxxxxxx |       1.0000 |       1.0000 |       1.0000 |xxxxxxxxxxxxx |xxxxxxxxxxxxx |xxxxxxxxxxxxx |xxxxxxxxxxxxx |       1.0000 |       1.0000 |       1.0000 |xxxxxxxxxxxxx |xxxxxxxxxxxxx |xxxxxxxxxxxxx |xxxxxxxxxxxxx |       1.0000 |       1.0000 |       1.0000 |xxxxxxxxxxxxx |xxxxxxxxxxxxx |xxxxxxxxxxxxx |xxxxxxxxxxxxx |       1.0000 |       1.0000 |       1.0000 |xxxxxxxxxxxxx |xxxxxxxxxxxxx |xxxxxxxxxxxxx |xxxxxxxxxxxxx |       1.0000 |       1.0000 |       1.0000 |xxxxxxxxxxxxx |xxxxxxxxxxxxx |xxxxxxxxxxxxx |xxxxxxxxxxxxx |       1.0000 |       1.0000 |       1.0000 |xxxxxxxxxxxxx |xxxxxxxxxxxxx |xxxxxxxxxxxxx |xxxxxxxxxxxxx |       1.0000 |       1.0000 |       1.0000 |xxxxxxxxxxxxx |xxxxxxxxxxxxx |xxxxxxxxxxxxx |xxxxxxxxxxxxx |       1.0000 |       1.0000 |       1.0000 |xxxxxxxxxxxxx |xxxxxxxxxxxxx |xxxxxxxxxxxxx |xxxxxxxxxxxxx |       1.0000 |       1.0000 |       1.0000 |
bpred_bimod.bpred_jr_non_ras_rate.PP       <error: |      <error: |      <error: |xxxxxxxxxxxxx |xxxxxxxxxxxxx |xxxxxxxxxxxxx |xxxxxxxxxxxxx |      <error: |      <error: |      <error: |xxxxxxxxxxxxx |xxxxxxxxxxxxx |xxxxxxxxxxxxx |xxxxxxxxxxxxx |      <error: |      <error: |      <error: |xxxxxxxxxxxxx |xxxxxxxxxxxxx |xxxxxxxxxxxxx |xxxxxxxxxxxxx |      <error: |      <error: |      <error: |xxxxxxxxxxxxx |xxxxxxxxxxxxx |xxxxxxxxxxxxx |xxxxxxxxxxxxx |      <error: |      <error: |      <error: |xxxxxxxxxxxxx |xxxxxxxxxxxxx |xxxxxxxxxxxxx |xxxxxxxxxxxxx |      <error: |      <error: |      <error: |xxxxxxxxxxxxx |xxxxxxxxxxxxx |xxxxxxxxxxxxx |xxxxxxxxxxxxx |      <error: |      <error: |      <error: |xxxxxxxxxxxxx |xxxxxxxxxxxxx |xxxxxxxxxxxxx |xxxxxxxxxxxxx |      <error: |      <error: |      <error: |xxxxxxxxxxxxx |xxxxxxxxxxxxx |xxxxxxxxxxxxx |xxxxxxxxxxxxx |      <error: |      <error: |      <error: |xxxxxxxxxxxxx |xxxxxxxxxxxxx |xxxxxxxxxxxxx |xxxxxxxxxxxxx |      <error: |      <error: |      <error: |xxxxxxxxxxxxx |xxxxxxxxxxxxx |xxxxxxxxxxxxx |xxxxxxxxxxxxx |      <error: |      <error: |      <error: |
bpred_bimod.retstack_pushes                     66 |           66 |           66 |xxxxxxxxxxxxx |xxxxxxxxxxxxx |xxxxxxxxxxxxx |xxxxxxxxxxxxx |           66 |           66 |           66 |xxxxxxxxxxxxx |xxxxxxxxxxxxx |xxxxxxxxxxxxx |xxxxxxxxxxxxx |           66 |           66 |           66 |xxxxxxxxxxxxx |xxxxxxxxxxxxx |xxxxxxxxxxxxx |xxxxxxxxxxxxx |           66 |           66 |           66 |xxxxxxxxxxxxx |xxxxxxxxxxxxx |xxxxxxxxxxxxx |xxxxxxxxxxxxx |           66 |           66 |           66 |xxxxxxxxxxxxx |xxxxxxxxxxxxx |xxxxxxxxxxxxx |xxxxxxxxxxxxx |           66 |           66 |           66 |xxxxxxxxxxxxx |xxxxxxxxxxxxx |xxxxxxxxxxxxx |xxxxxxxxxxxxx |           66 |           66 |           66 |xxxxxxxxxxxxx |xxxxxxxxxxxxx |xxxxxxxxxxxxx |xxxxxxxxxxxxx |           66 |           66 |           66 |xxxxxxxxxxxxx |xxxxxxxxxxxxx |xxxxxxxxxxxxx |xxxxxxxxxxxxx |           66 |           66 |           66 |xxxxxxxxxxxxx |xxxxxxxxxxxxx |xxxxxxxxxxxxx |xxxxxxxxxxxxx |           66 |           66 |           66 |xxxxxxxxxxxxx |xxxxxxxxxxxxx |xxxxxxxxxxxxx |xxxxxxxxxxxxx |           66 |           66 |           66 |
bpred_bimod.retstack_pops                       64 |           64 |           64 |xxxxxxxxxxxxx |xxxxxxxxxxxxx |xxxxxxxxxxxxx |xxxxxxxxxxxxx |           64 |           64 |           64 |xxxxxxxxxxxxx |xxxxxxxxxxxxx |xxxxxxxxxxxxx |xxxxxxxxxxxxx |           64 |           64 |           64 |xxxxxxxxxxxxx |xxxxxxxxxxxxx |xxxxxxxxxxxxx |xxxxxxxxxxxxx |           64 |           64 |           64 |xxxxxxxxxxxxx |xxxxxxxxxxxxx |xxxxxxxxxxxxx |xxxxxxxxxxxxx |           64 |           64 |           64 |xxxxxxxxxxxxx |xxxxxxxxxxxxx |xxxxxxxxxxxxx |xxxxxxxxxxxxx |           64 |           64 |           64 |xxxxxxxxxxxxx |xxxxxxxxxxxxx |xxxxxxxxxxxxx |xxxxxxxxxxxxx |           64 |           64 |           64 |xxxxxxxxxxxxx |xxxxxxxxxxxxx |xxxxxxxxxxxxx |xxxxxxxxxxxxx |           64 |           64 |           64 |xxxxxxxxxxxxx |xxxxxxxxxxxxx |xxxxxxxxxxxxx |xxxxxxxxxxxxx |           64 |           64 |           64 |xxxxxxxxxxxxx |xxxxxxxxxxxxx |xxxxxxxxxxxxx |xxxxxxxxxxxxx |           64 |           64 |           64 |xxxxxxxxxxxxx |xxxxxxxxxxxxx |xxxxxxxxxxxxx |xxxxxxxxxxxxx |           64 |           64 |           64 |
bpred_bimod.used_ras.PP                         64 |           64 |           64 |xxxxxxxxxxxxx |xxxxxxxxxxxxx |xxxxxxxxxxxxx |xxxxxxxxxxxxx |           64 |           64 |           64 |xxxxxxxxxxxxx |xxxxxxxxxxxxx |xxxxxxxxxxxxx |xxxxxxxxxxxxx |           64 |           64 |           64 |xxxxxxxxxxxxx |xxxxxxxxxxxxx |xxxxxxxxxxxxx |xxxxxxxxxxxxx |           64 |           64 |           64 |xxxxxxxxxxxxx |xxxxxxxxxxxxx |xxxxxxxxxxxxx |xxxxxxxxxxxxx |           64 |           64 |           64 |xxxxxxxxxxxxx |xxxxxxxxxxxxx |xxxxxxxxxxxxx |xxxxxxxxxxxxx |           64 |           64 |           64 |xxxxxxxxxxxxx |xxxxxxxxxxxxx |xxxxxxxxxxxxx |xxxxxxxxxxxxx |           64 |           64 |           64 |xxxxxxxxxxxxx |xxxxxxxxxxxxx |xxxxxxxxxxxxx |xxxxxxxxxxxxx |           64 |           64 |           64 |xxxxxxxxxxxxx |xxxxxxxxxxxxx |xxxxxxxxxxxxx |xxxxxxxxxxxxx |           64 |           64 |           64 |xxxxxxxxxxxxx |xxxxxxxxxxxxx |xxxxxxxxxxxxx |xxxxxxxxxxxxx |           64 |           64 |           64 |xxxxxxxxxxxxx |xxxxxxxxxxxxx |xxxxxxxxxxxxx |xxxxxxxxxxxxx |           64 |           64 |           64 |
bpred_bimod.ras_hits.PP                         64 |           64 |           64 |xxxxxxxxxxxxx |xxxxxxxxxxxxx |xxxxxxxxxxxxx |xxxxxxxxxxxxx |           64 |           64 |           64 |xxxxxxxxxxxxx |xxxxxxxxxxxxx |xxxxxxxxxxxxx |xxxxxxxxxxxxx |           64 |           64 |           64 |xxxxxxxxxxxxx |xxxxxxxxxxxxx |xxxxxxxxxxxxx |xxxxxxxxxxxxx |           64 |           64 |           64 |xxxxxxxxxxxxx |xxxxxxxxxxxxx |xxxxxxxxxxxxx |xxxxxxxxxxxxx |           64 |           64 |           64 |xxxxxxxxxxxxx |xxxxxxxxxxxxx |xxxxxxxxxxxxx |xxxxxxxxxxxxx |           64 |           64 |           64 |xxxxxxxxxxxxx |xxxxxxxxxxxxx |xxxxxxxxxxxxx |xxxxxxxxxxxxx |           64 |           64 |           64 |xxxxxxxxxxxxx |xxxxxxxxxxxxx |xxxxxxxxxxxxx |xxxxxxxxxxxxx |           64 |           64 |           64 |xxxxxxxxxxxxx |xxxxxxxxxxxxx |xxxxxxxxxxxxx |xxxxxxxxxxxxx |           64 |           64 |           64 |xxxxxxxxxxxxx |xxxxxxxxxxxxx |xxxxxxxxxxxxx |xxxxxxxxxxxxx |           64 |           64 |           64 |xxxxxxxxxxxxx |xxxxxxxxxxxxx |xxxxxxxxxxxxx |xxxxxxxxxxxxx |           64 |           64 |           64 |
bpred_bimod.ras_rate.PP                     1.0000 |       1.0000 |       1.0000 |xxxxxxxxxxxxx |xxxxxxxxxxxxx |xxxxxxxxxxxxx |xxxxxxxxxxxxx |       1.0000 |       1.0000 |       1.0000 |xxxxxxxxxxxxx |xxxxxxxxxxxxx |xxxxxxxxxxxxx |xxxxxxxxxxxxx |       1.0000 |       1.0000 |       1.0000 |xxxxxxxxxxxxx |xxxxxxxxxxxxx |xxxxxxxxxxxxx |xxxxxxxxxxxxx |       1.0000 |       1.0000 |       1.0000 |xxxxxxxxxxxxx |xxxxxxxxxxxxx |xxxxxxxxxxxxx |xxxxxxxxxxxxx |       1.0000 |       1.0000 |       1.0000 |xxxxxxxxxxxxx |xxxxxxxxxxxxx |xxxxxxxxxxxxx |xxxxxxxxxxxxx |       1.0000 |       1.0000 |       1.0000 |xxxxxxxxxxxxx |xxxxxxxxxxxxx |xxxxxxxxxxxxx |xxxxxxxxxxxxx |       1.0000 |       1.0000 |       1.0000 |xxxxxxxxxxxxx |xxxxxxxxxxxxx |xxxxxxxxxxxxx |xxxxxxxxxxxxx |       1.0000 |       1.0000 |       1.0000 |xxxxxxxxxxxxx |xxxxxxxxxxxxx |xxxxxxxxxxxxx |xxxxxxxxxxxxx |       1.0000 |       1.0000 |       1.0000 |xxxxxxxxxxxxx |xxxxxxxxxxxxx |xxxxxxxxxxxxx |xxxxxxxxxxxxx |       1.0000 |       1.0000 |       1.0000 |xxxxxxxxxxxxx |xxxxxxxxxxxxx |xxxxxxxxxxxxx |xxxxxxxxxxxxx |       1.0000 |       1.0000 |       1.0000 |
bpred_2lev.lookups                   xxxxxxxxxxxxx |xxxxxxxxxxxxx |xxxxxxxxxxxxx |        77359 |        77359 |        77359 |        77359 |xxxxxxxxxxxxx |xxxxxxxxxxxxx |xxxxxxxxxxxxx |       166700 |       166700 |       166700 |       166700 |xxxxxxxxxxxxx |xxxxxxxxxxxxx |xxxxxxxxxxxxx |       353121 |       353121 |       353121 |       353121 |xxxxxxxxxxxxx |xxxxxxxxxxxxx |xxxxxxxxxxxxx |       758810 |       758810 |       758810 |       758810 |xxxxxxxxxxxxx |xxxxxxxxxxxxx |xxxxxxxxxxxxx |      1625230 |      1625230 |      1625230 |      1625230 |xxxxxxxxxxxxx |xxxxxxxxxxxxx |xxxxxxxxxxxxx |      3467622 |      3467622 |      3467622 |      3467622 |xxxxxxxxxxxxx |xxxxxxxxxxxxx |xxxxxxxxxxxxx |      7350285 |      7350285 |      7350285 |      7350285 |xxxxxxxxxxxxx |xxxxxxxxxxxxx |xxxxxxxxxxxxx |     15612703 |     15612703 |     15612703 |     15612703 |xxxxxxxxxxxxx |xxxxxxxxxxxxx |xxxxxxxxxxxxx |     32824177 |     32824177 |     32824177 |     32824177 |xxxxxxxxxxxxx |xxxxxxxxxxxxx |xxxxxxxxxxxxx |     68707839 |     68707839 |     68707839 |     68707839 |xxxxxxxxxxxxx |xxxxxxxxxxxxx |xxxxxxxxxxxxx |    144126636 |    144126636 |    144126636 |    144126636 |
[...]
bpred_2lev.retstack_pushes           xxxxxxxxxxxxx |xxxxxxxxxxxxx |xxxxxxxxxxxxx |           66 |           66 |           66 |           66 |xxxxxxxxxxxxx |xxxxxxxxxxxxx |xxxxxxxxxxxxx |           66 |           66 |           66 |           66 |xxxxxxxxxxxxx |xxxxxxxxxxxxx |xxxxxxxxxxxxx |           66 |           66 |           66 |           66 |xxxxxxxxxxxxx |xxxxxxxxxxxxx |xxxxxxxxxxxxx |           66 |           66 |           66 |           66 |xxxxxxxxxxxxx |xxxxxxxxxxxxx |xxxxxxxxxxxxx |           66 |           66 |           66 |           66 |xxxxxxxxxxxxx |xxxxxxxxxxxxx |xxxxxxxxxxxxx |           66 |           66 |           66 |           66 |xxxxxxxxxxxxx |xxxxxxxxxxxxx |xxxxxxxxxxxxx |           66 |           66 |           66 |           66 |xxxxxxxxxxxxx |xxxxxxxxxxxxx |xxxxxxxxxxxxx |           66 |           66 |           66 |           66 |xxxxxxxxxxxxx |xxxxxxxxxxxxx |xxxxxxxxxxxxx |           66 |           66 |           66 |           66 |xxxxxxxxxxxxx |xxxxxxxxxxxxx |xxxxxxxxxxxxx |           66 |           66 |           66 |           66 |xxxxxxxxxxxxx |xxxxxxxxxxxxx |xxxxxxxxxxxxx |           66 |           66 |           66 |           66 |
bpred_2lev.retstack_pops             xxxxxxxxxxxxx |xxxxxxxxxxxxx |xxxxxxxxxxxxx |           64 |           64 |           64 |           64 |xxxxxxxxxxxxx |xxxxxxxxxxxxx |xxxxxxxxxxxxx |           64 |           64 |           64 |           64 |xxxxxxxxxxxxx |xxxxxxxxxxxxx |xxxxxxxxxxxxx |           64 |           64 |           64 |           64 |xxxxxxxxxxxxx |xxxxxxxxxxxxx |xxxxxxxxxxxxx |           64 |           64 |           64 |           64 |xxxxxxxxxxxxx |xxxxxxxxxxxxx |xxxxxxxxxxxxx |           64 |           64 |           64 |           64 |xxxxxxxxxxxxx |xxxxxxxxxxxxx |xxxxxxxxxxxxx |           64 |           64 |           64 |           64 |xxxxxxxxxxxxx |xxxxxxxxxxxxx |xxxxxxxxxxxxx |           64 |           64 |           64 |           64 |xxxxxxxxxxxxx |xxxxxxxxxxxxx |xxxxxxxxxxxxx |           64 |           64 |           64 |           64 |xxxxxxxxxxxxx |xxxxxxxxxxxxx |xxxxxxxxxxxxx |           64 |           64 |           64 |           64 |xxxxxxxxxxxxx |xxxxxxxxxxxxx |xxxxxxxxxxxxx |           64 |           64 |           64 |           64 |xxxxxxxxxxxxx |xxxxxxxxxxxxx |xxxxxxxxxxxxx |           64 |           64 |           64 |           64 |
bpred_2lev.used_ras.PP               xxxxxxxxxxxxx |xxxxxxxxxxxxx |xxxxxxxxxxxxx |           64 |           64 |           64 |           64 |xxxxxxxxxxxxx |xxxxxxxxxxxxx |xxxxxxxxxxxxx |           64 |           64 |           64 |           64 |xxxxxxxxxxxxx |xxxxxxxxxxxxx |xxxxxxxxxxxxx |           64 |           64 |           64 |           64 |xxxxxxxxxxxxx |xxxxxxxxxxxxx |xxxxxxxxxxxxx |           64 |           64 |           64 |           64 |xxxxxxxxxxxxx |xxxxxxxxxxxxx |xxxxxxxxxxxxx |           64 |           64 |           64 |           64 |xxxxxxxxxxxxx |xxxxxxxxxxxxx |xxxxxxxxxxxxx |           64 |           64 |           64 |           64 |xxxxxxxxxxxxx |xxxxxxxxxxxxx |xxxxxxxxxxxxx |           64 |           64 |           64 |           64 |xxxxxxxxxxxxx |xxxxxxxxxxxxx |xxxxxxxxxxxxx |           64 |           64 |           64 |           64 |xxxxxxxxxxxxx |xxxxxxxxxxxxx |xxxxxxxxxxxxx |           64 |           64 |           64 |           64 |xxxxxxxxxxxxx |xxxxxxxxxxxxx |xxxxxxxxxxxxx |           64 |           64 |           64 |           64 |xxxxxxxxxxxxx |xxxxxxxxxxxxx |xxxxxxxxxxxxx |           64 |           64 |           64 |           64 |
bpred_2lev.ras_hits.PP               xxxxxxxxxxxxx |xxxxxxxxxxxxx |xxxxxxxxxxxxx |           64 |           64 |           64 |           64 |xxxxxxxxxxxxx |xxxxxxxxxxxxx |xxxxxxxxxxxxx |           64 |           64 |           64 |           64 |xxxxxxxxxxxxx |xxxxxxxxxxxxx |xxxxxxxxxxxxx |           64 |           64 |           64 |           64 |xxxxxxxxxxxxx |xxxxxxxxxxxxx |xxxxxxxxxxxxx |           64 |           64 |           64 |           64 |xxxxxxxxxxxxx |xxxxxxxxxxxxx |xxxxxxxxxxxxx |           64 |           64 |           64 |           64 |xxxxxxxxxxxxx |xxxxxxxxxxxxx |xxxxxxxxxxxxx |           64 |           64 |           64 |           64 |xxxxxxxxxxxxx |xxxxxxxxxxxxx |xxxxxxxxxxxxx |           64 |           64 |           64 |           64 |xxxxxxxxxxxxx |xxxxxxxxxxxxx |xxxxxxxxxxxxx |           64 |           64 |           64 |           64 |xxxxxxxxxxxxx |xxxxxxxxxxxxx |xxxxxxxxxxxxx |           64 |           64 |           64 |           64 |xxxxxxxxxxxxx |xxxxxxxxxxxxx |xxxxxxxxxxxxx |           64 |           64 |           64 |           64 |xxxxxxxxxxxxx |xxxxxxxxxxxxx |xxxxxxxxxxxxx |           64 |           64 |           64 |           64 |
bpred_2lev.ras_rate.PP               xxxxxxxxxxxxx |xxxxxxxxxxxxx |xxxxxxxxxxxxx |       1.0000 |       1.0000 |       1.0000 |       1.0000 |xxxxxxxxxxxxx |xxxxxxxxxxxxx |xxxxxxxxxxxxx |       1.0000 |       1.0000 |       1.0000 |       1.0000 |xxxxxxxxxxxxx |xxxxxxxxxxxxx |xxxxxxxxxxxxx |       1.0000 |       1.0000 |       1.0000 |       1.0000 |xxxxxxxxxxxxx |xxxxxxxxxxxxx |xxxxxxxxxxxxx |       1.0000 |       1.0000 |       1.0000 |       1.0000 |xxxxxxxxxxxxx |xxxxxxxxxxxxx |xxxxxxxxxxxxx |       1.0000 |       1.0000 |       1.0000 |       1.0000 |xxxxxxxxxxxxx |xxxxxxxxxxxxx |xxxxxxxxxxxxx |       1.0000 |       1.0000 |       1.0000 |       1.0000 |xxxxxxxxxxxxx |xxxxxxxxxxxxx |xxxxxxxxxxxxx |       1.0000 |       1.0000 |       1.0000 |       1.0000 |xxxxxxxxxxxxx |xxxxxxxxxxxxx |xxxxxxxxxxxxx |       1.0000 |       1.0000 |       1.0000 |       1.0000 |xxxxxxxxxxxxx |xxxxxxxxxxxxx |xxxxxxxxxxxxx |       1.0000 |       1.0000 |       1.0000 |       1.0000 |xxxxxxxxxxxxx |xxxxxxxxxxxxx |xxxxxxxxxxxxx |       1.0000 |       1.0000 |       1.0000 |       1.0000 |xxxxxxxxxxxxx |xxxxxxxxxxxxx |xxxxxxxxxxxxx |       1.0000 |       1.0000 |       1.0000 |       1.0000 |

Command list: 
	sslittle-na-sstrix-gcc -Wall -O3 -funroll-loops -finline-functions  -DRANDOM_SIZE=4096 -DOFFSET=1 -DSORT=base_quicksort9 sorts/base_quicksort91055382718.c simpleMain.c -o base_quicksort9963743239
	sim-cache -cache:dl1 dl1:256:32:1:l -cache:dl2 dl2:131072:32:1:l -cache:il1 il1:256:32:1:l -cache:il2 dl2 base_quicksort9963743239
	sim-cache -cache:dl1 dl1:256:32:1:l -cache:dl2 dl2:65536:32:1:l -cache:il1 il1:256:32:1:l -cache:il2 dl2 base_quicksort9963743239
	sim-cache -cache:dl1 dl1:1:32:256:l -cache:dl2 dl2:1:32:131072:l -cache:il1 il1:1:32:256:l -cache:il2 dl2 base_quicksort9963743239
	sim-cache -cache:dl1 dl1:1:32:256:l -cache:dl2 dl2:1:32:65536:l -cache:il1 il1:1:32:256:l -cache:il2 dl2 base_quicksort9963743239
	sim-bpred -bpred bimod -bpred:bimod 512 base_quicksort9963743239
	sim-bpred -bpred bimod -bpred:bimod 1024 base_quicksort9963743239
	sim-bpred -bpred bimod -bpred:bimod 2048 base_quicksort9963743239
	sim-bpred -bpred 2lev -bpred:2lev 1 512 10 1 base_quicksort9963743239
	sim-bpred -bpred 2lev -bpred:2lev 1 1024 10 1 base_quicksort9963743239
	sim-bpred -bpred 2lev -bpred:2lev 1 2048 10 1 base_quicksort9963743239
	sim-bpred -bpred 2lev -bpred:2lev 1 4096 10 1 base_quicksort9963743239
	sslittle-na-sstrix-gcc -Wall -O3 -funroll-loops -finline-functions  -DRANDOM_SIZE=8192 -DOFFSET=1 -DSORT=base_quicksort9 sorts/base_quicksort91055382718.c simpleMain.c -o base_quicksort9963743239
	sim-cache -cache:dl1 dl1:256:32:1:l -cache:dl2 dl2:131072:32:1:l -cache:il1 il1:256:32:1:l -cache:il2 dl2 base_quicksort9963743239
	sim-cache -cache:dl1 dl1:256:32:1:l -cache:dl2 dl2:65536:32:1:l -cache:il1 il1:256:32:1:l -cache:il2 dl2 base_quicksort9963743239
	sim-cache -cache:dl1 dl1:1:32:256:l -cache:dl2 dl2:1:32:131072:l -cache:il1 il1:1:32:256:l -cache:il2 dl2 base_quicksort9963743239
	sim-cache -cache:dl1 dl1:1:32:256:l -cache:dl2 dl2:1:32:65536:l -cache:il1 il1:1:32:256:l -cache:il2 dl2 base_quicksort9963743239
	sim-bpred -bpred bimod -bpred:bimod 512 base_quicksort9963743239
	sim-bpred -bpred bimod -bpred:bimod 1024 base_quicksort9963743239
	sim-bpred -bpred bimod -bpred:bimod 2048 base_quicksort9963743239
	sim-bpred -bpred 2lev -bpred:2lev 1 512 10 1 base_quicksort9963743239
	sim-bpred -bpred 2lev -bpred:2lev 1 1024 10 1 base_quicksort9963743239
	sim-bpred -bpred 2lev -bpred:2lev 1 2048 10 1 base_quicksort9963743239
	sim-bpred -bpred 2lev -bpred:2lev 1 4096 10 1 base_quicksort9963743239
	sslittle-na-sstrix-gcc -Wall -O3 -funroll-loops -finline-functions  -DRANDOM_SIZE=16384 -DOFFSET=1 -DSORT=base_quicksort9 sorts/base_quicksort91055382718.c simpleMain.c -o base_quicksort9963743239
	sim-cache -cache:dl1 dl1:256:32:1:l -cache:dl2 dl2:131072:32:1:l -cache:il1 il1:256:32:1:l -cache:il2 dl2 base_quicksort9963743239
	sim-cache -cache:dl1 dl1:256:32:1:l -cache:dl2 dl2:65536:32:1:l -cache:il1 il1:256:32:1:l -cache:il2 dl2 base_quicksort9963743239
	sim-cache -cache:dl1 dl1:1:32:256:l -cache:dl2 dl2:1:32:131072:l -cache:il1 il1:1:32:256:l -cache:il2 dl2 base_quicksort9963743239
	sim-cache -cache:dl1 dl1:1:32:256:l -cache:dl2 dl2:1:32:65536:l -cache:il1 il1:1:32:256:l -cache:il2 dl2 base_quicksort9963743239
	sim-bpred -bpred bimod -bpred:bimod 512 base_quicksort9963743239
	sim-bpred -bpred bimod -bpred:bimod 1024 base_quicksort9963743239
	sim-bpred -bpred bimod -bpred:bimod 2048 base_quicksort9963743239
	sim-bpred -bpred 2lev -bpred:2lev 1 512 10 1 base_quicksort9963743239
	sim-bpred -bpred 2lev -bpred:2lev 1 1024 10 1 base_quicksort9963743239
	sim-bpred -bpred 2lev -bpred:2lev 1 2048 10 1 base_quicksort9963743239
	sim-bpred -bpred 2lev -bpred:2lev 1 4096 10 1 base_quicksort9963743239
	sslittle-na-sstrix-gcc -Wall -O3 -funroll-loops -finline-functions  -DRANDOM_SIZE=32768 -DOFFSET=1 -DSORT=base_quicksort9 sorts/base_quicksort91055382718.c simpleMain.c -o base_quicksort9963743239
	sim-cache -cache:dl1 dl1:256:32:1:l -cache:dl2 dl2:131072:32:1:l -cache:il1 il1:256:32:1:l -cache:il2 dl2 base_quicksort9963743239
	sim-cache -cache:dl1 dl1:256:32:1:l -cache:dl2 dl2:65536:32:1:l -cache:il1 il1:256:32:1:l -cache:il2 dl2 base_quicksort9963743239
	sim-cache -cache:dl1 dl1:1:32:256:l -cache:dl2 dl2:1:32:131072:l -cache:il1 il1:1:32:256:l -cache:il2 dl2 base_quicksort9963743239
	sim-cache -cache:dl1 dl1:1:32:256:l -cache:dl2 dl2:1:32:65536:l -cache:il1 il1:1:32:256:l -cache:il2 dl2 base_quicksort9963743239
	sim-bpred -bpred bimod -bpred:bimod 512 base_quicksort9963743239
	sim-bpred -bpred bimod -bpred:bimod 1024 base_quicksort9963743239
	sim-bpred -bpred bimod -bpred:bimod 2048 base_quicksort9963743239
	sim-bpred -bpred 2lev -bpred:2lev 1 512 10 1 base_quicksort9963743239
	sim-bpred -bpred 2lev -bpred:2lev 1 1024 10 1 base_quicksort9963743239
	sim-bpred -bpred 2lev -bpred:2lev 1 2048 10 1 base_quicksort9963743239
	sim-bpred -bpred 2lev -bpred:2lev 1 4096 10 1 base_quicksort9963743239
	sslittle-na-sstrix-gcc -Wall -O3 -funroll-loops -finline-functions  -DRANDOM_SIZE=65536 -DOFFSET=1 -DSORT=base_quicksort9 sorts/base_quicksort91055382718.c simpleMain.c -o base_quicksort9963743239
	sim-cache -cache:dl1 dl1:256:32:1:l -cache:dl2 dl2:131072:32:1:l -cache:il1 il1:256:32:1:l -cache:il2 dl2 base_quicksort9963743239
	sim-cache -cache:dl1 dl1:256:32:1:l -cache:dl2 dl2:65536:32:1:l -cache:il1 il1:256:32:1:l -cache:il2 dl2 base_quicksort9963743239
	sim-cache -cache:dl1 dl1:1:32:256:l -cache:dl2 dl2:1:32:131072:l -cache:il1 il1:1:32:256:l -cache:il2 dl2 base_quicksort9963743239
	sim-cache -cache:dl1 dl1:1:32:256:l -cache:dl2 dl2:1:32:65536:l -cache:il1 il1:1:32:256:l -cache:il2 dl2 base_quicksort9963743239
	sim-bpred -bpred bimod -bpred:bimod 512 base_quicksort9963743239
	sim-bpred -bpred bimod -bpred:bimod 1024 base_quicksort9963743239
	sim-bpred -bpred bimod -bpred:bimod 2048 base_quicksort9963743239
	sim-bpred -bpred 2lev -bpred:2lev 1 512 10 1 base_quicksort9963743239
	sim-bpred -bpred 2lev -bpred:2lev 1 1024 10 1 base_quicksort9963743239
	sim-bpred -bpred 2lev -bpred:2lev 1 2048 10 1 base_quicksort9963743239
	sim-bpred -bpred 2lev -bpred:2lev 1 4096 10 1 base_quicksort9963743239
	sslittle-na-sstrix-gcc -Wall -O3 -funroll-loops -finline-functions  -DRANDOM_SIZE=131072 -DOFFSET=1 -DSORT=base_quicksort9 sorts/base_quicksort91055382718.c simpleMain.c -o base_quicksort9963743239
	sim-cache -cache:dl1 dl1:256:32:1:l -cache:dl2 dl2:131072:32:1:l -cache:il1 il1:256:32:1:l -cache:il2 dl2 base_quicksort9963743239
	sim-cache -cache:dl1 dl1:256:32:1:l -cache:dl2 dl2:65536:32:1:l -cache:il1 il1:256:32:1:l -cache:il2 dl2 base_quicksort9963743239
	sim-cache -cache:dl1 dl1:1:32:256:l -cache:dl2 dl2:1:32:131072:l -cache:il1 il1:1:32:256:l -cache:il2 dl2 base_quicksort9963743239
	sim-cache -cache:dl1 dl1:1:32:256:l -cache:dl2 dl2:1:32:65536:l -cache:il1 il1:1:32:256:l -cache:il2 dl2 base_quicksort9963743239
	sim-bpred -bpred bimod -bpred:bimod 512 base_quicksort9963743239
	sim-bpred -bpred bimod -bpred:bimod 1024 base_quicksort9963743239
	sim-bpred -bpred bimod -bpred:bimod 2048 base_quicksort9963743239
	sim-bpred -bpred 2lev -bpred:2lev 1 512 10 1 base_quicksort9963743239
	sim-bpred -bpred 2lev -bpred:2lev 1 1024 10 1 base_quicksort9963743239
	sim-bpred -bpred 2lev -bpred:2lev 1 2048 10 1 base_quicksort9963743239
	sim-bpred -bpred 2lev -bpred:2lev 1 4096 10 1 base_quicksort9963743239
	sslittle-na-sstrix-gcc -Wall -O3 -funroll-loops -finline-functions  -DRANDOM_SIZE=262144 -DOFFSET=1 -DSORT=base_quicksort9 sorts/base_quicksort91055382718.c simpleMain.c -o base_quicksort9963743239
	sim-cache -cache:dl1 dl1:256:32:1:l -cache:dl2 dl2:131072:32:1:l -cache:il1 il1:256:32:1:l -cache:il2 dl2 base_quicksort9963743239
	sim-cache -cache:dl1 dl1:256:32:1:l -cache:dl2 dl2:65536:32:1:l -cache:il1 il1:256:32:1:l -cache:il2 dl2 base_quicksort9963743239
	sim-cache -cache:dl1 dl1:1:32:256:l -cache:dl2 dl2:1:32:131072:l -cache:il1 il1:1:32:256:l -cache:il2 dl2 base_quicksort9963743239
	sim-cache -cache:dl1 dl1:1:32:256:l -cache:dl2 dl2:1:32:65536:l -cache:il1 il1:1:32:256:l -cache:il2 dl2 base_quicksort9963743239
	sim-bpred -bpred bimod -bpred:bimod 512 base_quicksort9963743239
	sim-bpred -bpred bimod -bpred:bimod 1024 base_quicksort9963743239
	sim-bpred -bpred bimod -bpred:bimod 2048 base_quicksort9963743239
	sim-bpred -bpred 2lev -bpred:2lev 1 512 10 1 base_quicksort9963743239
	sim-bpred -bpred 2lev -bpred:2lev 1 1024 10 1 base_quicksort9963743239
	sim-bpred -bpred 2lev -bpred:2lev 1 2048 10 1 base_quicksort9963743239
	sim-bpred -bpred 2lev -bpred:2lev 1 4096 10 1 base_quicksort9963743239
	sslittle-na-sstrix-gcc -Wall -O3 -funroll-loops -finline-functions  -DRANDOM_SIZE=524288 -DOFFSET=1 -DSORT=base_quicksort9 sorts/base_quicksort91055382718.c simpleMain.c -o base_quicksort9963743239
	sim-cache -cache:dl1 dl1:256:32:1:l -cache:dl2 dl2:131072:32:1:l -cache:il1 il1:256:32:1:l -cache:il2 dl2 base_quicksort9963743239
	sim-cache -cache:dl1 dl1:256:32:1:l -cache:dl2 dl2:65536:32:1:l -cache:il1 il1:256:32:1:l -cache:il2 dl2 base_quicksort9963743239
	sim-cache -cache:dl1 dl1:1:32:256:l -cache:dl2 dl2:1:32:131072:l -cache:il1 il1:1:32:256:l -cache:il2 dl2 base_quicksort9963743239
	sim-cache -cache:dl1 dl1:1:32:256:l -cache:dl2 dl2:1:32:65536:l -cache:il1 il1:1:32:256:l -cache:il2 dl2 base_quicksort9963743239
	sim-bpred -bpred bimod -bpred:bimod 512 base_quicksort9963743239
	sim-bpred -bpred bimod -bpred:bimod 1024 base_quicksort9963743239
	sim-bpred -bpred bimod -bpred:bimod 2048 base_quicksort9963743239
	sim-bpred -bpred 2lev -bpred:2lev 1 512 10 1 base_quicksort9963743239
	sim-bpred -bpred 2lev -bpred:2lev 1 1024 10 1 base_quicksort9963743239
	sim-bpred -bpred 2lev -bpred:2lev 1 2048 10 1 base_quicksort9963743239
	sim-bpred -bpred 2lev -bpred:2lev 1 4096 10 1 base_quicksort9963743239
	sslittle-na-sstrix-gcc -Wall -O3 -funroll-loops -finline-functions  -DRANDOM_SIZE=1048576 -DOFFSET=1 -DSORT=base_quicksort9 sorts/base_quicksort91055382718.c simpleMain.c -o base_quicksort9963743239
	sim-cache -cache:dl1 dl1:256:32:1:l -cache:dl2 dl2:131072:32:1:l -cache:il1 il1:256:32:1:l -cache:il2 dl2 base_quicksort9963743239
	sim-cache -cache:dl1 dl1:256:32:1:l -cache:dl2 dl2:65536:32:1:l -cache:il1 il1:256:32:1:l -cache:il2 dl2 base_quicksort9963743239
	sim-cache -cache:dl1 dl1:1:32:256:l -cache:dl2 dl2:1:32:131072:l -cache:il1 il1:1:32:256:l -cache:il2 dl2 base_quicksort9963743239
	sim-cache -cache:dl1 dl1:1:32:256:l -cache:dl2 dl2:1:32:65536:l -cache:il1 il1:1:32:256:l -cache:il2 dl2 base_quicksort9963743239
	sim-bpred -bpred bimod -bpred:bimod 512 base_quicksort9963743239
	sim-bpred -bpred bimod -bpred:bimod 1024 base_quicksort9963743239
	sim-bpred -bpred bimod -bpred:bimod 2048 base_quicksort9963743239
	sim-bpred -bpred 2lev -bpred:2lev 1 512 10 1 base_quicksort9963743239
	sim-bpred -bpred 2lev -bpred:2lev 1 1024 10 1 base_quicksort9963743239
	sim-bpred -bpred 2lev -bpred:2lev 1 2048 10 1 base_quicksort9963743239
	sim-bpred -bpred 2lev -bpred:2lev 1 4096 10 1 base_quicksort9963743239
	sslittle-na-sstrix-gcc -Wall -O3 -funroll-loops -finline-functions  -DRANDOM_SIZE=2097152 -DOFFSET=1 -DSORT=base_quicksort9 sorts/base_quicksort91055382718.c simpleMain.c -o base_quicksort9963743239
	sim-cache -cache:dl1 dl1:256:32:1:l -cache:dl2 dl2:131072:32:1:l -cache:il1 il1:256:32:1:l -cache:il2 dl2 base_quicksort9963743239
	sim-cache -cache:dl1 dl1:256:32:1:l -cache:dl2 dl2:65536:32:1:l -cache:il1 il1:256:32:1:l -cache:il2 dl2 base_quicksort9963743239
	sim-cache -cache:dl1 dl1:1:32:256:l -cache:dl2 dl2:1:32:131072:l -cache:il1 il1:1:32:256:l -cache:il2 dl2 base_quicksort9963743239
	sim-cache -cache:dl1 dl1:1:32:256:l -cache:dl2 dl2:1:32:65536:l -cache:il1 il1:1:32:256:l -cache:il2 dl2 base_quicksort9963743239
	sim-bpred -bpred bimod -bpred:bimod 512 base_quicksort9963743239
	sim-bpred -bpred bimod -bpred:bimod 1024 base_quicksort9963743239
	sim-bpred -bpred bimod -bpred:bimod 2048 base_quicksort9963743239
	sim-bpred -bpred 2lev -bpred:2lev 1 512 10 1 base_quicksort9963743239
	sim-bpred -bpred 2lev -bpred:2lev 1 1024 10 1 base_quicksort9963743239
	sim-bpred -bpred 2lev -bpred:2lev 1 2048 10 1 base_quicksort9963743239
	sim-bpred -bpred 2lev -bpred:2lev 1 4096 10 1 base_quicksort9963743239
	sslittle-na-sstrix-gcc -Wall -O3 -funroll-loops -finline-functions  -DRANDOM_SIZE=4194304 -DOFFSET=1 -DSORT=base_quicksort9 sorts/base_quicksort91055382718.c simpleMain.c -o base_quicksort9963743239
	sim-cache -cache:dl1 dl1:256:32:1:l -cache:dl2 dl2:131072:32:1:l -cache:il1 il1:256:32:1:l -cache:il2 dl2 base_quicksort9963743239
	sim-cache -cache:dl1 dl1:256:32:1:l -cache:dl2 dl2:65536:32:1:l -cache:il1 il1:256:32:1:l -cache:il2 dl2 base_quicksort9963743239
	sim-cache -cache:dl1 dl1:1:32:256:l -cache:dl2 dl2:1:32:131072:l -cache:il1 il1:1:32:256:l -cache:il2 dl2 base_quicksort9963743239
	sim-cache -cache:dl1 dl1:1:32:256:l -cache:dl2 dl2:1:32:65536:l -cache:il1 il1:1:32:256:l -cache:il2 dl2 base_quicksort9963743239
	sim-bpred -bpred bimod -bpred:bimod 512 base_quicksort9963743239
	sim-bpred -bpred bimod -bpred:bimod 1024 base_quicksort9963743239
	sim-bpred -bpred bimod -bpred:bimod 2048 base_quicksort9963743239
	sim-bpred -bpred 2lev -bpred:2lev 1 512 10 1 base_quicksort9963743239
	sim-bpred -bpred 2lev -bpred:2lev 1 1024 10 1 base_quicksort9963743239
	sim-bpred -bpred 2lev -bpred:2lev 1 2048 10 1 base_quicksort9963743239
	sim-bpred -bpred 2lev -bpred:2lev 1 4096 10 1 base_quicksort9963743239
