Sun Jul 24 19:38:15 2005
Run as: "./do_simple -c random.org7 -o 7 base_quicksort"
-------------------------------------------------------------------------------------------------
sim-cache                                     4096 |         4096 |         4096 |         4096 |         8192 |         8192 |         8192 |         8192 |        16384 |        16384 |        16384 |        16384 |        32768 |        32768 |        32768 |        32768 |        65536 |        65536 |        65536 |        65536 |       131072 |       131072 |       131072 |       131072 |       262144 |       262144 |       262144 |       262144 |       524288 |       524288 |       524288 |       524288 |      1048576 |      1048576 |      1048576 |      1048576 |      2097152 |      2097152 |      2097152 |      2097152 |      4194304 |      4194304 |      4194304 |      4194304 |
-cache:dl1 dl1:256:32:1:l -cache:dl2 dl2:131072:32:1:l -cache:il1 il1:256:32:1:l -cache:il2 dl2
-cache:dl1 dl1:256:32:1:l -cache:dl2 dl2:65536:32:1:l -cache:il1 il1:256:32:1:l -cache:il2 dl2
-cache:dl1 dl1:1:32:256:l -cache:dl2 dl2:1:32:131072:l -cache:il1 il1:1:32:256:l -cache:il2 dl2
-cache:dl1 dl1:1:32:256:l -cache:dl2 dl2:1:32:65536:l -cache:il1 il1:1:32:256:l -cache:il2 dl2
-------------------------------------------------------------------------------------------------
sim_num_insn                                479193 |       479193 |       479193 |       479193 |      1008513 |      1008513 |      1008513 |      1008513 |      2150309 |      2150309 |      2150309 |      2150309 |      4716743 |      4716743 |      4716743 |      4716743 |      9905555 |      9905555 |      9905555 |      9905555 |     20685097 |     20685097 |     20685097 |     20685097 |     43966700 |     43966700 |     43966700 |     43966700 |     93537350 |     93537350 |     93537350 |     93537350 |    195194257 |    195194257 |    195194257 |    195194257 |    408109622 |    408109622 |    408109622 |    408109622 |    862250810 |    862250810 |    862250810 |    862250810 |
sim_num_refs                                126252 |       126252 |       126252 |       126252 |       263450 |       263450 |       263450 |       263450 |       557889 |       557889 |       557889 |       557889 |      1194182 |      1194182 |      1194182 |      1194182 |      2509559 |      2509559 |      2509559 |      2509559 |      5247067 |      5247067 |      5247067 |      5247067 |     11078535 |     11078535 |     11078535 |     11078535 |     23369008 |     23369008 |     23369008 |     23369008 |     48778446 |     48778446 |     48778446 |     48778446 |    101788234 |    101788234 |    101788234 |    101788234 |    213632052 |    213632052 |    213632052 |    213632052 |
sim_elapsed_time                                 1 |            1 |            7 |            4 |            1 |            1 |           10 |            5 |            1 |            1 |           15 |            8 |            1 |            1 |           27 |           14 |            3 |            2 |           48 |           25 |            6 |            6 |           90 |           44 |           11 |           12 |          163 |           76 |           25 |           24 |          280 |          109 |           51 |           51 |          388 |          137 |          107 |          108 |          478 |          204 |          230 |          229 |          588 |          331 |
sim_inst_rate                          479193.0000 |  479193.0000 |   68456.1429 |  119798.2500 | 1008513.0000 | 1008513.0000 |  100851.3000 |  201702.6000 | 2150309.0000 | 2150309.0000 |  143353.9333 |  268788.6250 | 4716743.0000 | 4716743.0000 |  174694.1852 |  336910.2143 | 3301851.6667 | 4952777.5000 |  206365.7292 |  396222.2000 | 3447516.1667 | 3447516.1667 |  229834.4111 |  470115.8409 | 3996972.7273 | 3663891.6667 |  269734.3558 |  578509.2105 | 3741494.0000 | 3897389.5833 |  334061.9643 |  858140.8257 | 3827338.3725 | 3827338.3725 |  503077.9820 | 1424775.5985 | 3814108.6168 | 3778792.7963 |  853785.8201 | 2000537.3627 | 3748916.5652 | 3765287.3799 | 1466412.9422 | 2604987.3414 |
il1.accesses                                479193 |       479193 |       479193 |       479193 |      1008513 |      1008513 |      1008513 |      1008513 |      2150309 |      2150309 |      2150309 |      2150309 |      4716743 |      4716743 |      4716743 |      4716743 |      9905555 |      9905555 |      9905555 |      9905555 |     20685097 |     20685097 |     20685097 |     20685097 |     43966700 |     43966700 |     43966700 |     43966700 |     93537350 |     93537350 |     93537350 |     93537350 |    195194257 |    195194257 |    195194257 |    195194257 |    408109622 |    408109622 |    408109622 |    408109622 |    862250810 |    862250810 |    862250810 |    862250810 |
il1.hits                                    478742 |       478742 |       478773 |       478773 |      1008060 |      1008060 |      1008091 |      1008091 |      2149844 |      2149844 |      2149884 |      2149884 |      4716289 |      4716289 |      4716320 |      4716320 |      9905101 |      9905101 |      9905132 |      9905132 |     20684644 |     20684644 |     20684675 |     20684675 |     43966247 |     43966247 |     43966278 |     43966278 |     93536897 |     93536897 |     93536928 |     93536928 |    195193804 |    195193804 |    195193835 |    195193835 |    408109169 |    408109169 |    408109200 |    408109200 |    862250357 |    862250357 |    862250388 |    862250388 |
il1.misses                                     451 |          451 |          420 |          420 |          453 |          453 |          422 |          422 |          465 |          465 |          425 |          425 |          454 |          454 |          423 |          423 |          454 |          454 |          423 |          423 |          453 |          453 |          422 |          422 |          453 |          453 |          422 |          422 |          453 |          453 |          422 |          422 |          453 |          453 |          422 |          422 |          453 |          453 |          422 |          422 |          453 |          453 |          422 |          422 |
il1.replacements                               213 |          213 |          164 |          164 |          215 |          215 |          166 |          166 |          227 |          227 |          169 |          169 |          216 |          216 |          167 |          167 |          216 |          216 |          167 |          167 |          216 |          216 |          166 |          166 |          216 |          216 |          166 |          166 |          216 |          216 |          166 |          166 |          216 |          216 |          166 |          166 |          216 |          216 |          166 |          166 |          216 |          216 |          166 |          166 |
il1.writebacks                                   0 |            0 |            0 |            0 |            0 |            0 |            0 |            0 |            0 |            0 |            0 |            0 |            0 |            0 |            0 |            0 |            0 |            0 |            0 |            0 |            0 |            0 |            0 |            0 |            0 |            0 |            0 |            0 |            0 |            0 |            0 |            0 |            0 |            0 |            0 |            0 |            0 |            0 |            0 |            0 |            0 |            0 |            0 |            0 |
il1.invalidations                                0 |            0 |            0 |            0 |            0 |            0 |            0 |            0 |            0 |            0 |            0 |            0 |            0 |            0 |            0 |            0 |            0 |            0 |            0 |            0 |            0 |            0 |            0 |            0 |            0 |            0 |            0 |            0 |            0 |            0 |            0 |            0 |            0 |            0 |            0 |            0 |            0 |            0 |            0 |            0 |            0 |            0 |            0 |            0 |
il1.miss_rate                               0.0009 |       0.0009 |       0.0009 |       0.0009 |       0.0004 |       0.0004 |       0.0004 |       0.0004 |       0.0002 |       0.0002 |       0.0002 |       0.0002 |       0.0001 |       0.0001 |       0.0001 |       0.0001 |       0.0000 |       0.0000 |       0.0000 |       0.0000 |       0.0000 |       0.0000 |       0.0000 |       0.0000 |       0.0000 |       0.0000 |       0.0000 |       0.0000 |       0.0000 |       0.0000 |       0.0000 |       0.0000 |       0.0000 |       0.0000 |       0.0000 |       0.0000 |       0.0000 |       0.0000 |       0.0000 |       0.0000 |       0.0000 |       0.0000 |       0.0000 |       0.0000 |
il1.repl_rate                               0.0004 |       0.0004 |       0.0003 |       0.0003 |       0.0002 |       0.0002 |       0.0002 |       0.0002 |       0.0001 |       0.0001 |       0.0001 |       0.0001 |       0.0000 |       0.0000 |       0.0000 |       0.0000 |       0.0000 |       0.0000 |       0.0000 |       0.0000 |       0.0000 |       0.0000 |       0.0000 |       0.0000 |       0.0000 |       0.0000 |       0.0000 |       0.0000 |       0.0000 |       0.0000 |       0.0000 |       0.0000 |       0.0000 |       0.0000 |       0.0000 |       0.0000 |       0.0000 |       0.0000 |       0.0000 |       0.0000 |       0.0000 |       0.0000 |       0.0000 |       0.0000 |
il1.wb_rate                                 0.0000 |       0.0000 |       0.0000 |       0.0000 |       0.0000 |       0.0000 |       0.0000 |       0.0000 |       0.0000 |       0.0000 |       0.0000 |       0.0000 |       0.0000 |       0.0000 |       0.0000 |       0.0000 |       0.0000 |       0.0000 |       0.0000 |       0.0000 |       0.0000 |       0.0000 |       0.0000 |       0.0000 |       0.0000 |       0.0000 |       0.0000 |       0.0000 |       0.0000 |       0.0000 |       0.0000 |       0.0000 |       0.0000 |       0.0000 |       0.0000 |       0.0000 |       0.0000 |       0.0000 |       0.0000 |       0.0000 |       0.0000 |       0.0000 |       0.0000 |       0.0000 |
il1.inv_rate                                0.0000 |       0.0000 |       0.0000 |       0.0000 |       0.0000 |       0.0000 |       0.0000 |       0.0000 |       0.0000 |       0.0000 |       0.0000 |       0.0000 |       0.0000 |       0.0000 |       0.0000 |       0.0000 |       0.0000 |       0.0000 |       0.0000 |       0.0000 |       0.0000 |       0.0000 |       0.0000 |       0.0000 |       0.0000 |       0.0000 |       0.0000 |       0.0000 |       0.0000 |       0.0000 |       0.0000 |       0.0000 |       0.0000 |       0.0000 |       0.0000 |       0.0000 |       0.0000 |       0.0000 |       0.0000 |       0.0000 |       0.0000 |       0.0000 |       0.0000 |       0.0000 |
dl1.accesses                                142718 |       142718 |       142718 |       142718 |       296300 |       296300 |       296300 |       296300 |       623507 |       623507 |       623507 |       623507 |      1325336 |      1325336 |      1325336 |      1325336 |      2771785 |      2771785 |      2771785 |      2771785 |      5771437 |      5771437 |      5771437 |      5771437 |     12127193 |     12127193 |     12127193 |     12127193 |     25466242 |     25466242 |     25466242 |     25466242 |     52972832 |     52972832 |     52972832 |     52972832 |    110176924 |    110176924 |    110176924 |    110176924 |    230409350 |    230409350 |    230409350 |    230409350 |
dl1.hits                                    140046 |       140046 |       139756 |       139756 |       289929 |       289929 |       289973 |       289973 |       609517 |       609517 |       609285 |       609285 |      1290405 |      1290405 |      1290342 |      1290342 |      2695063 |      2695063 |      2695311 |      2695311 |      5607287 |      5607287 |      5607270 |      5607270 |     11755645 |     11755645 |     11758131 |     11758131 |     24624239 |     24624239 |     24630544 |     24630544 |     51167270 |     51167270 |     51182669 |     51182669 |    106302220 |    106302220 |    106339725 |    106339725 |    221839079 |    221839079 |    221932071 |    221932071 |
dl1.misses                                    2672 |         2672 |         2962 |         2962 |         6371 |         6371 |         6327 |         6327 |        13990 |        13990 |        14222 |        14222 |        34931 |        34931 |        34994 |        34994 |        76722 |        76722 |        76474 |        76474 |       164150 |       164150 |       164167 |       164167 |       371548 |       371548 |       369062 |       369062 |       842003 |       842003 |       835698 |       835698 |      1805562 |      1805562 |      1790163 |      1790163 |      3874704 |      3874704 |      3837199 |      3837199 |      8570271 |      8570271 |      8477279 |      8477279 |
dl1.replacements                              2416 |         2416 |         2706 |         2706 |         6115 |         6115 |         6071 |         6071 |        13734 |        13734 |        13966 |        13966 |        34675 |        34675 |        34738 |        34738 |        76466 |        76466 |        76218 |        76218 |       163894 |       163894 |       163911 |       163911 |       371292 |       371292 |       368806 |       368806 |       841747 |       841747 |       835442 |       835442 |      1805306 |      1805306 |      1789907 |      1789907 |      3874448 |      3874448 |      3836943 |      3836943 |      8570015 |      8570015 |      8477023 |      8477023 |
dl1.writebacks                                2297 |         2297 |         2516 |         2516 |         5794 |         5794 |         5797 |         5797 |        13094 |        13094 |        13361 |        13361 |        31450 |        31450 |        31626 |        31626 |        70689 |        70689 |        71036 |        71036 |       155480 |       155480 |       156774 |       156774 |       347630 |       347630 |       348405 |       348405 |       776442 |       776442 |       777522 |       777522 |      1680088 |      1680088 |      1681684 |      1681684 |      3598968 |      3598968 |      3600816 |      3600816 |      7867279 |      7867279 |      7860872 |      7860872 |
dl1.invalidations                                0 |            0 |            0 |            0 |            0 |            0 |            0 |            0 |            0 |            0 |            0 |            0 |            0 |            0 |            0 |            0 |            0 |            0 |            0 |            0 |            0 |            0 |            0 |            0 |            0 |            0 |            0 |            0 |            0 |            0 |            0 |            0 |            0 |            0 |            0 |            0 |            0 |            0 |            0 |            0 |            0 |            0 |            0 |            0 |
dl1.miss_rate                               0.0187 |       0.0187 |       0.0208 |       0.0208 |       0.0215 |       0.0215 |       0.0214 |       0.0214 |       0.0224 |       0.0224 |       0.0228 |       0.0228 |       0.0264 |       0.0264 |       0.0264 |       0.0264 |       0.0277 |       0.0277 |       0.0276 |       0.0276 |       0.0284 |       0.0284 |       0.0284 |       0.0284 |       0.0306 |       0.0306 |       0.0304 |       0.0304 |       0.0331 |       0.0331 |       0.0328 |       0.0328 |       0.0341 |       0.0341 |       0.0338 |       0.0338 |       0.0352 |       0.0352 |       0.0348 |       0.0348 |       0.0372 |       0.0372 |       0.0368 |       0.0368 |
dl1.repl_rate                               0.0169 |       0.0169 |       0.0190 |       0.0190 |       0.0206 |       0.0206 |       0.0205 |       0.0205 |       0.0220 |       0.0220 |       0.0224 |       0.0224 |       0.0262 |       0.0262 |       0.0262 |       0.0262 |       0.0276 |       0.0276 |       0.0275 |       0.0275 |       0.0284 |       0.0284 |       0.0284 |       0.0284 |       0.0306 |       0.0306 |       0.0304 |       0.0304 |       0.0331 |       0.0331 |       0.0328 |       0.0328 |       0.0341 |       0.0341 |       0.0338 |       0.0338 |       0.0352 |       0.0352 |       0.0348 |       0.0348 |       0.0372 |       0.0372 |       0.0368 |       0.0368 |
dl1.wb_rate                                 0.0161 |       0.0161 |       0.0176 |       0.0176 |       0.0196 |       0.0196 |       0.0196 |       0.0196 |       0.0210 |       0.0210 |       0.0214 |       0.0214 |       0.0237 |       0.0237 |       0.0239 |       0.0239 |       0.0255 |       0.0255 |       0.0256 |       0.0256 |       0.0269 |       0.0269 |       0.0272 |       0.0272 |       0.0287 |       0.0287 |       0.0287 |       0.0287 |       0.0305 |       0.0305 |       0.0305 |       0.0305 |       0.0317 |       0.0317 |       0.0317 |       0.0317 |       0.0327 |       0.0327 |       0.0327 |       0.0327 |       0.0341 |       0.0341 |       0.0341 |       0.0341 |
dl1.inv_rate                                0.0000 |       0.0000 |       0.0000 |       0.0000 |       0.0000 |       0.0000 |       0.0000 |       0.0000 |       0.0000 |       0.0000 |       0.0000 |       0.0000 |       0.0000 |       0.0000 |       0.0000 |       0.0000 |       0.0000 |       0.0000 |       0.0000 |       0.0000 |       0.0000 |       0.0000 |       0.0000 |       0.0000 |       0.0000 |       0.0000 |       0.0000 |       0.0000 |       0.0000 |       0.0000 |       0.0000 |       0.0000 |       0.0000 |       0.0000 |       0.0000 |       0.0000 |       0.0000 |       0.0000 |       0.0000 |       0.0000 |       0.0000 |       0.0000 |       0.0000 |       0.0000 |
dl2.accesses                                  5420 |         5420 |         5898 |         5898 |        12618 |        12618 |        12546 |        12546 |        27549 |        27549 |        28008 |        28008 |        66835 |        66835 |        67043 |        67043 |       147865 |       147865 |       147933 |       147933 |       320083 |       320083 |       321363 |       321363 |       719631 |       719631 |       717889 |       717889 |      1618898 |      1618898 |      1613642 |      1613642 |      3486103 |      3486103 |      3472269 |      3472269 |      7474125 |      7474125 |      7438437 |      7438437 |     16438003 |     16438003 |     16338573 |     16338573 |
dl2.hits                                      4055 |         4055 |         4543 |         4543 |        10739 |        10739 |        10677 |        10677 |        24647 |        24647 |        25121 |        25121 |        61891 |        61891 |        62109 |        62109 |       138824 |       138824 |       138902 |       138902 |       302851 |       302851 |       304141 |       304141 |       686015 |       686015 |       684283 |       684283 |      1552514 |      1551756 |      1547268 |      1487927 |      3353423 |      2997976 |      3221280 |      2932525 |      6661855 |      6305096 |      6528854 |      6162286 |     13887664 |     13085758 |     13557628 |     12843439 |
dl2.misses                                    1365 |         1365 |         1355 |         1355 |         1879 |         1879 |         1869 |         1869 |         2902 |         2902 |         2887 |         2887 |         4944 |         4944 |         4934 |         4934 |         9041 |         9041 |         9031 |         9031 |        17232 |        17232 |        17222 |        17222 |        33616 |        33616 |        33606 |        33606 |        66384 |        67142 |        66374 |       125715 |       132680 |       488127 |       250989 |       539744 |       812270 |      1169029 |       909583 |      1276151 |      2550339 |      3352245 |      2780945 |      3495134 |
dl2.replacements                               144 |          144 |            0 |            0 |          144 |          144 |            0 |            0 |          150 |          150 |            0 |            0 |          144 |          144 |            0 |            0 |          144 |          144 |            0 |            0 |          144 |          144 |            0 |            0 |          144 |          144 |            0 |            0 |          144 |         1606 |            0 |        60179 |         1608 |       422591 |       119917 |       474208 |       681198 |      1103493 |       778511 |      1210615 |      2419267 |      3286709 |      2649873 |      3429598 |
dl2.writebacks                                  88 |           88 |            0 |            0 |           88 |           88 |            0 |            0 |           89 |           89 |            0 |            0 |           88 |           88 |            0 |            0 |           88 |           88 |            0 |            0 |           88 |           88 |            0 |            0 |           88 |           88 |            0 |            0 |           88 |         1300 |            0 |        55178 |         1299 |       414401 |       115210 |       466004 |       679343 |      1094650 |       775236 |      1191126 |      2382619 |      3128861 |      2602735 |      3250058 |
dl2.invalidations                                0 |            0 |            0 |            0 |            0 |            0 |            0 |            0 |            0 |            0 |            0 |            0 |            0 |            0 |            0 |            0 |            0 |            0 |            0 |            0 |            0 |            0 |            0 |            0 |            0 |            0 |            0 |            0 |            0 |            0 |            0 |            0 |            0 |            0 |            0 |            0 |            0 |            0 |            0 |            0 |            0 |            0 |            0 |            0 |
dl2.miss_rate                               0.2518 |       0.2518 |       0.2297 |       0.2297 |       0.1489 |       0.1489 |       0.1490 |       0.1490 |       0.1053 |       0.1053 |       0.1031 |       0.1031 |       0.0740 |       0.0740 |       0.0736 |       0.0736 |       0.0611 |       0.0611 |       0.0610 |       0.0610 |       0.0538 |       0.0538 |       0.0536 |       0.0536 |       0.0467 |       0.0467 |       0.0468 |       0.0468 |       0.0410 |       0.0415 |       0.0411 |       0.0779 |       0.0381 |       0.1400 |       0.0723 |       0.1554 |       0.1087 |       0.1564 |       0.1223 |       0.1716 |       0.1551 |       0.2039 |       0.1702 |       0.2139 |
dl2.repl_rate                               0.0266 |       0.0266 |       0.0000 |       0.0000 |       0.0114 |       0.0114 |       0.0000 |       0.0000 |       0.0054 |       0.0054 |       0.0000 |       0.0000 |       0.0022 |       0.0022 |       0.0000 |       0.0000 |       0.0010 |       0.0010 |       0.0000 |       0.0000 |       0.0004 |       0.0004 |       0.0000 |       0.0000 |       0.0002 |       0.0002 |       0.0000 |       0.0000 |       0.0001 |       0.0010 |       0.0000 |       0.0373 |       0.0005 |       0.1212 |       0.0345 |       0.1366 |       0.0911 |       0.1476 |       0.1047 |       0.1628 |       0.1472 |       0.1999 |       0.1622 |       0.2099 |
dl2.wb_rate                                 0.0162 |       0.0162 |       0.0000 |       0.0000 |       0.0070 |       0.0070 |       0.0000 |       0.0000 |       0.0032 |       0.0032 |       0.0000 |       0.0000 |       0.0013 |       0.0013 |       0.0000 |       0.0000 |       0.0006 |       0.0006 |       0.0000 |       0.0000 |       0.0003 |       0.0003 |       0.0000 |       0.0000 |       0.0001 |       0.0001 |       0.0000 |       0.0000 |       0.0001 |       0.0008 |       0.0000 |       0.0342 |       0.0004 |       0.1189 |       0.0332 |       0.1342 |       0.0909 |       0.1465 |       0.1042 |       0.1601 |       0.1449 |       0.1903 |       0.1593 |       0.1989 |
dl2.inv_rate                                0.0000 |       0.0000 |       0.0000 |       0.0000 |       0.0000 |       0.0000 |       0.0000 |       0.0000 |       0.0000 |       0.0000 |       0.0000 |       0.0000 |       0.0000 |       0.0000 |       0.0000 |       0.0000 |       0.0000 |       0.0000 |       0.0000 |       0.0000 |       0.0000 |       0.0000 |       0.0000 |       0.0000 |       0.0000 |       0.0000 |       0.0000 |       0.0000 |       0.0000 |       0.0000 |       0.0000 |       0.0000 |       0.0000 |       0.0000 |       0.0000 |       0.0000 |       0.0000 |       0.0000 |       0.0000 |       0.0000 |       0.0000 |       0.0000 |       0.0000 |       0.0000 |
itlb.accesses                               479193 |       479193 |       479193 |       479193 |      1008513 |      1008513 |      1008513 |      1008513 |      2150309 |      2150309 |      2150309 |      2150309 |      4716743 |      4716743 |      4716743 |      4716743 |      9905555 |      9905555 |      9905555 |      9905555 |     20685097 |     20685097 |     20685097 |     20685097 |     43966700 |     43966700 |     43966700 |     43966700 |     93537350 |     93537350 |     93537350 |     93537350 |    195194257 |    195194257 |    195194257 |    195194257 |    408109622 |    408109622 |    408109622 |    408109622 |    862250810 |    862250810 |    862250810 |    862250810 |
itlb.hits                                   479183 |       479183 |       479183 |       479183 |      1008503 |      1008503 |      1008503 |      1008503 |      2150299 |      2150299 |      2150299 |      2150299 |      4716733 |      4716733 |      4716733 |      4716733 |      9905545 |      9905545 |      9905545 |      9905545 |     20685087 |     20685087 |     20685087 |     20685087 |     43966690 |     43966690 |     43966690 |     43966690 |     93537340 |     93537340 |     93537340 |     93537340 |    195194247 |    195194247 |    195194247 |    195194247 |    408109612 |    408109612 |    408109612 |    408109612 |    862250800 |    862250800 |    862250800 |    862250800 |
itlb.misses                                     10 |           10 |           10 |           10 |           10 |           10 |           10 |           10 |           10 |           10 |           10 |           10 |           10 |           10 |           10 |           10 |           10 |           10 |           10 |           10 |           10 |           10 |           10 |           10 |           10 |           10 |           10 |           10 |           10 |           10 |           10 |           10 |           10 |           10 |           10 |           10 |           10 |           10 |           10 |           10 |           10 |           10 |           10 |           10 |
itlb.replacements                                0 |            0 |            0 |            0 |            0 |            0 |            0 |            0 |            0 |            0 |            0 |            0 |            0 |            0 |            0 |            0 |            0 |            0 |            0 |            0 |            0 |            0 |            0 |            0 |            0 |            0 |            0 |            0 |            0 |            0 |            0 |            0 |            0 |            0 |            0 |            0 |            0 |            0 |            0 |            0 |            0 |            0 |            0 |            0 |
itlb.writebacks                                  0 |            0 |            0 |            0 |            0 |            0 |            0 |            0 |            0 |            0 |            0 |            0 |            0 |            0 |            0 |            0 |            0 |            0 |            0 |            0 |            0 |            0 |            0 |            0 |            0 |            0 |            0 |            0 |            0 |            0 |            0 |            0 |            0 |            0 |            0 |            0 |            0 |            0 |            0 |            0 |            0 |            0 |            0 |            0 |
itlb.invalidations                               0 |            0 |            0 |            0 |            0 |            0 |            0 |            0 |            0 |            0 |            0 |            0 |            0 |            0 |            0 |            0 |            0 |            0 |            0 |            0 |            0 |            0 |            0 |            0 |            0 |            0 |            0 |            0 |            0 |            0 |            0 |            0 |            0 |            0 |            0 |            0 |            0 |            0 |            0 |            0 |            0 |            0 |            0 |            0 |
itlb.miss_rate                              0.0000 |       0.0000 |       0.0000 |       0.0000 |       0.0000 |       0.0000 |       0.0000 |       0.0000 |       0.0000 |       0.0000 |       0.0000 |       0.0000 |       0.0000 |       0.0000 |       0.0000 |       0.0000 |       0.0000 |       0.0000 |       0.0000 |       0.0000 |       0.0000 |       0.0000 |       0.0000 |       0.0000 |       0.0000 |       0.0000 |       0.0000 |       0.0000 |       0.0000 |       0.0000 |       0.0000 |       0.0000 |       0.0000 |       0.0000 |       0.0000 |       0.0000 |       0.0000 |       0.0000 |       0.0000 |       0.0000 |       0.0000 |       0.0000 |       0.0000 |       0.0000 |
itlb.repl_rate                              0.0000 |       0.0000 |       0.0000 |       0.0000 |       0.0000 |       0.0000 |       0.0000 |       0.0000 |       0.0000 |       0.0000 |       0.0000 |       0.0000 |       0.0000 |       0.0000 |       0.0000 |       0.0000 |       0.0000 |       0.0000 |       0.0000 |       0.0000 |       0.0000 |       0.0000 |       0.0000 |       0.0000 |       0.0000 |       0.0000 |       0.0000 |       0.0000 |       0.0000 |       0.0000 |       0.0000 |       0.0000 |       0.0000 |       0.0000 |       0.0000 |       0.0000 |       0.0000 |       0.0000 |       0.0000 |       0.0000 |       0.0000 |       0.0000 |       0.0000 |       0.0000 |
itlb.wb_rate                                0.0000 |       0.0000 |       0.0000 |       0.0000 |       0.0000 |       0.0000 |       0.0000 |       0.0000 |       0.0000 |       0.0000 |       0.0000 |       0.0000 |       0.0000 |       0.0000 |       0.0000 |       0.0000 |       0.0000 |       0.0000 |       0.0000 |       0.0000 |       0.0000 |       0.0000 |       0.0000 |       0.0000 |       0.0000 |       0.0000 |       0.0000 |       0.0000 |       0.0000 |       0.0000 |       0.0000 |       0.0000 |       0.0000 |       0.0000 |       0.0000 |       0.0000 |       0.0000 |       0.0000 |       0.0000 |       0.0000 |       0.0000 |       0.0000 |       0.0000 |       0.0000 |
itlb.inv_rate                               0.0000 |       0.0000 |       0.0000 |       0.0000 |       0.0000 |       0.0000 |       0.0000 |       0.0000 |       0.0000 |       0.0000 |       0.0000 |       0.0000 |       0.0000 |       0.0000 |       0.0000 |       0.0000 |       0.0000 |       0.0000 |       0.0000 |       0.0000 |       0.0000 |       0.0000 |       0.0000 |       0.0000 |       0.0000 |       0.0000 |       0.0000 |       0.0000 |       0.0000 |       0.0000 |       0.0000 |       0.0000 |       0.0000 |       0.0000 |       0.0000 |       0.0000 |       0.0000 |       0.0000 |       0.0000 |       0.0000 |       0.0000 |       0.0000 |       0.0000 |       0.0000 |
dtlb.accesses                               142718 |       142718 |       142718 |       142718 |       296300 |       296300 |       296300 |       296300 |       623507 |       623507 |       623507 |       623507 |      1325336 |      1325336 |      1325336 |      1325336 |      2771785 |      2771785 |      2771785 |      2771785 |      5771437 |      5771437 |      5771437 |      5771437 |     12127193 |     12127193 |     12127193 |     12127193 |     25466242 |     25466242 |     25466242 |     25466242 |     52972832 |     52972832 |     52972832 |     52972832 |    110176924 |    110176924 |    110176924 |    110176924 |    230409350 |    230409350 |    230409350 |    230409350 |
dtlb.hits                                   142706 |       142706 |       142706 |       142706 |       296284 |       296284 |       296284 |       296284 |       623483 |       623483 |       623483 |       623483 |      1325296 |      1325296 |      1325296 |      1325296 |      2771713 |      2771713 |      2771713 |      2771713 |      5771265 |      5771265 |      5771265 |      5771265 |     12126210 |     12126210 |     12126210 |     12126210 |     25463320 |     25463320 |     25463320 |     25463320 |     52966331 |     52966331 |     52966331 |     52966331 |    110161603 |    110161603 |    110161603 |    110161603 |    230372522 |    230372522 |    230372522 |    230372522 |
dtlb.misses                                     12 |           12 |           12 |           12 |           16 |           16 |           16 |           16 |           24 |           24 |           24 |           24 |           40 |           40 |           40 |           40 |           72 |           72 |           72 |           72 |          172 |          172 |          172 |          172 |          983 |          983 |          983 |          983 |         2922 |         2922 |         2922 |         2922 |         6501 |         6501 |         6501 |         6501 |        15321 |        15321 |        15321 |        15321 |        36828 |        36828 |        36828 |        36828 |
dtlb.replacements                                0 |            0 |            0 |            0 |            0 |            0 |            0 |            0 |            0 |            0 |            0 |            0 |            0 |            0 |            0 |            0 |            0 |            0 |            0 |            0 |           44 |           44 |           44 |           44 |          855 |          855 |          855 |          855 |         2794 |         2794 |         2794 |         2794 |         6373 |         6373 |         6373 |         6373 |        15193 |        15193 |        15193 |        15193 |        36700 |        36700 |        36700 |        36700 |
dtlb.writebacks                                  0 |            0 |            0 |            0 |            0 |            0 |            0 |            0 |            0 |            0 |            0 |            0 |            0 |            0 |            0 |            0 |            0 |            0 |            0 |            0 |           42 |           42 |           42 |           42 |          853 |          853 |          853 |          853 |         2792 |         2792 |         2792 |         2792 |         6371 |         6371 |         6371 |         6371 |        15191 |        15191 |        15191 |        15191 |        36698 |        36698 |        36698 |        36698 |
dtlb.invalidations                               0 |            0 |            0 |            0 |            0 |            0 |            0 |            0 |            0 |            0 |            0 |            0 |            0 |            0 |            0 |            0 |            0 |            0 |            0 |            0 |            0 |            0 |            0 |            0 |            0 |            0 |            0 |            0 |            0 |            0 |            0 |            0 |            0 |            0 |            0 |            0 |            0 |            0 |            0 |            0 |            0 |            0 |            0 |            0 |
dtlb.miss_rate                              0.0001 |       0.0001 |       0.0001 |       0.0001 |       0.0001 |       0.0001 |       0.0001 |       0.0001 |       0.0000 |       0.0000 |       0.0000 |       0.0000 |       0.0000 |       0.0000 |       0.0000 |       0.0000 |       0.0000 |       0.0000 |       0.0000 |       0.0000 |       0.0000 |       0.0000 |       0.0000 |       0.0000 |       0.0001 |       0.0001 |       0.0001 |       0.0001 |       0.0001 |       0.0001 |       0.0001 |       0.0001 |       0.0001 |       0.0001 |       0.0001 |       0.0001 |       0.0001 |       0.0001 |       0.0001 |       0.0001 |       0.0002 |       0.0002 |       0.0002 |       0.0002 |
dtlb.repl_rate                              0.0000 |       0.0000 |       0.0000 |       0.0000 |       0.0000 |       0.0000 |       0.0000 |       0.0000 |       0.0000 |       0.0000 |       0.0000 |       0.0000 |       0.0000 |       0.0000 |       0.0000 |       0.0000 |       0.0000 |       0.0000 |       0.0000 |       0.0000 |       0.0000 |       0.0000 |       0.0000 |       0.0000 |       0.0001 |       0.0001 |       0.0001 |       0.0001 |       0.0001 |       0.0001 |       0.0001 |       0.0001 |       0.0001 |       0.0001 |       0.0001 |       0.0001 |       0.0001 |       0.0001 |       0.0001 |       0.0001 |       0.0002 |       0.0002 |       0.0002 |       0.0002 |
dtlb.wb_rate                                0.0000 |       0.0000 |       0.0000 |       0.0000 |       0.0000 |       0.0000 |       0.0000 |       0.0000 |       0.0000 |       0.0000 |       0.0000 |       0.0000 |       0.0000 |       0.0000 |       0.0000 |       0.0000 |       0.0000 |       0.0000 |       0.0000 |       0.0000 |       0.0000 |       0.0000 |       0.0000 |       0.0000 |       0.0001 |       0.0001 |       0.0001 |       0.0001 |       0.0001 |       0.0001 |       0.0001 |       0.0001 |       0.0001 |       0.0001 |       0.0001 |       0.0001 |       0.0001 |       0.0001 |       0.0001 |       0.0001 |       0.0002 |       0.0002 |       0.0002 |       0.0002 |
dtlb.inv_rate                               0.0000 |       0.0000 |       0.0000 |       0.0000 |       0.0000 |       0.0000 |       0.0000 |       0.0000 |       0.0000 |       0.0000 |       0.0000 |       0.0000 |       0.0000 |       0.0000 |       0.0000 |       0.0000 |       0.0000 |       0.0000 |       0.0000 |       0.0000 |       0.0000 |       0.0000 |       0.0000 |       0.0000 |       0.0000 |       0.0000 |       0.0000 |       0.0000 |       0.0000 |       0.0000 |       0.0000 |       0.0000 |       0.0000 |       0.0000 |       0.0000 |       0.0000 |       0.0000 |       0.0000 |       0.0000 |       0.0000 |       0.0000 |       0.0000 |       0.0000 |       0.0000 |
ld_text_base                            0x00400000 |   0x00400000 |   0x00400000 |   0x00400000 |   0x00400000 |   0x00400000 |   0x00400000 |   0x00400000 |   0x00400000 |   0x00400000 |   0x00400000 |   0x00400000 |   0x00400000 |   0x00400000 |   0x00400000 |   0x00400000 |   0x00400000 |   0x00400000 |   0x00400000 |   0x00400000 |   0x00400000 |   0x00400000 |   0x00400000 |   0x00400000 |   0x00400000 |   0x00400000 |   0x00400000 |   0x00400000 |   0x00400000 |   0x00400000 |   0x00400000 |   0x00400000 |   0x00400000 |   0x00400000 |   0x00400000 |   0x00400000 |   0x00400000 |   0x00400000 |   0x00400000 |   0x00400000 |   0x00400000 |   0x00400000 |   0x00400000 |   0x00400000 |
ld_text_size                                 73456 |        73456 |        73456 |        73456 |        73488 |        73488 |        73488 |        73488 |        73504 |        73504 |        73504 |        73504 |        73520 |        73520 |        73520 |        73520 |        73520 |        73520 |        73520 |        73520 |        73520 |        73520 |        73520 |        73520 |        73520 |        73520 |        73520 |        73520 |        73520 |        73520 |        73520 |        73520 |        73520 |        73520 |        73520 |        73520 |        73520 |        73520 |        73520 |        73520 |        73520 |        73520 |        73520 |        73520 |
ld_data_base                            0x10000000 |   0x10000000 |   0x10000000 |   0x10000000 |   0x10000000 |   0x10000000 |   0x10000000 |   0x10000000 |   0x10000000 |   0x10000000 |   0x10000000 |   0x10000000 |   0x10000000 |   0x10000000 |   0x10000000 |   0x10000000 |   0x10000000 |   0x10000000 |   0x10000000 |   0x10000000 |   0x10000000 |   0x10000000 |   0x10000000 |   0x10000000 |   0x10000000 |   0x10000000 |   0x10000000 |   0x10000000 |   0x10000000 |   0x10000000 |   0x10000000 |   0x10000000 |   0x10000000 |   0x10000000 |   0x10000000 |   0x10000000 |   0x10000000 |   0x10000000 |   0x10000000 |   0x10000000 |   0x10000000 |   0x10000000 |   0x10000000 |   0x10000000 |
ld_data_size                                  8192 |         8192 |         8192 |         8192 |         8192 |         8192 |         8192 |         8192 |         8192 |         8192 |         8192 |         8192 |         8192 |         8192 |         8192 |         8192 |         8192 |         8192 |         8192 |         8192 |         8192 |         8192 |         8192 |         8192 |         8192 |         8192 |         8192 |         8192 |         8192 |         8192 |         8192 |         8192 |         8192 |         8192 |         8192 |         8192 |         8192 |         8192 |         8192 |         8192 |         8192 |         8192 |         8192 |         8192 |
ld_stack_base                           0x7fffc000 |   0x7fffc000 |   0x7fffc000 |   0x7fffc000 |   0x7fffc000 |   0x7fffc000 |   0x7fffc000 |   0x7fffc000 |   0x7fffc000 |   0x7fffc000 |   0x7fffc000 |   0x7fffc000 |   0x7fffc000 |   0x7fffc000 |   0x7fffc000 |   0x7fffc000 |   0x7fffc000 |   0x7fffc000 |   0x7fffc000 |   0x7fffc000 |   0x7fffc000 |   0x7fffc000 |   0x7fffc000 |   0x7fffc000 |   0x7fffc000 |   0x7fffc000 |   0x7fffc000 |   0x7fffc000 |   0x7fffc000 |   0x7fffc000 |   0x7fffc000 |   0x7fffc000 |   0x7fffc000 |   0x7fffc000 |   0x7fffc000 |   0x7fffc000 |   0x7fffc000 |   0x7fffc000 |   0x7fffc000 |   0x7fffc000 |   0x7fffc000 |   0x7fffc000 |   0x7fffc000 |   0x7fffc000 |
ld_stack_size                                16384 |        16384 |        16384 |        16384 |        16384 |        16384 |        16384 |        16384 |        16384 |        16384 |        16384 |        16384 |        16384 |        16384 |        16384 |        16384 |        16384 |        16384 |        16384 |        16384 |        16384 |        16384 |        16384 |        16384 |        16384 |        16384 |        16384 |        16384 |        16384 |        16384 |        16384 |        16384 |        16384 |        16384 |        16384 |        16384 |        16384 |        16384 |        16384 |        16384 |        16384 |        16384 |        16384 |        16384 |
ld_prog_entry                           0x00400140 |   0x00400140 |   0x00400140 |   0x00400140 |   0x00400140 |   0x00400140 |   0x00400140 |   0x00400140 |   0x00400140 |   0x00400140 |   0x00400140 |   0x00400140 |   0x00400140 |   0x00400140 |   0x00400140 |   0x00400140 |   0x00400140 |   0x00400140 |   0x00400140 |   0x00400140 |   0x00400140 |   0x00400140 |   0x00400140 |   0x00400140 |   0x00400140 |   0x00400140 |   0x00400140 |   0x00400140 |   0x00400140 |   0x00400140 |   0x00400140 |   0x00400140 |   0x00400140 |   0x00400140 |   0x00400140 |   0x00400140 |   0x00400140 |   0x00400140 |   0x00400140 |   0x00400140 |   0x00400140 |   0x00400140 |   0x00400140 |   0x00400140 |
ld_environ_base                         0x7fff8000 |   0x7fff8000 |   0x7fff8000 |   0x7fff8000 |   0x7fff8000 |   0x7fff8000 |   0x7fff8000 |   0x7fff8000 |   0x7fff8000 |   0x7fff8000 |   0x7fff8000 |   0x7fff8000 |   0x7fff8000 |   0x7fff8000 |   0x7fff8000 |   0x7fff8000 |   0x7fff8000 |   0x7fff8000 |   0x7fff8000 |   0x7fff8000 |   0x7fff8000 |   0x7fff8000 |   0x7fff8000 |   0x7fff8000 |   0x7fff8000 |   0x7fff8000 |   0x7fff8000 |   0x7fff8000 |   0x7fff8000 |   0x7fff8000 |   0x7fff8000 |   0x7fff8000 |   0x7fff8000 |   0x7fff8000 |   0x7fff8000 |   0x7fff8000 |   0x7fff8000 |   0x7fff8000 |   0x7fff8000 |   0x7fff8000 |   0x7fff8000 |   0x7fff8000 |   0x7fff8000 |   0x7fff8000 |
ld_target_big_endian                             0 |            0 |            0 |            0 |            0 |            0 |            0 |            0 |            0 |            0 |            0 |            0 |            0 |            0 |            0 |            0 |            0 |            0 |            0 |            0 |            0 |            0 |            0 |            0 |            0 |            0 |            0 |            0 |            0 |            0 |            0 |            0 |            0 |            0 |            0 |            0 |            0 |            0 |            0 |            0 |            0 |            0 |            0 |            0 |
mem.page_count                                  30 |           30 |           30 |           30 |           34 |           34 |           34 |           34 |           42 |           42 |           42 |           42 |           58 |           58 |           58 |           58 |           90 |           90 |           90 |           90 |          154 |          154 |          154 |          154 |          282 |          282 |          282 |          282 |          538 |          538 |          538 |          538 |         1050 |         1050 |         1050 |         1050 |         2074 |         2074 |         2074 |         2074 |         4122 |         4122 |         4122 |         4122 |
mem.page_mem                                  120k |         120k |         120k |         120k |         136k |         136k |         136k |         136k |         168k |         168k |         168k |         168k |         232k |         232k |         232k |         232k |         360k |         360k |         360k |         360k |         616k |         616k |         616k |         616k |        1128k |        1128k |        1128k |        1128k |        2152k |        2152k |        2152k |        2152k |        4200k |        4200k |        4200k |        4200k |        8296k |        8296k |        8296k |        8296k |       16488k |       16488k |       16488k |       16488k |
mem.ptab_misses                                 30 |           30 |           30 |           30 |           34 |           34 |           34 |           34 |           42 |           42 |           42 |           42 |           58 |           58 |           58 |           58 |           90 |           90 |           90 |           90 |          154 |          154 |          154 |          154 |          282 |          282 |          282 |          282 |          538 |          538 |          538 |          538 |         1050 |         1050 |         1050 |         1050 |         2074 |         2074 |         2074 |         2074 |         4122 |         4122 |         4122 |         4122 |
mem.ptab_accesses                          2657552 |      2657552 |      2657552 |      2657552 |      5082188 |      5082188 |      5082188 |      5082188 |     10303882 |     10303882 |     10303882 |     10303882 |     21973372 |     21973372 |     21973372 |     21973372 |     45621518 |     45621518 |     45621518 |     45621518 |     94738990 |     94738990 |     94738990 |     94738990 |    200576914 |    200576914 |    200576914 |    200576914 |    425537612 |    425537612 |    425537612 |    425537612 |    887178420 |    887178420 |    887178420 |    887178420 |   1853248064 |   1853248064 |   1853248064 |   1853248064 |   3910277668 |   3910277668 |   3910277668 |   3910277668 |
mem.ptab_miss_rate                          0.0000 |       0.0000 |       0.0000 |       0.0000 |       0.0000 |       0.0000 |       0.0000 |       0.0000 |       0.0000 |       0.0000 |       0.0000 |       0.0000 |       0.0000 |       0.0000 |       0.0000 |       0.0000 |       0.0000 |       0.0000 |       0.0000 |       0.0000 |       0.0000 |       0.0000 |       0.0000 |       0.0000 |       0.0000 |       0.0000 |       0.0000 |       0.0000 |       0.0000 |       0.0000 |       0.0000 |       0.0000 |       0.0000 |       0.0000 |       0.0000 |       0.0000 |       0.0000 |       0.0000 |       0.0000 |       0.0000 |       0.0000 |       0.0000 |       0.0000 |       0.0000 |
-------------------------------------------------------------------------------------------------
sim-bpred                                     4096 |         4096 |         4096 |         4096 |         4096 |         4096 |         4096 |         8192 |         8192 |         8192 |         8192 |         8192 |         8192 |         8192 |        16384 |        16384 |        16384 |        16384 |        16384 |        16384 |        16384 |        32768 |        32768 |        32768 |        32768 |        32768 |        32768 |        32768 |        65536 |        65536 |        65536 |        65536 |        65536 |        65536 |        65536 |       131072 |       131072 |       131072 |       131072 |       131072 |       131072 |       131072 |       262144 |       262144 |       262144 |       262144 |       262144 |       262144 |       262144 |       524288 |       524288 |       524288 |       524288 |       524288 |       524288 |       524288 |      1048576 |      1048576 |      1048576 |      1048576 |      1048576 |      1048576 |      1048576 |      2097152 |      2097152 |      2097152 |      2097152 |      2097152 |      2097152 |      2097152 |      4194304 |      4194304 |      4194304 |      4194304 |      4194304 |      4194304 |      4194304 |
-bpred bimod -bpred:bimod 512
-bpred bimod -bpred:bimod 1024
-bpred bimod -bpred:bimod 2048
-bpred 2lev -bpred:2lev 1 512 10 1
-bpred 2lev -bpred:2lev 1 1024 10 1
-bpred 2lev -bpred:2lev 1 2048 10 1
-bpred 2lev -bpred:2lev 1 4096 10 1
-------------------------------------------------------------------------------------------------
sim_num_insn                                479193 |       479193 |       479193 |       479193 |       479193 |       479193 |       479193 |      1008513 |      1008513 |      1008513 |      1008513 |      1008513 |      1008513 |      1008513 |      2150309 |      2150309 |      2150309 |      2150309 |      2150309 |      2150309 |      2150309 |      4716743 |      4716743 |      4716743 |      4716743 |      4716743 |      4716743 |      4716743 |      9905555 |      9905555 |      9905555 |      9905555 |      9905555 |      9905555 |      9905555 |     20685097 |     20685097 |     20685097 |     20685097 |     20685097 |     20685097 |     20685097 |     43966700 |     43966700 |     43966700 |     43966700 |     43966700 |     43966700 |     43966700 |     93537350 |     93537350 |     93537350 |     93537350 |     93537350 |     93537350 |     93537350 |    195194257 |    195194257 |    195194257 |    195194257 |    195194257 |    195194257 |    195194257 |    408109622 |    408109622 |    408109622 |    408109622 |    408109622 |    408109622 |    408109622 |    862250810 |    862250810 |    862250810 |    862250810 |    862250810 |    862250810 |    862250810 |
sim_num_refs                                126252 |       126252 |       126252 |       126252 |       126252 |       126252 |       126252 |       263450 |       263450 |       263450 |       263450 |       263450 |       263450 |       263450 |       557889 |       557889 |       557889 |       557889 |       557889 |       557889 |       557889 |      1194182 |      1194182 |      1194182 |      1194182 |      1194182 |      1194182 |      1194182 |      2509559 |      2509559 |      2509559 |      2509559 |      2509559 |      2509559 |      2509559 |      5247067 |      5247067 |      5247067 |      5247067 |      5247067 |      5247067 |      5247067 |     11078535 |     11078535 |     11078535 |     11078535 |     11078535 |     11078535 |     11078535 |     23369008 |     23369008 |     23369008 |     23369008 |     23369008 |     23369008 |     23369008 |     48778446 |     48778446 |     48778446 |     48778446 |     48778446 |     48778446 |     48778446 |    101788234 |    101788234 |    101788234 |    101788234 |    101788234 |    101788234 |    101788234 |    213632052 |    213632052 |    213632052 |    213632052 |    213632052 |    213632052 |    213632052 |
sim_elapsed_time                                 1 |            1 |            1 |            1 |            1 |            1 |            1 |            1 |            1 |            1 |            1 |            1 |            1 |            1 |            1 |            1 |            1 |            1 |            1 |            1 |            1 |            1 |            1 |            1 |            1 |            1 |            1 |            1 |            1 |            1 |            1 |            1 |            1 |            1 |            1 |            3 |            2 |            2 |            3 |            2 |            3 |            2 |            6 |            5 |            5 |            6 |            5 |            5 |            6 |           11 |           11 |           11 |           11 |           12 |           11 |           11 |           24 |           24 |           27 |           26 |           24 |           24 |           24 |           53 |           53 |           50 |           50 |           51 |           50 |           50 |          105 |          104 |          105 |          107 |          107 |          106 |          106 |
sim_inst_rate                          479193.0000 |  479193.0000 |  479193.0000 |  479193.0000 |  479193.0000 |  479193.0000 |  479193.0000 | 1008513.0000 | 1008513.0000 | 1008513.0000 | 1008513.0000 | 1008513.0000 | 1008513.0000 | 1008513.0000 | 2150309.0000 | 2150309.0000 | 2150309.0000 | 2150309.0000 | 2150309.0000 | 2150309.0000 | 2150309.0000 | 4716743.0000 | 4716743.0000 | 4716743.0000 | 4716743.0000 | 4716743.0000 | 4716743.0000 | 4716743.0000 | 9905555.0000 | 9905555.0000 | 9905555.0000 | 9905555.0000 | 9905555.0000 | 9905555.0000 | 9905555.0000 | 6895032.3333 |10342548.5000 |10342548.5000 | 6895032.3333 |10342548.5000 | 6895032.3333 |10342548.5000 | 7327783.3333 | 8793340.0000 | 8793340.0000 | 7327783.3333 | 8793340.0000 | 8793340.0000 | 7327783.3333 | 8503395.4545 | 8503395.4545 | 8503395.4545 | 8503395.4545 | 7794779.1667 | 8503395.4545 | 8503395.4545 | 8133094.0417 | 8133094.0417 | 7229416.9259 | 7507471.4231 | 8133094.0417 | 8133094.0417 | 8133094.0417 | 7700181.5472 | 7700181.5472 | 8162192.4400 | 8162192.4400 | 8002149.4510 | 8162192.4400 | 8162192.4400 | 8211912.4762 | 8290873.1731 | 8211912.4762 | 8058418.7850 | 8058418.7850 | 8134441.6038 | 8134441.6038 |
sim_num_branches                             78014 |        78014 |        78014 |        78014 |        78014 |        78014 |        78014 |       165507 |       165507 |       165507 |       165507 |       165507 |       165507 |       165507 |       355444 |       355444 |       355444 |       355444 |       355444 |       355444 |       355444 |       783352 |       783352 |       783352 |       783352 |       783352 |       783352 |       783352 |      1654590 |      1654590 |      1654590 |      1654590 |      1654590 |      1654590 |      1654590 |      3474265 |      3474265 |      3474265 |      3474265 |      3474265 |      3474265 |      3474265 |      7408402 |      7408402 |      7408402 |      7408402 |      7408402 |      7408402 |      7408402 |     15807178 |     15807178 |     15807178 |     15807178 |     15807178 |     15807178 |     15807178 |     33119981 |     33119981 |     33119981 |     33119981 |     33119981 |     33119981 |     33119981 |     69393048 |     69393048 |     69393048 |     69393048 |     69393048 |     69393048 |     69393048 |    147008771 |    147008771 |    147008771 |    147008771 |    147008771 |    147008771 |    147008771 |
sim_IPB                                     6.1424 |       6.1424 |       6.1424 |       6.1424 |       6.1424 |       6.1424 |       6.1424 |       6.0935 |       6.0935 |       6.0935 |       6.0935 |       6.0935 |       6.0935 |       6.0935 |       6.0496 |       6.0496 |       6.0496 |       6.0496 |       6.0496 |       6.0496 |       6.0496 |       6.0212 |       6.0212 |       6.0212 |       6.0212 |       6.0212 |       6.0212 |       6.0212 |       5.9867 |       5.9867 |       5.9867 |       5.9867 |       5.9867 |       5.9867 |       5.9867 |       5.9538 |       5.9538 |       5.9538 |       5.9538 |       5.9538 |       5.9538 |       5.9538 |       5.9347 |       5.9347 |       5.9347 |       5.9347 |       5.9347 |       5.9347 |       5.9347 |       5.9174 |       5.9174 |       5.9174 |       5.9174 |       5.9174 |       5.9174 |       5.9174 |       5.8935 |       5.8935 |       5.8935 |       5.8935 |       5.8935 |       5.8935 |       5.8935 |       5.8811 |       5.8811 |       5.8811 |       5.8811 |       5.8811 |       5.8811 |       5.8811 |       5.8653 |       5.8653 |       5.8653 |       5.8653 |       5.8653 |       5.8653 |       5.8653 |
bpred_bimod.lookups                          78014 |        78014 |        78014 |xxxxxxxxxxxxx |xxxxxxxxxxxxx |xxxxxxxxxxxxx |xxxxxxxxxxxxx |       165507 |       165507 |       165507 |xxxxxxxxxxxxx |xxxxxxxxxxxxx |xxxxxxxxxxxxx |xxxxxxxxxxxxx |       355444 |       355444 |       355444 |xxxxxxxxxxxxx |xxxxxxxxxxxxx |xxxxxxxxxxxxx |xxxxxxxxxxxxx |       783352 |       783352 |       783352 |xxxxxxxxxxxxx |xxxxxxxxxxxxx |xxxxxxxxxxxxx |xxxxxxxxxxxxx |      1654590 |      1654590 |      1654590 |xxxxxxxxxxxxx |xxxxxxxxxxxxx |xxxxxxxxxxxxx |xxxxxxxxxxxxx |      3474265 |      3474265 |      3474265 |xxxxxxxxxxxxx |xxxxxxxxxxxxx |xxxxxxxxxxxxx |xxxxxxxxxxxxx |      7408402 |      7408402 |      7408402 |xxxxxxxxxxxxx |xxxxxxxxxxxxx |xxxxxxxxxxxxx |xxxxxxxxxxxxx |     15807178 |     15807178 |     15807178 |xxxxxxxxxxxxx |xxxxxxxxxxxxx |xxxxxxxxxxxxx |xxxxxxxxxxxxx |     33119981 |     33119981 |     33119981 |xxxxxxxxxxxxx |xxxxxxxxxxxxx |xxxxxxxxxxxxx |xxxxxxxxxxxxx |     69393048 |     69393048 |     69393048 |xxxxxxxxxxxxx |xxxxxxxxxxxxx |xxxxxxxxxxxxx |xxxxxxxxxxxxx |    147008771 |    147008771 |    147008771 |
bpred_bimod.updates                          78014 |        78014 |        78014 |xxxxxxxxxxxxx |xxxxxxxxxxxxx |xxxxxxxxxxxxx |xxxxxxxxxxxxx |       165507 |       165507 |       165507 |xxxxxxxxxxxxx |xxxxxxxxxxxxx |xxxxxxxxxxxxx |xxxxxxxxxxxxx |       355444 |       355444 |       355444 |xxxxxxxxxxxxx |xxxxxxxxxxxxx |xxxxxxxxxxxxx |xxxxxxxxxxxxx |       783352 |       783352 |       783352 |xxxxxxxxxxxxx |xxxxxxxxxxxxx |xxxxxxxxxxxxx |xxxxxxxxxxxxx |      1654590 |      1654590 |      1654590 |xxxxxxxxxxxxx |xxxxxxxxxxxxx |xxxxxxxxxxxxx |xxxxxxxxxxxxx |      3474265 |      3474265 |      3474265 |xxxxxxxxxxxxx |xxxxxxxxxxxxx |xxxxxxxxxxxxx |xxxxxxxxxxxxx |      7408402 |      7408402 |      7408402 |xxxxxxxxxxxxx |xxxxxxxxxxxxx |xxxxxxxxxxxxx |xxxxxxxxxxxxx |     15807178 |     15807178 |     15807178 |xxxxxxxxxxxxx |xxxxxxxxxxxxx |xxxxxxxxxxxxx |xxxxxxxxxxxxx |     33119981 |     33119981 |     33119981 |xxxxxxxxxxxxx |xxxxxxxxxxxxx |xxxxxxxxxxxxx |xxxxxxxxxxxxx |     69393048 |     69393048 |     69393048 |xxxxxxxxxxxxx |xxxxxxxxxxxxx |xxxxxxxxxxxxx |xxxxxxxxxxxxx |    147008771 |    147008771 |    147008771 |
bpred_bimod.addr_hits                        56323 |        56326 |        56328 |xxxxxxxxxxxxx |xxxxxxxxxxxxx |xxxxxxxxxxxxx |xxxxxxxxxxxxx |       118311 |       118311 |       118314 |xxxxxxxxxxxxx |xxxxxxxxxxxxx |xxxxxxxxxxxxx |xxxxxxxxxxxxx |       254283 |       254284 |       254286 |xxxxxxxxxxxxx |xxxxxxxxxxxxx |xxxxxxxxxxxxx |xxxxxxxxxxxxx |       571133 |       571134 |       571134 |xxxxxxxxxxxxx |xxxxxxxxxxxxx |xxxxxxxxxxxxx |xxxxxxxxxxxxx |      1199535 |      1199536 |      1199536 |xxxxxxxxxxxxx |xxxxxxxxxxxxx |xxxxxxxxxxxxx |xxxxxxxxxxxxx |      2490146 |      2490147 |      2490147 |xxxxxxxxxxxxx |xxxxxxxxxxxxx |xxxxxxxxxxxxx |xxxxxxxxxxxxx |      5330598 |      5330599 |      5330599 |xxxxxxxxxxxxx |xxxxxxxxxxxxx |xxxxxxxxxxxxx |xxxxxxxxxxxxx |     11503424 |     11503425 |     11503425 |xxxxxxxxxxxxx |xxxxxxxxxxxxx |xxxxxxxxxxxxx |xxxxxxxxxxxxx |     23956842 |     23956843 |     23956843 |xxxxxxxxxxxxx |xxxxxxxxxxxxx |xxxxxxxxxxxxx |xxxxxxxxxxxxx |     49861314 |     49861315 |     49861315 |xxxxxxxxxxxxx |xxxxxxxxxxxxx |xxxxxxxxxxxxx |xxxxxxxxxxxxx |    106851160 |    106851161 |    106851161 |
bpred_bimod.dir_hits                         56432 |        56433 |        56435 |xxxxxxxxxxxxx |xxxxxxxxxxxxx |xxxxxxxxxxxxx |xxxxxxxxxxxxx |       118422 |       118420 |       118422 |xxxxxxxxxxxxx |xxxxxxxxxxxxx |xxxxxxxxxxxxx |xxxxxxxxxxxxx |       254393 |       254392 |       254394 |xxxxxxxxxxxxx |xxxxxxxxxxxxx |xxxxxxxxxxxxx |xxxxxxxxxxxxx |       571243 |       571241 |       571240 |xxxxxxxxxxxxx |xxxxxxxxxxxxx |xxxxxxxxxxxxx |xxxxxxxxxxxxx |      1199647 |      1199645 |      1199644 |xxxxxxxxxxxxx |xxxxxxxxxxxxx |xxxxxxxxxxxxx |xxxxxxxxxxxxx |      2490260 |      2490258 |      2490257 |xxxxxxxxxxxxx |xxxxxxxxxxxxx |xxxxxxxxxxxxx |xxxxxxxxxxxxx |      5330709 |      5330707 |      5330706 |xxxxxxxxxxxxx |xxxxxxxxxxxxx |xxxxxxxxxxxxx |xxxxxxxxxxxxx |     11503535 |     11503533 |     11503532 |xxxxxxxxxxxxx |xxxxxxxxxxxxx |xxxxxxxxxxxxx |xxxxxxxxxxxxx |     23956954 |     23956952 |     23956951 |xxxxxxxxxxxxx |xxxxxxxxxxxxx |xxxxxxxxxxxxx |xxxxxxxxxxxxx |     49861428 |     49861426 |     49861425 |xxxxxxxxxxxxx |xxxxxxxxxxxxx |xxxxxxxxxxxxx |xxxxxxxxxxxxx |    106851272 |    106851270 |    106851269 |
bpred_bimod.misses                           21582 |        21581 |        21579 |xxxxxxxxxxxxx |xxxxxxxxxxxxx |xxxxxxxxxxxxx |xxxxxxxxxxxxx |        47085 |        47087 |        47085 |xxxxxxxxxxxxx |xxxxxxxxxxxxx |xxxxxxxxxxxxx |xxxxxxxxxxxxx |       101051 |       101052 |       101050 |xxxxxxxxxxxxx |xxxxxxxxxxxxx |xxxxxxxxxxxxx |xxxxxxxxxxxxx |       212109 |       212111 |       212112 |xxxxxxxxxxxxx |xxxxxxxxxxxxx |xxxxxxxxxxxxx |xxxxxxxxxxxxx |       454943 |       454945 |       454946 |xxxxxxxxxxxxx |xxxxxxxxxxxxx |xxxxxxxxxxxxx |xxxxxxxxxxxxx |       984005 |       984007 |       984008 |xxxxxxxxxxxxx |xxxxxxxxxxxxx |xxxxxxxxxxxxx |xxxxxxxxxxxxx |      2077693 |      2077695 |      2077696 |xxxxxxxxxxxxx |xxxxxxxxxxxxx |xxxxxxxxxxxxx |xxxxxxxxxxxxx |      4303643 |      4303645 |      4303646 |xxxxxxxxxxxxx |xxxxxxxxxxxxx |xxxxxxxxxxxxx |xxxxxxxxxxxxx |      9163027 |      9163029 |      9163030 |xxxxxxxxxxxxx |xxxxxxxxxxxxx |xxxxxxxxxxxxx |xxxxxxxxxxxxx |     19531620 |     19531622 |     19531623 |xxxxxxxxxxxxx |xxxxxxxxxxxxx |xxxxxxxxxxxxx |xxxxxxxxxxxxx |     40157499 |     40157501 |     40157502 |
bpred_bimod.jr_hits                             64 |           64 |           64 |xxxxxxxxxxxxx |xxxxxxxxxxxxx |xxxxxxxxxxxxx |xxxxxxxxxxxxx |           64 |           64 |           64 |xxxxxxxxxxxxx |xxxxxxxxxxxxx |xxxxxxxxxxxxx |xxxxxxxxxxxxx |           64 |           64 |           64 |xxxxxxxxxxxxx |xxxxxxxxxxxxx |xxxxxxxxxxxxx |xxxxxxxxxxxxx |           64 |           64 |           64 |xxxxxxxxxxxxx |xxxxxxxxxxxxx |xxxxxxxxxxxxx |xxxxxxxxxxxxx |           64 |           64 |           64 |xxxxxxxxxxxxx |xxxxxxxxxxxxx |xxxxxxxxxxxxx |xxxxxxxxxxxxx |           64 |           64 |           64 |xxxxxxxxxxxxx |xxxxxxxxxxxxx |xxxxxxxxxxxxx |xxxxxxxxxxxxx |           64 |           64 |           64 |xxxxxxxxxxxxx |xxxxxxxxxxxxx |xxxxxxxxxxxxx |xxxxxxxxxxxxx |           64 |           64 |           64 |xxxxxxxxxxxxx |xxxxxxxxxxxxx |xxxxxxxxxxxxx |xxxxxxxxxxxxx |           64 |           64 |           64 |xxxxxxxxxxxxx |xxxxxxxxxxxxx |xxxxxxxxxxxxx |xxxxxxxxxxxxx |           64 |           64 |           64 |xxxxxxxxxxxxx |xxxxxxxxxxxxx |xxxxxxxxxxxxx |xxxxxxxxxxxxx |           64 |           64 |           64 |
bpred_bimod.jr_seen                             64 |           64 |           64 |xxxxxxxxxxxxx |xxxxxxxxxxxxx |xxxxxxxxxxxxx |xxxxxxxxxxxxx |           64 |           64 |           64 |xxxxxxxxxxxxx |xxxxxxxxxxxxx |xxxxxxxxxxxxx |xxxxxxxxxxxxx |           64 |           64 |           64 |xxxxxxxxxxxxx |xxxxxxxxxxxxx |xxxxxxxxxxxxx |xxxxxxxxxxxxx |           64 |           64 |           64 |xxxxxxxxxxxxx |xxxxxxxxxxxxx |xxxxxxxxxxxxx |xxxxxxxxxxxxx |           64 |           64 |           64 |xxxxxxxxxxxxx |xxxxxxxxxxxxx |xxxxxxxxxxxxx |xxxxxxxxxxxxx |           64 |           64 |           64 |xxxxxxxxxxxxx |xxxxxxxxxxxxx |xxxxxxxxxxxxx |xxxxxxxxxxxxx |           64 |           64 |           64 |xxxxxxxxxxxxx |xxxxxxxxxxxxx |xxxxxxxxxxxxx |xxxxxxxxxxxxx |           64 |           64 |           64 |xxxxxxxxxxxxx |xxxxxxxxxxxxx |xxxxxxxxxxxxx |xxxxxxxxxxxxx |           64 |           64 |           64 |xxxxxxxxxxxxx |xxxxxxxxxxxxx |xxxxxxxxxxxxx |xxxxxxxxxxxxx |           64 |           64 |           64 |xxxxxxxxxxxxx |xxxxxxxxxxxxx |xxxxxxxxxxxxx |xxxxxxxxxxxxx |           64 |           64 |           64 |
bpred_bimod.jr_non_ras_hits.PP                   0 |            0 |            0 |xxxxxxxxxxxxx |xxxxxxxxxxxxx |xxxxxxxxxxxxx |xxxxxxxxxxxxx |            0 |            0 |            0 |xxxxxxxxxxxxx |xxxxxxxxxxxxx |xxxxxxxxxxxxx |xxxxxxxxxxxxx |            0 |            0 |            0 |xxxxxxxxxxxxx |xxxxxxxxxxxxx |xxxxxxxxxxxxx |xxxxxxxxxxxxx |            0 |            0 |            0 |xxxxxxxxxxxxx |xxxxxxxxxxxxx |xxxxxxxxxxxxx |xxxxxxxxxxxxx |            0 |            0 |            0 |xxxxxxxxxxxxx |xxxxxxxxxxxxx |xxxxxxxxxxxxx |xxxxxxxxxxxxx |            0 |            0 |            0 |xxxxxxxxxxxxx |xxxxxxxxxxxxx |xxxxxxxxxxxxx |xxxxxxxxxxxxx |            0 |            0 |            0 |xxxxxxxxxxxxx |xxxxxxxxxxxxx |xxxxxxxxxxxxx |xxxxxxxxxxxxx |            0 |            0 |            0 |xxxxxxxxxxxxx |xxxxxxxxxxxxx |xxxxxxxxxxxxx |xxxxxxxxxxxxx |            0 |            0 |            0 |xxxxxxxxxxxxx |xxxxxxxxxxxxx |xxxxxxxxxxxxx |xxxxxxxxxxxxx |            0 |            0 |            0 |xxxxxxxxxxxxx |xxxxxxxxxxxxx |xxxxxxxxxxxxx |xxxxxxxxxxxxx |            0 |            0 |            0 |
bpred_bimod.jr_non_ras_seen.PP                   0 |            0 |            0 |xxxxxxxxxxxxx |xxxxxxxxxxxxx |xxxxxxxxxxxxx |xxxxxxxxxxxxx |            0 |            0 |            0 |xxxxxxxxxxxxx |xxxxxxxxxxxxx |xxxxxxxxxxxxx |xxxxxxxxxxxxx |            0 |            0 |            0 |xxxxxxxxxxxxx |xxxxxxxxxxxxx |xxxxxxxxxxxxx |xxxxxxxxxxxxx |            0 |            0 |            0 |xxxxxxxxxxxxx |xxxxxxxxxxxxx |xxxxxxxxxxxxx |xxxxxxxxxxxxx |            0 |            0 |            0 |xxxxxxxxxxxxx |xxxxxxxxxxxxx |xxxxxxxxxxxxx |xxxxxxxxxxxxx |            0 |            0 |            0 |xxxxxxxxxxxxx |xxxxxxxxxxxxx |xxxxxxxxxxxxx |xxxxxxxxxxxxx |            0 |            0 |            0 |xxxxxxxxxxxxx |xxxxxxxxxxxxx |xxxxxxxxxxxxx |xxxxxxxxxxxxx |            0 |            0 |            0 |xxxxxxxxxxxxx |xxxxxxxxxxxxx |xxxxxxxxxxxxx |xxxxxxxxxxxxx |            0 |            0 |            0 |xxxxxxxxxxxxx |xxxxxxxxxxxxx |xxxxxxxxxxxxx |xxxxxxxxxxxxx |            0 |            0 |            0 |xxxxxxxxxxxxx |xxxxxxxxxxxxx |xxxxxxxxxxxxx |xxxxxxxxxxxxx |            0 |            0 |            0 |
bpred_bimod.bpred_addr_rate                 0.7220 |       0.7220 |       0.7220 |xxxxxxxxxxxxx |xxxxxxxxxxxxx |xxxxxxxxxxxxx |xxxxxxxxxxxxx |       0.7148 |       0.7148 |       0.7149 |xxxxxxxxxxxxx |xxxxxxxxxxxxx |xxxxxxxxxxxxx |xxxxxxxxxxxxx |       0.7154 |       0.7154 |       0.7154 |xxxxxxxxxxxxx |xxxxxxxxxxxxx |xxxxxxxxxxxxx |xxxxxxxxxxxxx |       0.7291 |       0.7291 |       0.7291 |xxxxxxxxxxxxx |xxxxxxxxxxxxx |xxxxxxxxxxxxx |xxxxxxxxxxxxx |       0.7250 |       0.7250 |       0.7250 |xxxxxxxxxxxxx |xxxxxxxxxxxxx |xxxxxxxxxxxxx |xxxxxxxxxxxxx |       0.7167 |       0.7167 |       0.7167 |xxxxxxxxxxxxx |xxxxxxxxxxxxx |xxxxxxxxxxxxx |xxxxxxxxxxxxx |       0.7195 |       0.7195 |       0.7195 |xxxxxxxxxxxxx |xxxxxxxxxxxxx |xxxxxxxxxxxxx |xxxxxxxxxxxxx |       0.7277 |       0.7277 |       0.7277 |xxxxxxxxxxxxx |xxxxxxxxxxxxx |xxxxxxxxxxxxx |xxxxxxxxxxxxx |       0.7233 |       0.7233 |       0.7233 |xxxxxxxxxxxxx |xxxxxxxxxxxxx |xxxxxxxxxxxxx |xxxxxxxxxxxxx |       0.7185 |       0.7185 |       0.7185 |xxxxxxxxxxxxx |xxxxxxxxxxxxx |xxxxxxxxxxxxx |xxxxxxxxxxxxx |       0.7268 |       0.7268 |       0.7268 |
bpred_bimod.bpred_dir_rate                  0.7234 |       0.7234 |       0.7234 |xxxxxxxxxxxxx |xxxxxxxxxxxxx |xxxxxxxxxxxxx |xxxxxxxxxxxxx |       0.7155 |       0.7155 |       0.7155 |xxxxxxxxxxxxx |xxxxxxxxxxxxx |xxxxxxxxxxxxx |xxxxxxxxxxxxx |       0.7157 |       0.7157 |       0.7157 |xxxxxxxxxxxxx |xxxxxxxxxxxxx |xxxxxxxxxxxxx |xxxxxxxxxxxxx |       0.7292 |       0.7292 |       0.7292 |xxxxxxxxxxxxx |xxxxxxxxxxxxx |xxxxxxxxxxxxx |xxxxxxxxxxxxx |       0.7250 |       0.7250 |       0.7250 |xxxxxxxxxxxxx |xxxxxxxxxxxxx |xxxxxxxxxxxxx |xxxxxxxxxxxxx |       0.7168 |       0.7168 |       0.7168 |xxxxxxxxxxxxx |xxxxxxxxxxxxx |xxxxxxxxxxxxx |xxxxxxxxxxxxx |       0.7195 |       0.7195 |       0.7195 |xxxxxxxxxxxxx |xxxxxxxxxxxxx |xxxxxxxxxxxxx |xxxxxxxxxxxxx |       0.7277 |       0.7277 |       0.7277 |xxxxxxxxxxxxx |xxxxxxxxxxxxx |xxxxxxxxxxxxx |xxxxxxxxxxxxx |       0.7233 |       0.7233 |       0.7233 |xxxxxxxxxxxxx |xxxxxxxxxxxxx |xxxxxxxxxxxxx |xxxxxxxxxxxxx |       0.7185 |       0.7185 |       0.7185 |xxxxxxxxxxxxx |xxxxxxxxxxxxx |xxxxxxxxxxxxx |xxxxxxxxxxxxx |       0.7268 |       0.7268 |       0.7268 |
bpred_bimod.bpred_jr_rate                   1.0000 |       1.0000 |       1.0000 |xxxxxxxxxxxxx |xxxxxxxxxxxxx |xxxxxxxxxxxxx |xxxxxxxxxxxxx |       1.0000 |       1.0000 |       1.0000 |xxxxxxxxxxxxx |xxxxxxxxxxxxx |xxxxxxxxxxxxx |xxxxxxxxxxxxx |       1.0000 |       1.0000 |       1.0000 |xxxxxxxxxxxxx |xxxxxxxxxxxxx |xxxxxxxxxxxxx |xxxxxxxxxxxxx |       1.0000 |       1.0000 |       1.0000 |xxxxxxxxxxxxx |xxxxxxxxxxxxx |xxxxxxxxxxxxx |xxxxxxxxxxxxx |       1.0000 |       1.0000 |       1.0000 |xxxxxxxxxxxxx |xxxxxxxxxxxxx |xxxxxxxxxxxxx |xxxxxxxxxxxxx |       1.0000 |       1.0000 |       1.0000 |xxxxxxxxxxxxx |xxxxxxxxxxxxx |xxxxxxxxxxxxx |xxxxxxxxxxxxx |       1.0000 |       1.0000 |       1.0000 |xxxxxxxxxxxxx |xxxxxxxxxxxxx |xxxxxxxxxxxxx |xxxxxxxxxxxxx |       1.0000 |       1.0000 |       1.0000 |xxxxxxxxxxxxx |xxxxxxxxxxxxx |xxxxxxxxxxxxx |xxxxxxxxxxxxx |       1.0000 |       1.0000 |       1.0000 |xxxxxxxxxxxxx |xxxxxxxxxxxxx |xxxxxxxxxxxxx |xxxxxxxxxxxxx |       1.0000 |       1.0000 |       1.0000 |xxxxxxxxxxxxx |xxxxxxxxxxxxx |xxxxxxxxxxxxx |xxxxxxxxxxxxx |       1.0000 |       1.0000 |       1.0000 |
bpred_bimod.bpred_jr_non_ras_rate.PP       <error: |      <error: |      <error: |xxxxxxxxxxxxx |xxxxxxxxxxxxx |xxxxxxxxxxxxx |xxxxxxxxxxxxx |      <error: |      <error: |      <error: |xxxxxxxxxxxxx |xxxxxxxxxxxxx |xxxxxxxxxxxxx |xxxxxxxxxxxxx |      <error: |      <error: |      <error: |xxxxxxxxxxxxx |xxxxxxxxxxxxx |xxxxxxxxxxxxx |xxxxxxxxxxxxx |      <error: |      <error: |      <error: |xxxxxxxxxxxxx |xxxxxxxxxxxxx |xxxxxxxxxxxxx |xxxxxxxxxxxxx |      <error: |      <error: |      <error: |xxxxxxxxxxxxx |xxxxxxxxxxxxx |xxxxxxxxxxxxx |xxxxxxxxxxxxx |      <error: |      <error: |      <error: |xxxxxxxxxxxxx |xxxxxxxxxxxxx |xxxxxxxxxxxxx |xxxxxxxxxxxxx |      <error: |      <error: |      <error: |xxxxxxxxxxxxx |xxxxxxxxxxxxx |xxxxxxxxxxxxx |xxxxxxxxxxxxx |      <error: |      <error: |      <error: |xxxxxxxxxxxxx |xxxxxxxxxxxxx |xxxxxxxxxxxxx |xxxxxxxxxxxxx |      <error: |      <error: |      <error: |xxxxxxxxxxxxx |xxxxxxxxxxxxx |xxxxxxxxxxxxx |xxxxxxxxxxxxx |      <error: |      <error: |      <error: |xxxxxxxxxxxxx |xxxxxxxxxxxxx |xxxxxxxxxxxxx |xxxxxxxxxxxxx |      <error: |      <error: |      <error: |
bpred_bimod.retstack_pushes                     66 |           66 |           66 |xxxxxxxxxxxxx |xxxxxxxxxxxxx |xxxxxxxxxxxxx |xxxxxxxxxxxxx |           66 |           66 |           66 |xxxxxxxxxxxxx |xxxxxxxxxxxxx |xxxxxxxxxxxxx |xxxxxxxxxxxxx |           66 |           66 |           66 |xxxxxxxxxxxxx |xxxxxxxxxxxxx |xxxxxxxxxxxxx |xxxxxxxxxxxxx |           66 |           66 |           66 |xxxxxxxxxxxxx |xxxxxxxxxxxxx |xxxxxxxxxxxxx |xxxxxxxxxxxxx |           66 |           66 |           66 |xxxxxxxxxxxxx |xxxxxxxxxxxxx |xxxxxxxxxxxxx |xxxxxxxxxxxxx |           66 |           66 |           66 |xxxxxxxxxxxxx |xxxxxxxxxxxxx |xxxxxxxxxxxxx |xxxxxxxxxxxxx |           66 |           66 |           66 |xxxxxxxxxxxxx |xxxxxxxxxxxxx |xxxxxxxxxxxxx |xxxxxxxxxxxxx |           66 |           66 |           66 |xxxxxxxxxxxxx |xxxxxxxxxxxxx |xxxxxxxxxxxxx |xxxxxxxxxxxxx |           66 |           66 |           66 |xxxxxxxxxxxxx |xxxxxxxxxxxxx |xxxxxxxxxxxxx |xxxxxxxxxxxxx |           66 |           66 |           66 |xxxxxxxxxxxxx |xxxxxxxxxxxxx |xxxxxxxxxxxxx |xxxxxxxxxxxxx |           66 |           66 |           66 |
bpred_bimod.retstack_pops                       64 |           64 |           64 |xxxxxxxxxxxxx |xxxxxxxxxxxxx |xxxxxxxxxxxxx |xxxxxxxxxxxxx |           64 |           64 |           64 |xxxxxxxxxxxxx |xxxxxxxxxxxxx |xxxxxxxxxxxxx |xxxxxxxxxxxxx |           64 |           64 |           64 |xxxxxxxxxxxxx |xxxxxxxxxxxxx |xxxxxxxxxxxxx |xxxxxxxxxxxxx |           64 |           64 |           64 |xxxxxxxxxxxxx |xxxxxxxxxxxxx |xxxxxxxxxxxxx |xxxxxxxxxxxxx |           64 |           64 |           64 |xxxxxxxxxxxxx |xxxxxxxxxxxxx |xxxxxxxxxxxxx |xxxxxxxxxxxxx |           64 |           64 |           64 |xxxxxxxxxxxxx |xxxxxxxxxxxxx |xxxxxxxxxxxxx |xxxxxxxxxxxxx |           64 |           64 |           64 |xxxxxxxxxxxxx |xxxxxxxxxxxxx |xxxxxxxxxxxxx |xxxxxxxxxxxxx |           64 |           64 |           64 |xxxxxxxxxxxxx |xxxxxxxxxxxxx |xxxxxxxxxxxxx |xxxxxxxxxxxxx |           64 |           64 |           64 |xxxxxxxxxxxxx |xxxxxxxxxxxxx |xxxxxxxxxxxxx |xxxxxxxxxxxxx |           64 |           64 |           64 |xxxxxxxxxxxxx |xxxxxxxxxxxxx |xxxxxxxxxxxxx |xxxxxxxxxxxxx |           64 |           64 |           64 |
bpred_bimod.used_ras.PP                         64 |           64 |           64 |xxxxxxxxxxxxx |xxxxxxxxxxxxx |xxxxxxxxxxxxx |xxxxxxxxxxxxx |           64 |           64 |           64 |xxxxxxxxxxxxx |xxxxxxxxxxxxx |xxxxxxxxxxxxx |xxxxxxxxxxxxx |           64 |           64 |           64 |xxxxxxxxxxxxx |xxxxxxxxxxxxx |xxxxxxxxxxxxx |xxxxxxxxxxxxx |           64 |           64 |           64 |xxxxxxxxxxxxx |xxxxxxxxxxxxx |xxxxxxxxxxxxx |xxxxxxxxxxxxx |           64 |           64 |           64 |xxxxxxxxxxxxx |xxxxxxxxxxxxx |xxxxxxxxxxxxx |xxxxxxxxxxxxx |           64 |           64 |           64 |xxxxxxxxxxxxx |xxxxxxxxxxxxx |xxxxxxxxxxxxx |xxxxxxxxxxxxx |           64 |           64 |           64 |xxxxxxxxxxxxx |xxxxxxxxxxxxx |xxxxxxxxxxxxx |xxxxxxxxxxxxx |           64 |           64 |           64 |xxxxxxxxxxxxx |xxxxxxxxxxxxx |xxxxxxxxxxxxx |xxxxxxxxxxxxx |           64 |           64 |           64 |xxxxxxxxxxxxx |xxxxxxxxxxxxx |xxxxxxxxxxxxx |xxxxxxxxxxxxx |           64 |           64 |           64 |xxxxxxxxxxxxx |xxxxxxxxxxxxx |xxxxxxxxxxxxx |xxxxxxxxxxxxx |           64 |           64 |           64 |
bpred_bimod.ras_hits.PP                         64 |           64 |           64 |xxxxxxxxxxxxx |xxxxxxxxxxxxx |xxxxxxxxxxxxx |xxxxxxxxxxxxx |           64 |           64 |           64 |xxxxxxxxxxxxx |xxxxxxxxxxxxx |xxxxxxxxxxxxx |xxxxxxxxxxxxx |           64 |           64 |           64 |xxxxxxxxxxxxx |xxxxxxxxxxxxx |xxxxxxxxxxxxx |xxxxxxxxxxxxx |           64 |           64 |           64 |xxxxxxxxxxxxx |xxxxxxxxxxxxx |xxxxxxxxxxxxx |xxxxxxxxxxxxx |           64 |           64 |           64 |xxxxxxxxxxxxx |xxxxxxxxxxxxx |xxxxxxxxxxxxx |xxxxxxxxxxxxx |           64 |           64 |           64 |xxxxxxxxxxxxx |xxxxxxxxxxxxx |xxxxxxxxxxxxx |xxxxxxxxxxxxx |           64 |           64 |           64 |xxxxxxxxxxxxx |xxxxxxxxxxxxx |xxxxxxxxxxxxx |xxxxxxxxxxxxx |           64 |           64 |           64 |xxxxxxxxxxxxx |xxxxxxxxxxxxx |xxxxxxxxxxxxx |xxxxxxxxxxxxx |           64 |           64 |           64 |xxxxxxxxxxxxx |xxxxxxxxxxxxx |xxxxxxxxxxxxx |xxxxxxxxxxxxx |           64 |           64 |           64 |xxxxxxxxxxxxx |xxxxxxxxxxxxx |xxxxxxxxxxxxx |xxxxxxxxxxxxx |           64 |           64 |           64 |
bpred_bimod.ras_rate.PP                     1.0000 |       1.0000 |       1.0000 |xxxxxxxxxxxxx |xxxxxxxxxxxxx |xxxxxxxxxxxxx |xxxxxxxxxxxxx |       1.0000 |       1.0000 |       1.0000 |xxxxxxxxxxxxx |xxxxxxxxxxxxx |xxxxxxxxxxxxx |xxxxxxxxxxxxx |       1.0000 |       1.0000 |       1.0000 |xxxxxxxxxxxxx |xxxxxxxxxxxxx |xxxxxxxxxxxxx |xxxxxxxxxxxxx |       1.0000 |       1.0000 |       1.0000 |xxxxxxxxxxxxx |xxxxxxxxxxxxx |xxxxxxxxxxxxx |xxxxxxxxxxxxx |       1.0000 |       1.0000 |       1.0000 |xxxxxxxxxxxxx |xxxxxxxxxxxxx |xxxxxxxxxxxxx |xxxxxxxxxxxxx |       1.0000 |       1.0000 |       1.0000 |xxxxxxxxxxxxx |xxxxxxxxxxxxx |xxxxxxxxxxxxx |xxxxxxxxxxxxx |       1.0000 |       1.0000 |       1.0000 |xxxxxxxxxxxxx |xxxxxxxxxxxxx |xxxxxxxxxxxxx |xxxxxxxxxxxxx |       1.0000 |       1.0000 |       1.0000 |xxxxxxxxxxxxx |xxxxxxxxxxxxx |xxxxxxxxxxxxx |xxxxxxxxxxxxx |       1.0000 |       1.0000 |       1.0000 |xxxxxxxxxxxxx |xxxxxxxxxxxxx |xxxxxxxxxxxxx |xxxxxxxxxxxxx |       1.0000 |       1.0000 |       1.0000 |xxxxxxxxxxxxx |xxxxxxxxxxxxx |xxxxxxxxxxxxx |xxxxxxxxxxxxx |       1.0000 |       1.0000 |       1.0000 |
bpred_2lev.lookups                   xxxxxxxxxxxxx |xxxxxxxxxxxxx |xxxxxxxxxxxxx |        78014 |        78014 |        78014 |        78014 |xxxxxxxxxxxxx |xxxxxxxxxxxxx |xxxxxxxxxxxxx |       165507 |       165507 |       165507 |       165507 |xxxxxxxxxxxxx |xxxxxxxxxxxxx |xxxxxxxxxxxxx |       355444 |       355444 |       355444 |       355444 |xxxxxxxxxxxxx |xxxxxxxxxxxxx |xxxxxxxxxxxxx |       783352 |       783352 |       783352 |       783352 |xxxxxxxxxxxxx |xxxxxxxxxxxxx |xxxxxxxxxxxxx |      1654590 |      1654590 |      1654590 |      1654590 |xxxxxxxxxxxxx |xxxxxxxxxxxxx |xxxxxxxxxxxxx |      3474265 |      3474265 |      3474265 |      3474265 |xxxxxxxxxxxxx |xxxxxxxxxxxxx |xxxxxxxxxxxxx |      7408402 |      7408402 |      7408402 |      7408402 |xxxxxxxxxxxxx |xxxxxxxxxxxxx |xxxxxxxxxxxxx |     15807178 |     15807178 |     15807178 |     15807178 |xxxxxxxxxxxxx |xxxxxxxxxxxxx |xxxxxxxxxxxxx |     33119981 |     33119981 |     33119981 |     33119981 |xxxxxxxxxxxxx |xxxxxxxxxxxxx |xxxxxxxxxxxxx |     69393048 |     69393048 |     69393048 |     69393048 |xxxxxxxxxxxxx |xxxxxxxxxxxxx |xxxxxxxxxxxxx |    147008771 |    147008771 |    147008771 |    147008771 |
[...]
bpred_2lev.retstack_pushes           xxxxxxxxxxxxx |xxxxxxxxxxxxx |xxxxxxxxxxxxx |           66 |           66 |           66 |           66 |xxxxxxxxxxxxx |xxxxxxxxxxxxx |xxxxxxxxxxxxx |           66 |           66 |           66 |           66 |xxxxxxxxxxxxx |xxxxxxxxxxxxx |xxxxxxxxxxxxx |           66 |           66 |           66 |           66 |xxxxxxxxxxxxx |xxxxxxxxxxxxx |xxxxxxxxxxxxx |           66 |           66 |           66 |           66 |xxxxxxxxxxxxx |xxxxxxxxxxxxx |xxxxxxxxxxxxx |           66 |           66 |           66 |           66 |xxxxxxxxxxxxx |xxxxxxxxxxxxx |xxxxxxxxxxxxx |           66 |           66 |           66 |           66 |xxxxxxxxxxxxx |xxxxxxxxxxxxx |xxxxxxxxxxxxx |           66 |           66 |           66 |           66 |xxxxxxxxxxxxx |xxxxxxxxxxxxx |xxxxxxxxxxxxx |           66 |           66 |           66 |           66 |xxxxxxxxxxxxx |xxxxxxxxxxxxx |xxxxxxxxxxxxx |           66 |           66 |           66 |           66 |xxxxxxxxxxxxx |xxxxxxxxxxxxx |xxxxxxxxxxxxx |           66 |           66 |           66 |           66 |xxxxxxxxxxxxx |xxxxxxxxxxxxx |xxxxxxxxxxxxx |           66 |           66 |           66 |           66 |
bpred_2lev.retstack_pops             xxxxxxxxxxxxx |xxxxxxxxxxxxx |xxxxxxxxxxxxx |           64 |           64 |           64 |           64 |xxxxxxxxxxxxx |xxxxxxxxxxxxx |xxxxxxxxxxxxx |           64 |           64 |           64 |           64 |xxxxxxxxxxxxx |xxxxxxxxxxxxx |xxxxxxxxxxxxx |           64 |           64 |           64 |           64 |xxxxxxxxxxxxx |xxxxxxxxxxxxx |xxxxxxxxxxxxx |           64 |           64 |           64 |           64 |xxxxxxxxxxxxx |xxxxxxxxxxxxx |xxxxxxxxxxxxx |           64 |           64 |           64 |           64 |xxxxxxxxxxxxx |xxxxxxxxxxxxx |xxxxxxxxxxxxx |           64 |           64 |           64 |           64 |xxxxxxxxxxxxx |xxxxxxxxxxxxx |xxxxxxxxxxxxx |           64 |           64 |           64 |           64 |xxxxxxxxxxxxx |xxxxxxxxxxxxx |xxxxxxxxxxxxx |           64 |           64 |           64 |           64 |xxxxxxxxxxxxx |xxxxxxxxxxxxx |xxxxxxxxxxxxx |           64 |           64 |           64 |           64 |xxxxxxxxxxxxx |xxxxxxxxxxxxx |xxxxxxxxxxxxx |           64 |           64 |           64 |           64 |xxxxxxxxxxxxx |xxxxxxxxxxxxx |xxxxxxxxxxxxx |           64 |           64 |           64 |           64 |
bpred_2lev.used_ras.PP               xxxxxxxxxxxxx |xxxxxxxxxxxxx |xxxxxxxxxxxxx |           64 |           64 |           64 |           64 |xxxxxxxxxxxxx |xxxxxxxxxxxxx |xxxxxxxxxxxxx |           64 |           64 |           64 |           64 |xxxxxxxxxxxxx |xxxxxxxxxxxxx |xxxxxxxxxxxxx |           64 |           64 |           64 |           64 |xxxxxxxxxxxxx |xxxxxxxxxxxxx |xxxxxxxxxxxxx |           64 |           64 |           64 |           64 |xxxxxxxxxxxxx |xxxxxxxxxxxxx |xxxxxxxxxxxxx |           64 |           64 |           64 |           64 |xxxxxxxxxxxxx |xxxxxxxxxxxxx |xxxxxxxxxxxxx |           64 |           64 |           64 |           64 |xxxxxxxxxxxxx |xxxxxxxxxxxxx |xxxxxxxxxxxxx |           64 |           64 |           64 |           64 |xxxxxxxxxxxxx |xxxxxxxxxxxxx |xxxxxxxxxxxxx |           64 |           64 |           64 |           64 |xxxxxxxxxxxxx |xxxxxxxxxxxxx |xxxxxxxxxxxxx |           64 |           64 |           64 |           64 |xxxxxxxxxxxxx |xxxxxxxxxxxxx |xxxxxxxxxxxxx |           64 |           64 |           64 |           64 |xxxxxxxxxxxxx |xxxxxxxxxxxxx |xxxxxxxxxxxxx |           64 |           64 |           64 |           64 |
bpred_2lev.ras_hits.PP               xxxxxxxxxxxxx |xxxxxxxxxxxxx |xxxxxxxxxxxxx |           64 |           64 |           64 |           64 |xxxxxxxxxxxxx |xxxxxxxxxxxxx |xxxxxxxxxxxxx |           64 |           64 |           64 |           64 |xxxxxxxxxxxxx |xxxxxxxxxxxxx |xxxxxxxxxxxxx |           64 |           64 |           64 |           64 |xxxxxxxxxxxxx |xxxxxxxxxxxxx |xxxxxxxxxxxxx |           64 |           64 |           64 |           64 |xxxxxxxxxxxxx |xxxxxxxxxxxxx |xxxxxxxxxxxxx |           64 |           64 |           64 |           64 |xxxxxxxxxxxxx |xxxxxxxxxxxxx |xxxxxxxxxxxxx |           64 |           64 |           64 |           64 |xxxxxxxxxxxxx |xxxxxxxxxxxxx |xxxxxxxxxxxxx |           64 |           64 |           64 |           64 |xxxxxxxxxxxxx |xxxxxxxxxxxxx |xxxxxxxxxxxxx |           64 |           64 |           64 |           64 |xxxxxxxxxxxxx |xxxxxxxxxxxxx |xxxxxxxxxxxxx |           64 |           64 |           64 |           64 |xxxxxxxxxxxxx |xxxxxxxxxxxxx |xxxxxxxxxxxxx |           64 |           64 |           64 |           64 |xxxxxxxxxxxxx |xxxxxxxxxxxxx |xxxxxxxxxxxxx |           64 |           64 |           64 |           64 |
bpred_2lev.ras_rate.PP               xxxxxxxxxxxxx |xxxxxxxxxxxxx |xxxxxxxxxxxxx |       1.0000 |       1.0000 |       1.0000 |       1.0000 |xxxxxxxxxxxxx |xxxxxxxxxxxxx |xxxxxxxxxxxxx |       1.0000 |       1.0000 |       1.0000 |       1.0000 |xxxxxxxxxxxxx |xxxxxxxxxxxxx |xxxxxxxxxxxxx |       1.0000 |       1.0000 |       1.0000 |       1.0000 |xxxxxxxxxxxxx |xxxxxxxxxxxxx |xxxxxxxxxxxxx |       1.0000 |       1.0000 |       1.0000 |       1.0000 |xxxxxxxxxxxxx |xxxxxxxxxxxxx |xxxxxxxxxxxxx |       1.0000 |       1.0000 |       1.0000 |       1.0000 |xxxxxxxxxxxxx |xxxxxxxxxxxxx |xxxxxxxxxxxxx |       1.0000 |       1.0000 |       1.0000 |       1.0000 |xxxxxxxxxxxxx |xxxxxxxxxxxxx |xxxxxxxxxxxxx |       1.0000 |       1.0000 |       1.0000 |       1.0000 |xxxxxxxxxxxxx |xxxxxxxxxxxxx |xxxxxxxxxxxxx |       1.0000 |       1.0000 |       1.0000 |       1.0000 |xxxxxxxxxxxxx |xxxxxxxxxxxxx |xxxxxxxxxxxxx |       1.0000 |       1.0000 |       1.0000 |       1.0000 |xxxxxxxxxxxxx |xxxxxxxxxxxxx |xxxxxxxxxxxxx |       1.0000 |       1.0000 |       1.0000 |       1.0000 |xxxxxxxxxxxxx |xxxxxxxxxxxxx |xxxxxxxxxxxxx |       1.0000 |       1.0000 |       1.0000 |       1.0000 |

Command list: 
	sslittle-na-sstrix-gcc -Wall -O3 -funroll-loops -finline-functions  -DRANDOM_SIZE=4096 -DOFFSET=7 -DSORT=base_quicksort sorts/base_quicksort294715830.c simpleMain.c -o base_quicksort122493855
	sim-cache -cache:dl1 dl1:256:32:1:l -cache:dl2 dl2:131072:32:1:l -cache:il1 il1:256:32:1:l -cache:il2 dl2 base_quicksort122493855
	sim-cache -cache:dl1 dl1:256:32:1:l -cache:dl2 dl2:65536:32:1:l -cache:il1 il1:256:32:1:l -cache:il2 dl2 base_quicksort122493855
	sim-cache -cache:dl1 dl1:1:32:256:l -cache:dl2 dl2:1:32:131072:l -cache:il1 il1:1:32:256:l -cache:il2 dl2 base_quicksort122493855
	sim-cache -cache:dl1 dl1:1:32:256:l -cache:dl2 dl2:1:32:65536:l -cache:il1 il1:1:32:256:l -cache:il2 dl2 base_quicksort122493855
	sim-bpred -bpred bimod -bpred:bimod 512 base_quicksort122493855
	sim-bpred -bpred bimod -bpred:bimod 1024 base_quicksort122493855
	sim-bpred -bpred bimod -bpred:bimod 2048 base_quicksort122493855
	sim-bpred -bpred 2lev -bpred:2lev 1 512 10 1 base_quicksort122493855
	sim-bpred -bpred 2lev -bpred:2lev 1 1024 10 1 base_quicksort122493855
	sim-bpred -bpred 2lev -bpred:2lev 1 2048 10 1 base_quicksort122493855
	sim-bpred -bpred 2lev -bpred:2lev 1 4096 10 1 base_quicksort122493855
	sslittle-na-sstrix-gcc -Wall -O3 -funroll-loops -finline-functions  -DRANDOM_SIZE=8192 -DOFFSET=7 -DSORT=base_quicksort sorts/base_quicksort294715830.c simpleMain.c -o base_quicksort122493855
	sim-cache -cache:dl1 dl1:256:32:1:l -cache:dl2 dl2:131072:32:1:l -cache:il1 il1:256:32:1:l -cache:il2 dl2 base_quicksort122493855
	sim-cache -cache:dl1 dl1:256:32:1:l -cache:dl2 dl2:65536:32:1:l -cache:il1 il1:256:32:1:l -cache:il2 dl2 base_quicksort122493855
	sim-cache -cache:dl1 dl1:1:32:256:l -cache:dl2 dl2:1:32:131072:l -cache:il1 il1:1:32:256:l -cache:il2 dl2 base_quicksort122493855
	sim-cache -cache:dl1 dl1:1:32:256:l -cache:dl2 dl2:1:32:65536:l -cache:il1 il1:1:32:256:l -cache:il2 dl2 base_quicksort122493855
	sim-bpred -bpred bimod -bpred:bimod 512 base_quicksort122493855
	sim-bpred -bpred bimod -bpred:bimod 1024 base_quicksort122493855
	sim-bpred -bpred bimod -bpred:bimod 2048 base_quicksort122493855
	sim-bpred -bpred 2lev -bpred:2lev 1 512 10 1 base_quicksort122493855
	sim-bpred -bpred 2lev -bpred:2lev 1 1024 10 1 base_quicksort122493855
	sim-bpred -bpred 2lev -bpred:2lev 1 2048 10 1 base_quicksort122493855
	sim-bpred -bpred 2lev -bpred:2lev 1 4096 10 1 base_quicksort122493855
	sslittle-na-sstrix-gcc -Wall -O3 -funroll-loops -finline-functions  -DRANDOM_SIZE=16384 -DOFFSET=7 -DSORT=base_quicksort sorts/base_quicksort294715830.c simpleMain.c -o base_quicksort122493855
	sim-cache -cache:dl1 dl1:256:32:1:l -cache:dl2 dl2:131072:32:1:l -cache:il1 il1:256:32:1:l -cache:il2 dl2 base_quicksort122493855
	sim-cache -cache:dl1 dl1:256:32:1:l -cache:dl2 dl2:65536:32:1:l -cache:il1 il1:256:32:1:l -cache:il2 dl2 base_quicksort122493855
	sim-cache -cache:dl1 dl1:1:32:256:l -cache:dl2 dl2:1:32:131072:l -cache:il1 il1:1:32:256:l -cache:il2 dl2 base_quicksort122493855
	sim-cache -cache:dl1 dl1:1:32:256:l -cache:dl2 dl2:1:32:65536:l -cache:il1 il1:1:32:256:l -cache:il2 dl2 base_quicksort122493855
	sim-bpred -bpred bimod -bpred:bimod 512 base_quicksort122493855
	sim-bpred -bpred bimod -bpred:bimod 1024 base_quicksort122493855
	sim-bpred -bpred bimod -bpred:bimod 2048 base_quicksort122493855
	sim-bpred -bpred 2lev -bpred:2lev 1 512 10 1 base_quicksort122493855
	sim-bpred -bpred 2lev -bpred:2lev 1 1024 10 1 base_quicksort122493855
	sim-bpred -bpred 2lev -bpred:2lev 1 2048 10 1 base_quicksort122493855
	sim-bpred -bpred 2lev -bpred:2lev 1 4096 10 1 base_quicksort122493855
	sslittle-na-sstrix-gcc -Wall -O3 -funroll-loops -finline-functions  -DRANDOM_SIZE=32768 -DOFFSET=7 -DSORT=base_quicksort sorts/base_quicksort294715830.c simpleMain.c -o base_quicksort122493855
	sim-cache -cache:dl1 dl1:256:32:1:l -cache:dl2 dl2:131072:32:1:l -cache:il1 il1:256:32:1:l -cache:il2 dl2 base_quicksort122493855
	sim-cache -cache:dl1 dl1:256:32:1:l -cache:dl2 dl2:65536:32:1:l -cache:il1 il1:256:32:1:l -cache:il2 dl2 base_quicksort122493855
	sim-cache -cache:dl1 dl1:1:32:256:l -cache:dl2 dl2:1:32:131072:l -cache:il1 il1:1:32:256:l -cache:il2 dl2 base_quicksort122493855
	sim-cache -cache:dl1 dl1:1:32:256:l -cache:dl2 dl2:1:32:65536:l -cache:il1 il1:1:32:256:l -cache:il2 dl2 base_quicksort122493855
	sim-bpred -bpred bimod -bpred:bimod 512 base_quicksort122493855
	sim-bpred -bpred bimod -bpred:bimod 1024 base_quicksort122493855
	sim-bpred -bpred bimod -bpred:bimod 2048 base_quicksort122493855
	sim-bpred -bpred 2lev -bpred:2lev 1 512 10 1 base_quicksort122493855
	sim-bpred -bpred 2lev -bpred:2lev 1 1024 10 1 base_quicksort122493855
	sim-bpred -bpred 2lev -bpred:2lev 1 2048 10 1 base_quicksort122493855
	sim-bpred -bpred 2lev -bpred:2lev 1 4096 10 1 base_quicksort122493855
	sslittle-na-sstrix-gcc -Wall -O3 -funroll-loops -finline-functions  -DRANDOM_SIZE=65536 -DOFFSET=7 -DSORT=base_quicksort sorts/base_quicksort294715830.c simpleMain.c -o base_quicksort122493855
	sim-cache -cache:dl1 dl1:256:32:1:l -cache:dl2 dl2:131072:32:1:l -cache:il1 il1:256:32:1:l -cache:il2 dl2 base_quicksort122493855
	sim-cache -cache:dl1 dl1:256:32:1:l -cache:dl2 dl2:65536:32:1:l -cache:il1 il1:256:32:1:l -cache:il2 dl2 base_quicksort122493855
	sim-cache -cache:dl1 dl1:1:32:256:l -cache:dl2 dl2:1:32:131072:l -cache:il1 il1:1:32:256:l -cache:il2 dl2 base_quicksort122493855
	sim-cache -cache:dl1 dl1:1:32:256:l -cache:dl2 dl2:1:32:65536:l -cache:il1 il1:1:32:256:l -cache:il2 dl2 base_quicksort122493855
	sim-bpred -bpred bimod -bpred:bimod 512 base_quicksort122493855
	sim-bpred -bpred bimod -bpred:bimod 1024 base_quicksort122493855
	sim-bpred -bpred bimod -bpred:bimod 2048 base_quicksort122493855
	sim-bpred -bpred 2lev -bpred:2lev 1 512 10 1 base_quicksort122493855
	sim-bpred -bpred 2lev -bpred:2lev 1 1024 10 1 base_quicksort122493855
	sim-bpred -bpred 2lev -bpred:2lev 1 2048 10 1 base_quicksort122493855
	sim-bpred -bpred 2lev -bpred:2lev 1 4096 10 1 base_quicksort122493855
	sslittle-na-sstrix-gcc -Wall -O3 -funroll-loops -finline-functions  -DRANDOM_SIZE=131072 -DOFFSET=7 -DSORT=base_quicksort sorts/base_quicksort294715830.c simpleMain.c -o base_quicksort122493855
	sim-cache -cache:dl1 dl1:256:32:1:l -cache:dl2 dl2:131072:32:1:l -cache:il1 il1:256:32:1:l -cache:il2 dl2 base_quicksort122493855
	sim-cache -cache:dl1 dl1:256:32:1:l -cache:dl2 dl2:65536:32:1:l -cache:il1 il1:256:32:1:l -cache:il2 dl2 base_quicksort122493855
	sim-cache -cache:dl1 dl1:1:32:256:l -cache:dl2 dl2:1:32:131072:l -cache:il1 il1:1:32:256:l -cache:il2 dl2 base_quicksort122493855
	sim-cache -cache:dl1 dl1:1:32:256:l -cache:dl2 dl2:1:32:65536:l -cache:il1 il1:1:32:256:l -cache:il2 dl2 base_quicksort122493855
	sim-bpred -bpred bimod -bpred:bimod 512 base_quicksort122493855
	sim-bpred -bpred bimod -bpred:bimod 1024 base_quicksort122493855
	sim-bpred -bpred bimod -bpred:bimod 2048 base_quicksort122493855
	sim-bpred -bpred 2lev -bpred:2lev 1 512 10 1 base_quicksort122493855
	sim-bpred -bpred 2lev -bpred:2lev 1 1024 10 1 base_quicksort122493855
	sim-bpred -bpred 2lev -bpred:2lev 1 2048 10 1 base_quicksort122493855
	sim-bpred -bpred 2lev -bpred:2lev 1 4096 10 1 base_quicksort122493855
	sslittle-na-sstrix-gcc -Wall -O3 -funroll-loops -finline-functions  -DRANDOM_SIZE=262144 -DOFFSET=7 -DSORT=base_quicksort sorts/base_quicksort294715830.c simpleMain.c -o base_quicksort122493855
	sim-cache -cache:dl1 dl1:256:32:1:l -cache:dl2 dl2:131072:32:1:l -cache:il1 il1:256:32:1:l -cache:il2 dl2 base_quicksort122493855
	sim-cache -cache:dl1 dl1:256:32:1:l -cache:dl2 dl2:65536:32:1:l -cache:il1 il1:256:32:1:l -cache:il2 dl2 base_quicksort122493855
	sim-cache -cache:dl1 dl1:1:32:256:l -cache:dl2 dl2:1:32:131072:l -cache:il1 il1:1:32:256:l -cache:il2 dl2 base_quicksort122493855
	sim-cache -cache:dl1 dl1:1:32:256:l -cache:dl2 dl2:1:32:65536:l -cache:il1 il1:1:32:256:l -cache:il2 dl2 base_quicksort122493855
	sim-bpred -bpred bimod -bpred:bimod 512 base_quicksort122493855
	sim-bpred -bpred bimod -bpred:bimod 1024 base_quicksort122493855
	sim-bpred -bpred bimod -bpred:bimod 2048 base_quicksort122493855
	sim-bpred -bpred 2lev -bpred:2lev 1 512 10 1 base_quicksort122493855
	sim-bpred -bpred 2lev -bpred:2lev 1 1024 10 1 base_quicksort122493855
	sim-bpred -bpred 2lev -bpred:2lev 1 2048 10 1 base_quicksort122493855
	sim-bpred -bpred 2lev -bpred:2lev 1 4096 10 1 base_quicksort122493855
	sslittle-na-sstrix-gcc -Wall -O3 -funroll-loops -finline-functions  -DRANDOM_SIZE=524288 -DOFFSET=7 -DSORT=base_quicksort sorts/base_quicksort294715830.c simpleMain.c -o base_quicksort122493855
	sim-cache -cache:dl1 dl1:256:32:1:l -cache:dl2 dl2:131072:32:1:l -cache:il1 il1:256:32:1:l -cache:il2 dl2 base_quicksort122493855
	sim-cache -cache:dl1 dl1:256:32:1:l -cache:dl2 dl2:65536:32:1:l -cache:il1 il1:256:32:1:l -cache:il2 dl2 base_quicksort122493855
	sim-cache -cache:dl1 dl1:1:32:256:l -cache:dl2 dl2:1:32:131072:l -cache:il1 il1:1:32:256:l -cache:il2 dl2 base_quicksort122493855
	sim-cache -cache:dl1 dl1:1:32:256:l -cache:dl2 dl2:1:32:65536:l -cache:il1 il1:1:32:256:l -cache:il2 dl2 base_quicksort122493855
	sim-bpred -bpred bimod -bpred:bimod 512 base_quicksort122493855
	sim-bpred -bpred bimod -bpred:bimod 1024 base_quicksort122493855
	sim-bpred -bpred bimod -bpred:bimod 2048 base_quicksort122493855
	sim-bpred -bpred 2lev -bpred:2lev 1 512 10 1 base_quicksort122493855
	sim-bpred -bpred 2lev -bpred:2lev 1 1024 10 1 base_quicksort122493855
	sim-bpred -bpred 2lev -bpred:2lev 1 2048 10 1 base_quicksort122493855
	sim-bpred -bpred 2lev -bpred:2lev 1 4096 10 1 base_quicksort122493855
	sslittle-na-sstrix-gcc -Wall -O3 -funroll-loops -finline-functions  -DRANDOM_SIZE=1048576 -DOFFSET=7 -DSORT=base_quicksort sorts/base_quicksort294715830.c simpleMain.c -o base_quicksort122493855
	sim-cache -cache:dl1 dl1:256:32:1:l -cache:dl2 dl2:131072:32:1:l -cache:il1 il1:256:32:1:l -cache:il2 dl2 base_quicksort122493855
	sim-cache -cache:dl1 dl1:256:32:1:l -cache:dl2 dl2:65536:32:1:l -cache:il1 il1:256:32:1:l -cache:il2 dl2 base_quicksort122493855
	sim-cache -cache:dl1 dl1:1:32:256:l -cache:dl2 dl2:1:32:131072:l -cache:il1 il1:1:32:256:l -cache:il2 dl2 base_quicksort122493855
	sim-cache -cache:dl1 dl1:1:32:256:l -cache:dl2 dl2:1:32:65536:l -cache:il1 il1:1:32:256:l -cache:il2 dl2 base_quicksort122493855
	sim-bpred -bpred bimod -bpred:bimod 512 base_quicksort122493855
	sim-bpred -bpred bimod -bpred:bimod 1024 base_quicksort122493855
	sim-bpred -bpred bimod -bpred:bimod 2048 base_quicksort122493855
	sim-bpred -bpred 2lev -bpred:2lev 1 512 10 1 base_quicksort122493855
	sim-bpred -bpred 2lev -bpred:2lev 1 1024 10 1 base_quicksort122493855
	sim-bpred -bpred 2lev -bpred:2lev 1 2048 10 1 base_quicksort122493855
	sim-bpred -bpred 2lev -bpred:2lev 1 4096 10 1 base_quicksort122493855
	sslittle-na-sstrix-gcc -Wall -O3 -funroll-loops -finline-functions  -DRANDOM_SIZE=2097152 -DOFFSET=7 -DSORT=base_quicksort sorts/base_quicksort294715830.c simpleMain.c -o base_quicksort122493855
	sim-cache -cache:dl1 dl1:256:32:1:l -cache:dl2 dl2:131072:32:1:l -cache:il1 il1:256:32:1:l -cache:il2 dl2 base_quicksort122493855
	sim-cache -cache:dl1 dl1:256:32:1:l -cache:dl2 dl2:65536:32:1:l -cache:il1 il1:256:32:1:l -cache:il2 dl2 base_quicksort122493855
	sim-cache -cache:dl1 dl1:1:32:256:l -cache:dl2 dl2:1:32:131072:l -cache:il1 il1:1:32:256:l -cache:il2 dl2 base_quicksort122493855
	sim-cache -cache:dl1 dl1:1:32:256:l -cache:dl2 dl2:1:32:65536:l -cache:il1 il1:1:32:256:l -cache:il2 dl2 base_quicksort122493855
	sim-bpred -bpred bimod -bpred:bimod 512 base_quicksort122493855
	sim-bpred -bpred bimod -bpred:bimod 1024 base_quicksort122493855
	sim-bpred -bpred bimod -bpred:bimod 2048 base_quicksort122493855
	sim-bpred -bpred 2lev -bpred:2lev 1 512 10 1 base_quicksort122493855
	sim-bpred -bpred 2lev -bpred:2lev 1 1024 10 1 base_quicksort122493855
	sim-bpred -bpred 2lev -bpred:2lev 1 2048 10 1 base_quicksort122493855
	sim-bpred -bpred 2lev -bpred:2lev 1 4096 10 1 base_quicksort122493855
	sslittle-na-sstrix-gcc -Wall -O3 -funroll-loops -finline-functions  -DRANDOM_SIZE=4194304 -DOFFSET=7 -DSORT=base_quicksort sorts/base_quicksort294715830.c simpleMain.c -o base_quicksort122493855
	sim-cache -cache:dl1 dl1:256:32:1:l -cache:dl2 dl2:131072:32:1:l -cache:il1 il1:256:32:1:l -cache:il2 dl2 base_quicksort122493855
	sim-cache -cache:dl1 dl1:256:32:1:l -cache:dl2 dl2:65536:32:1:l -cache:il1 il1:256:32:1:l -cache:il2 dl2 base_quicksort122493855
	sim-cache -cache:dl1 dl1:1:32:256:l -cache:dl2 dl2:1:32:131072:l -cache:il1 il1:1:32:256:l -cache:il2 dl2 base_quicksort122493855
	sim-cache -cache:dl1 dl1:1:32:256:l -cache:dl2 dl2:1:32:65536:l -cache:il1 il1:1:32:256:l -cache:il2 dl2 base_quicksort122493855
	sim-bpred -bpred bimod -bpred:bimod 512 base_quicksort122493855
	sim-bpred -bpred bimod -bpred:bimod 1024 base_quicksort122493855
	sim-bpred -bpred bimod -bpred:bimod 2048 base_quicksort122493855
	sim-bpred -bpred 2lev -bpred:2lev 1 512 10 1 base_quicksort122493855
	sim-bpred -bpred 2lev -bpred:2lev 1 1024 10 1 base_quicksort122493855
	sim-bpred -bpred 2lev -bpred:2lev 1 2048 10 1 base_quicksort122493855
	sim-bpred -bpred 2lev -bpred:2lev 1 4096 10 1 base_quicksort122493855
