Sat Jul  2 08:20:35 2005
Run as: "./do_simple -c random.org3 -o 3 base_quicksort1"
-------------------------------------------------------------------------------------------------
sim-cache                                     4096 |         4096 |         4096 |         4096 |         8192 |         8192 |         8192 |         8192 |        16384 |        16384 |        16384 |        16384 |        32768 |        32768 |        32768 |        32768 |        65536 |        65536 |        65536 |        65536 |       131072 |       131072 |       131072 |       131072 |       262144 |       262144 |       262144 |       262144 |       524288 |       524288 |       524288 |       524288 |      1048576 |      1048576 |      1048576 |      1048576 |      2097152 |      2097152 |      2097152 |      2097152 |      4194304 |      4194304 |      4194304 |      4194304 |
-cache:dl1 dl1:256:32:1:l -cache:dl2 dl2:131072:32:1:l -cache:il1 il1:256:32:1:l -cache:il2 dl2
-cache:dl1 dl1:256:32:1:l -cache:dl2 dl2:65536:32:1:l -cache:il1 il1:256:32:1:l -cache:il2 dl2
-cache:dl1 dl1:1:32:256:l -cache:dl2 dl2:1:32:131072:l -cache:il1 il1:1:32:256:l -cache:il2 dl2
-cache:dl1 dl1:1:32:256:l -cache:dl2 dl2:1:32:65536:l -cache:il1 il1:1:32:256:l -cache:il2 dl2
-------------------------------------------------------------------------------------------------
sim_num_insn                                522134 |       522134 |       522134 |       522134 |      1085631 |      1085631 |      1085631 |      1085631 |      2348072 |      2348072 |      2348072 |      2348072 |      4898077 |      4898077 |      4898077 |      4898077 |     10834520 |     10834520 |     10834520 |     10834520 |     22542326 |     22542326 |     22542326 |     22542326 |     50359453 |     50359453 |     50359453 |     50359453 |     99202658 |     99202658 |     99202658 |     99202658 |    215522422 |    215522422 |    215522422 |    215522422 |    438626763 |    438626763 |    438626763 |    438626763 |    935503375 |    935503375 |    935503375 |    935503375 |
sim_num_refs                                130923 |       130923 |       130923 |       130923 |       272908 |       272908 |       272908 |       272908 |       578026 |       578026 |       578026 |       578026 |      1215691 |      1215691 |      1215691 |      1215691 |      2615727 |      2615727 |      2615727 |      2615727 |      5481150 |      5481150 |      5481150 |      5481150 |     11932490 |     11932490 |     11932490 |     11932490 |     24111122 |     24111122 |     24111122 |     24111122 |     51462326 |     51462326 |     51462326 |     51462326 |    105738882 |    105738882 |    105738882 |    105738882 |    223689500 |    223689500 |    223689500 |    223689500 |
sim_elapsed_time                                 1 |            1 |            7 |            3 |            1 |            1 |            9 |            5 |            1 |            1 |           15 |            8 |            1 |            1 |           26 |           13 |            3 |            2 |           47 |           25 |            6 |            6 |           88 |           45 |           13 |           14 |          163 |           78 |           26 |           26 |          281 |          111 |           56 |           57 |          394 |          143 |          115 |          114 |          457 |          206 |          244 |          243 |          596 |          347 |
sim_inst_rate                          522134.0000 |  522134.0000 |   74590.5714 |  174044.6667 | 1085631.0000 | 1085631.0000 |  120625.6667 |  217126.2000 | 2348072.0000 | 2348072.0000 |  156538.1333 |  293509.0000 | 4898077.0000 | 4898077.0000 |  188387.5769 |  376775.1538 | 3611506.6667 | 5417260.0000 |  230521.7021 |  433380.8000 | 3757054.3333 | 3757054.3333 |  256162.7955 |  500940.5778 | 3873804.0769 | 3597103.7857 |  308953.6994 |  645634.0128 | 3815486.8462 | 3815486.8462 |  353034.3701 |  893717.6396 | 3848614.6786 | 3781095.1228 |  547011.2234 | 1507149.8042 | 3814145.7652 | 3847603.1842 |  959795.9803 | 2129256.1311 | 3834030.2254 | 3849808.1276 | 1569636.5352 | 2695975.1441 |
il1.accesses                                522134 |       522134 |       522134 |       522134 |      1085631 |      1085631 |      1085631 |      1085631 |      2348072 |      2348072 |      2348072 |      2348072 |      4898077 |      4898077 |      4898077 |      4898077 |     10834520 |     10834520 |     10834520 |     10834520 |     22542326 |     22542326 |     22542326 |     22542326 |     50359453 |     50359453 |     50359453 |     50359453 |     99202658 |     99202658 |     99202658 |     99202658 |    215522422 |    215522422 |    215522422 |    215522422 |    438626763 |    438626763 |    438626763 |    438626763 |    935503375 |    935503375 |    935503375 |    935503375 |
il1.hits                                    521695 |       521695 |       521736 |       521736 |      1085193 |      1085193 |      1085231 |      1085231 |      2347624 |      2347624 |      2347668 |      2347668 |      4897638 |      4897638 |      4897676 |      4897676 |     10834081 |     10834081 |     10834119 |     10834119 |     22541888 |     22541888 |     22541926 |     22541926 |     50359015 |     50359015 |     50359053 |     50359053 |     99202220 |     99202220 |     99202258 |     99202258 |    215521984 |    215521984 |    215522022 |    215522022 |    438626325 |    438626325 |    438626363 |    438626363 |    935502937 |    935502937 |    935502975 |    935502975 |
il1.misses                                     439 |          439 |          398 |          398 |          438 |          438 |          400 |          400 |          448 |          448 |          404 |          404 |          439 |          439 |          401 |          401 |          439 |          439 |          401 |          401 |          438 |          438 |          400 |          400 |          438 |          438 |          400 |          400 |          438 |          438 |          400 |          400 |          438 |          438 |          400 |          400 |          438 |          438 |          400 |          400 |          438 |          438 |          400 |          400 |
il1.replacements                               200 |          200 |          142 |          142 |          199 |          199 |          144 |          144 |          210 |          210 |          148 |          148 |          201 |          201 |          145 |          145 |          201 |          201 |          145 |          145 |          201 |          201 |          144 |          144 |          201 |          201 |          144 |          144 |          201 |          201 |          144 |          144 |          201 |          201 |          144 |          144 |          201 |          201 |          144 |          144 |          201 |          201 |          144 |          144 |
il1.writebacks                                   0 |            0 |            0 |            0 |            0 |            0 |            0 |            0 |            0 |            0 |            0 |            0 |            0 |            0 |            0 |            0 |            0 |            0 |            0 |            0 |            0 |            0 |            0 |            0 |            0 |            0 |            0 |            0 |            0 |            0 |            0 |            0 |            0 |            0 |            0 |            0 |            0 |            0 |            0 |            0 |            0 |            0 |            0 |            0 |
il1.invalidations                                0 |            0 |            0 |            0 |            0 |            0 |            0 |            0 |            0 |            0 |            0 |            0 |            0 |            0 |            0 |            0 |            0 |            0 |            0 |            0 |            0 |            0 |            0 |            0 |            0 |            0 |            0 |            0 |            0 |            0 |            0 |            0 |            0 |            0 |            0 |            0 |            0 |            0 |            0 |            0 |            0 |            0 |            0 |            0 |
il1.miss_rate                               0.0008 |       0.0008 |       0.0008 |       0.0008 |       0.0004 |       0.0004 |       0.0004 |       0.0004 |       0.0002 |       0.0002 |       0.0002 |       0.0002 |       0.0001 |       0.0001 |       0.0001 |       0.0001 |       0.0000 |       0.0000 |       0.0000 |       0.0000 |       0.0000 |       0.0000 |       0.0000 |       0.0000 |       0.0000 |       0.0000 |       0.0000 |       0.0000 |       0.0000 |       0.0000 |       0.0000 |       0.0000 |       0.0000 |       0.0000 |       0.0000 |       0.0000 |       0.0000 |       0.0000 |       0.0000 |       0.0000 |       0.0000 |       0.0000 |       0.0000 |       0.0000 |
il1.repl_rate                               0.0004 |       0.0004 |       0.0003 |       0.0003 |       0.0002 |       0.0002 |       0.0001 |       0.0001 |       0.0001 |       0.0001 |       0.0001 |       0.0001 |       0.0000 |       0.0000 |       0.0000 |       0.0000 |       0.0000 |       0.0000 |       0.0000 |       0.0000 |       0.0000 |       0.0000 |       0.0000 |       0.0000 |       0.0000 |       0.0000 |       0.0000 |       0.0000 |       0.0000 |       0.0000 |       0.0000 |       0.0000 |       0.0000 |       0.0000 |       0.0000 |       0.0000 |       0.0000 |       0.0000 |       0.0000 |       0.0000 |       0.0000 |       0.0000 |       0.0000 |       0.0000 |
il1.wb_rate                                 0.0000 |       0.0000 |       0.0000 |       0.0000 |       0.0000 |       0.0000 |       0.0000 |       0.0000 |       0.0000 |       0.0000 |       0.0000 |       0.0000 |       0.0000 |       0.0000 |       0.0000 |       0.0000 |       0.0000 |       0.0000 |       0.0000 |       0.0000 |       0.0000 |       0.0000 |       0.0000 |       0.0000 |       0.0000 |       0.0000 |       0.0000 |       0.0000 |       0.0000 |       0.0000 |       0.0000 |       0.0000 |       0.0000 |       0.0000 |       0.0000 |       0.0000 |       0.0000 |       0.0000 |       0.0000 |       0.0000 |       0.0000 |       0.0000 |       0.0000 |       0.0000 |
il1.inv_rate                                0.0000 |       0.0000 |       0.0000 |       0.0000 |       0.0000 |       0.0000 |       0.0000 |       0.0000 |       0.0000 |       0.0000 |       0.0000 |       0.0000 |       0.0000 |       0.0000 |       0.0000 |       0.0000 |       0.0000 |       0.0000 |       0.0000 |       0.0000 |       0.0000 |       0.0000 |       0.0000 |       0.0000 |       0.0000 |       0.0000 |       0.0000 |       0.0000 |       0.0000 |       0.0000 |       0.0000 |       0.0000 |       0.0000 |       0.0000 |       0.0000 |       0.0000 |       0.0000 |       0.0000 |       0.0000 |       0.0000 |       0.0000 |       0.0000 |       0.0000 |       0.0000 |
dl1.accesses                                147389 |       147389 |       147389 |       147389 |       305758 |       305758 |       305758 |       305758 |       643644 |       643644 |       643644 |       643644 |      1346845 |      1346845 |      1346845 |      1346845 |      2877953 |      2877953 |      2877953 |      2877953 |      6005520 |      6005520 |      6005520 |      6005520 |     12981148 |     12981148 |     12981148 |     12981148 |     26208356 |     26208356 |     26208356 |     26208356 |     55656712 |     55656712 |     55656712 |     55656712 |    114127572 |    114127572 |    114127572 |    114127572 |    240466798 |    240466798 |    240466798 |    240466798 |
dl1.hits                                    144445 |       144445 |       144371 |       144371 |       299460 |       299460 |       299230 |       299230 |       629553 |       629553 |       629625 |       629625 |      1312590 |      1312590 |      1312424 |      1312424 |      2791694 |      2791694 |      2791014 |      2791014 |      5822348 |      5822348 |      5823181 |      5823181 |     12514964 |     12514964 |     12516514 |     12516514 |     25318714 |     25318714 |     25325409 |     25325409 |     53569690 |     53569690 |     53585261 |     53585261 |    109903518 |    109903518 |    109937614 |    109937614 |    230955436 |    230955436 |    231035316 |    231035316 |
dl1.misses                                    2944 |         2944 |         3018 |         3018 |         6298 |         6298 |         6528 |         6528 |        14091 |        14091 |        14019 |        14019 |        34255 |        34255 |        34421 |        34421 |        86259 |        86259 |        86939 |        86939 |       183172 |       183172 |       182339 |       182339 |       466184 |       466184 |       464634 |       464634 |       889642 |       889642 |       882947 |       882947 |      2087022 |      2087022 |      2071451 |      2071451 |      4224054 |      4224054 |      4189958 |      4189958 |      9511362 |      9511362 |      9431482 |      9431482 |
dl1.replacements                              2688 |         2688 |         2762 |         2762 |         6042 |         6042 |         6272 |         6272 |        13835 |        13835 |        13763 |        13763 |        33999 |        33999 |        34165 |        34165 |        86003 |        86003 |        86683 |        86683 |       182916 |       182916 |       182083 |       182083 |       465928 |       465928 |       464378 |       464378 |       889386 |       889386 |       882691 |       882691 |      2086766 |      2086766 |      2071195 |      2071195 |      4223798 |      4223798 |      4189702 |      4189702 |      9511106 |      9511106 |      9431226 |      9431226 |
dl1.writebacks                                2340 |         2340 |         2408 |         2408 |         5533 |         5533 |         5746 |         5746 |        12925 |        12925 |        12948 |        12948 |        30844 |        30844 |        31194 |        31194 |        72664 |        72664 |        73305 |        73305 |       161758 |       161758 |       162098 |       162098 |       365111 |       365111 |       366002 |       366002 |       781682 |       781682 |       781588 |       781588 |      1742006 |      1742006 |      1740995 |      1740995 |      3708378 |      3708378 |      3706650 |      3706650 |      7980559 |      7980559 |      7972918 |      7972918 |
dl1.invalidations                                0 |            0 |            0 |            0 |            0 |            0 |            0 |            0 |            0 |            0 |            0 |            0 |            0 |            0 |            0 |            0 |            0 |            0 |            0 |            0 |            0 |            0 |            0 |            0 |            0 |            0 |            0 |            0 |            0 |            0 |            0 |            0 |            0 |            0 |            0 |            0 |            0 |            0 |            0 |            0 |            0 |            0 |            0 |            0 |
dl1.miss_rate                               0.0200 |       0.0200 |       0.0205 |       0.0205 |       0.0206 |       0.0206 |       0.0214 |       0.0214 |       0.0219 |       0.0219 |       0.0218 |       0.0218 |       0.0254 |       0.0254 |       0.0256 |       0.0256 |       0.0300 |       0.0300 |       0.0302 |       0.0302 |       0.0305 |       0.0305 |       0.0304 |       0.0304 |       0.0359 |       0.0359 |       0.0358 |       0.0358 |       0.0339 |       0.0339 |       0.0337 |       0.0337 |       0.0375 |       0.0375 |       0.0372 |       0.0372 |       0.0370 |       0.0370 |       0.0367 |       0.0367 |       0.0396 |       0.0396 |       0.0392 |       0.0392 |
dl1.repl_rate                               0.0182 |       0.0182 |       0.0187 |       0.0187 |       0.0198 |       0.0198 |       0.0205 |       0.0205 |       0.0215 |       0.0215 |       0.0214 |       0.0214 |       0.0252 |       0.0252 |       0.0254 |       0.0254 |       0.0299 |       0.0299 |       0.0301 |       0.0301 |       0.0305 |       0.0305 |       0.0303 |       0.0303 |       0.0359 |       0.0359 |       0.0358 |       0.0358 |       0.0339 |       0.0339 |       0.0337 |       0.0337 |       0.0375 |       0.0375 |       0.0372 |       0.0372 |       0.0370 |       0.0370 |       0.0367 |       0.0367 |       0.0396 |       0.0396 |       0.0392 |       0.0392 |
dl1.wb_rate                                 0.0159 |       0.0159 |       0.0163 |       0.0163 |       0.0181 |       0.0181 |       0.0188 |       0.0188 |       0.0201 |       0.0201 |       0.0201 |       0.0201 |       0.0229 |       0.0229 |       0.0232 |       0.0232 |       0.0252 |       0.0252 |       0.0255 |       0.0255 |       0.0269 |       0.0269 |       0.0270 |       0.0270 |       0.0281 |       0.0281 |       0.0282 |       0.0282 |       0.0298 |       0.0298 |       0.0298 |       0.0298 |       0.0313 |       0.0313 |       0.0313 |       0.0313 |       0.0325 |       0.0325 |       0.0325 |       0.0325 |       0.0332 |       0.0332 |       0.0332 |       0.0332 |
dl1.inv_rate                                0.0000 |       0.0000 |       0.0000 |       0.0000 |       0.0000 |       0.0000 |       0.0000 |       0.0000 |       0.0000 |       0.0000 |       0.0000 |       0.0000 |       0.0000 |       0.0000 |       0.0000 |       0.0000 |       0.0000 |       0.0000 |       0.0000 |       0.0000 |       0.0000 |       0.0000 |       0.0000 |       0.0000 |       0.0000 |       0.0000 |       0.0000 |       0.0000 |       0.0000 |       0.0000 |       0.0000 |       0.0000 |       0.0000 |       0.0000 |       0.0000 |       0.0000 |       0.0000 |       0.0000 |       0.0000 |       0.0000 |       0.0000 |       0.0000 |       0.0000 |       0.0000 |
dl2.accesses                                  5723 |         5723 |         5824 |         5824 |        12269 |        12269 |        12674 |        12674 |        27464 |        27464 |        27371 |        27371 |        65538 |        65538 |        66016 |        66016 |       159362 |       159362 |       160645 |       160645 |       345368 |       345368 |       344837 |       344837 |       831733 |       831733 |       831036 |       831036 |      1671762 |      1671762 |      1664935 |      1664935 |      3829466 |      3829466 |      3812846 |      3812846 |      7932870 |      7932870 |      7897008 |      7897008 |     17492359 |     17492359 |     17404800 |     17404800 |
dl2.hits                                      4368 |         4368 |         4482 |         4482 |        10401 |        10401 |        10818 |        10818 |        24575 |        24575 |        24497 |        24497 |        60604 |        60604 |        61095 |        61095 |       150332 |       150332 |       151628 |       151628 |       328146 |       328146 |       327628 |       327628 |       798127 |       798127 |       797443 |       797443 |      1605388 |      1604596 |      1598574 |      1528077 |      3696782 |      3370055 |      3608892 |      3321956 |      7026082 |      6654715 |      6910711 |      6558864 |     14771890 |     14088192 |     14582660 |     13825933 |
dl2.misses                                    1355 |         1355 |         1342 |         1342 |         1868 |         1868 |         1856 |         1856 |         2889 |         2889 |         2874 |         2874 |         4934 |         4934 |         4921 |         4921 |         9030 |         9030 |         9017 |         9017 |        17222 |        17222 |        17209 |        17209 |        33606 |        33606 |        33593 |        33593 |        66374 |        67166 |        66361 |       136858 |       132684 |       459411 |       203954 |       490890 |       906788 |      1278155 |       986297 |      1338144 |      2720469 |      3404167 |      2822140 |      3578867 |
dl2.replacements                               146 |          146 |            0 |            0 |          145 |          145 |            0 |            0 |          148 |          148 |            0 |            0 |          147 |          147 |            0 |            0 |          147 |          147 |            0 |            0 |          147 |          147 |            0 |            0 |          147 |          147 |            0 |            0 |          147 |         1630 |            0 |        71322 |         1612 |       393875 |        72882 |       425354 |       775716 |      1212619 |       855225 |      1272608 |      2589397 |      3338631 |      2691068 |      3513331 |
dl2.writebacks                                  83 |           83 |            0 |            0 |           84 |           84 |            0 |            0 |           85 |           85 |            0 |            0 |           85 |           85 |            0 |            0 |           85 |           85 |            0 |            0 |           85 |           85 |            0 |            0 |           85 |           85 |            0 |            0 |           85 |         1326 |            0 |        69426 |         1310 |       393281 |        72603 |       420997 |       771220 |      1192468 |       850472 |      1250868 |      2317252 |      3021094 |      2416557 |      3170978 |
dl2.invalidations                                0 |            0 |            0 |            0 |            0 |            0 |            0 |            0 |            0 |            0 |            0 |            0 |            0 |            0 |            0 |            0 |            0 |            0 |            0 |            0 |            0 |            0 |            0 |            0 |            0 |            0 |            0 |            0 |            0 |            0 |            0 |            0 |            0 |            0 |            0 |            0 |            0 |            0 |            0 |            0 |            0 |            0 |            0 |            0 |
dl2.miss_rate                               0.2368 |       0.2368 |       0.2304 |       0.2304 |       0.1523 |       0.1523 |       0.1464 |       0.1464 |       0.1052 |       0.1052 |       0.1050 |       0.1050 |       0.0753 |       0.0753 |       0.0745 |       0.0745 |       0.0567 |       0.0567 |       0.0561 |       0.0561 |       0.0499 |       0.0499 |       0.0499 |       0.0499 |       0.0404 |       0.0404 |       0.0404 |       0.0404 |       0.0397 |       0.0402 |       0.0399 |       0.0822 |       0.0346 |       0.1200 |       0.0535 |       0.1287 |       0.1143 |       0.1611 |       0.1249 |       0.1694 |       0.1555 |       0.1946 |       0.1621 |       0.2056 |
dl2.repl_rate                               0.0255 |       0.0255 |       0.0000 |       0.0000 |       0.0118 |       0.0118 |       0.0000 |       0.0000 |       0.0054 |       0.0054 |       0.0000 |       0.0000 |       0.0022 |       0.0022 |       0.0000 |       0.0000 |       0.0009 |       0.0009 |       0.0000 |       0.0000 |       0.0004 |       0.0004 |       0.0000 |       0.0000 |       0.0002 |       0.0002 |       0.0000 |       0.0000 |       0.0001 |       0.0010 |       0.0000 |       0.0428 |       0.0004 |       0.1029 |       0.0191 |       0.1116 |       0.0978 |       0.1529 |       0.1083 |       0.1612 |       0.1480 |       0.1909 |       0.1546 |       0.2019 |
dl2.wb_rate                                 0.0145 |       0.0145 |       0.0000 |       0.0000 |       0.0068 |       0.0068 |       0.0000 |       0.0000 |       0.0031 |       0.0031 |       0.0000 |       0.0000 |       0.0013 |       0.0013 |       0.0000 |       0.0000 |       0.0005 |       0.0005 |       0.0000 |       0.0000 |       0.0002 |       0.0002 |       0.0000 |       0.0000 |       0.0001 |       0.0001 |       0.0000 |       0.0000 |       0.0001 |       0.0008 |       0.0000 |       0.0417 |       0.0003 |       0.1027 |       0.0190 |       0.1104 |       0.0972 |       0.1503 |       0.1077 |       0.1584 |       0.1325 |       0.1727 |       0.1388 |       0.1822 |
dl2.inv_rate                                0.0000 |       0.0000 |       0.0000 |       0.0000 |       0.0000 |       0.0000 |       0.0000 |       0.0000 |       0.0000 |       0.0000 |       0.0000 |       0.0000 |       0.0000 |       0.0000 |       0.0000 |       0.0000 |       0.0000 |       0.0000 |       0.0000 |       0.0000 |       0.0000 |       0.0000 |       0.0000 |       0.0000 |       0.0000 |       0.0000 |       0.0000 |       0.0000 |       0.0000 |       0.0000 |       0.0000 |       0.0000 |       0.0000 |       0.0000 |       0.0000 |       0.0000 |       0.0000 |       0.0000 |       0.0000 |       0.0000 |       0.0000 |       0.0000 |       0.0000 |       0.0000 |
itlb.accesses                               522134 |       522134 |       522134 |       522134 |      1085631 |      1085631 |      1085631 |      1085631 |      2348072 |      2348072 |      2348072 |      2348072 |      4898077 |      4898077 |      4898077 |      4898077 |     10834520 |     10834520 |     10834520 |     10834520 |     22542326 |     22542326 |     22542326 |     22542326 |     50359453 |     50359453 |     50359453 |     50359453 |     99202658 |     99202658 |     99202658 |     99202658 |    215522422 |    215522422 |    215522422 |    215522422 |    438626763 |    438626763 |    438626763 |    438626763 |    935503375 |    935503375 |    935503375 |    935503375 |
itlb.hits                                   522123 |       522123 |       522123 |       522123 |      1085621 |      1085621 |      1085621 |      1085621 |      2348062 |      2348062 |      2348062 |      2348062 |      4898067 |      4898067 |      4898067 |      4898067 |     10834510 |     10834510 |     10834510 |     10834510 |     22542316 |     22542316 |     22542316 |     22542316 |     50359443 |     50359443 |     50359443 |     50359443 |     99202648 |     99202648 |     99202648 |     99202648 |    215522412 |    215522412 |    215522412 |    215522412 |    438626753 |    438626753 |    438626753 |    438626753 |    935503365 |    935503365 |    935503365 |    935503365 |
itlb.misses                                     11 |           11 |           11 |           11 |           10 |           10 |           10 |           10 |           10 |           10 |           10 |           10 |           10 |           10 |           10 |           10 |           10 |           10 |           10 |           10 |           10 |           10 |           10 |           10 |           10 |           10 |           10 |           10 |           10 |           10 |           10 |           10 |           10 |           10 |           10 |           10 |           10 |           10 |           10 |           10 |           10 |           10 |           10 |           10 |
itlb.replacements                                0 |            0 |            0 |            0 |            0 |            0 |            0 |            0 |            0 |            0 |            0 |            0 |            0 |            0 |            0 |            0 |            0 |            0 |            0 |            0 |            0 |            0 |            0 |            0 |            0 |            0 |            0 |            0 |            0 |            0 |            0 |            0 |            0 |            0 |            0 |            0 |            0 |            0 |            0 |            0 |            0 |            0 |            0 |            0 |
itlb.writebacks                                  0 |            0 |            0 |            0 |            0 |            0 |            0 |            0 |            0 |            0 |            0 |            0 |            0 |            0 |            0 |            0 |            0 |            0 |            0 |            0 |            0 |            0 |            0 |            0 |            0 |            0 |            0 |            0 |            0 |            0 |            0 |            0 |            0 |            0 |            0 |            0 |            0 |            0 |            0 |            0 |            0 |            0 |            0 |            0 |
itlb.invalidations                               0 |            0 |            0 |            0 |            0 |            0 |            0 |            0 |            0 |            0 |            0 |            0 |            0 |            0 |            0 |            0 |            0 |            0 |            0 |            0 |            0 |            0 |            0 |            0 |            0 |            0 |            0 |            0 |            0 |            0 |            0 |            0 |            0 |            0 |            0 |            0 |            0 |            0 |            0 |            0 |            0 |            0 |            0 |            0 |
itlb.miss_rate                              0.0000 |       0.0000 |       0.0000 |       0.0000 |       0.0000 |       0.0000 |       0.0000 |       0.0000 |       0.0000 |       0.0000 |       0.0000 |       0.0000 |       0.0000 |       0.0000 |       0.0000 |       0.0000 |       0.0000 |       0.0000 |       0.0000 |       0.0000 |       0.0000 |       0.0000 |       0.0000 |       0.0000 |       0.0000 |       0.0000 |       0.0000 |       0.0000 |       0.0000 |       0.0000 |       0.0000 |       0.0000 |       0.0000 |       0.0000 |       0.0000 |       0.0000 |       0.0000 |       0.0000 |       0.0000 |       0.0000 |       0.0000 |       0.0000 |       0.0000 |       0.0000 |
itlb.repl_rate                              0.0000 |       0.0000 |       0.0000 |       0.0000 |       0.0000 |       0.0000 |       0.0000 |       0.0000 |       0.0000 |       0.0000 |       0.0000 |       0.0000 |       0.0000 |       0.0000 |       0.0000 |       0.0000 |       0.0000 |       0.0000 |       0.0000 |       0.0000 |       0.0000 |       0.0000 |       0.0000 |       0.0000 |       0.0000 |       0.0000 |       0.0000 |       0.0000 |       0.0000 |       0.0000 |       0.0000 |       0.0000 |       0.0000 |       0.0000 |       0.0000 |       0.0000 |       0.0000 |       0.0000 |       0.0000 |       0.0000 |       0.0000 |       0.0000 |       0.0000 |       0.0000 |
itlb.wb_rate                                0.0000 |       0.0000 |       0.0000 |       0.0000 |       0.0000 |       0.0000 |       0.0000 |       0.0000 |       0.0000 |       0.0000 |       0.0000 |       0.0000 |       0.0000 |       0.0000 |       0.0000 |       0.0000 |       0.0000 |       0.0000 |       0.0000 |       0.0000 |       0.0000 |       0.0000 |       0.0000 |       0.0000 |       0.0000 |       0.0000 |       0.0000 |       0.0000 |       0.0000 |       0.0000 |       0.0000 |       0.0000 |       0.0000 |       0.0000 |       0.0000 |       0.0000 |       0.0000 |       0.0000 |       0.0000 |       0.0000 |       0.0000 |       0.0000 |       0.0000 |       0.0000 |
itlb.inv_rate                               0.0000 |       0.0000 |       0.0000 |       0.0000 |       0.0000 |       0.0000 |       0.0000 |       0.0000 |       0.0000 |       0.0000 |       0.0000 |       0.0000 |       0.0000 |       0.0000 |       0.0000 |       0.0000 |       0.0000 |       0.0000 |       0.0000 |       0.0000 |       0.0000 |       0.0000 |       0.0000 |       0.0000 |       0.0000 |       0.0000 |       0.0000 |       0.0000 |       0.0000 |       0.0000 |       0.0000 |       0.0000 |       0.0000 |       0.0000 |       0.0000 |       0.0000 |       0.0000 |       0.0000 |       0.0000 |       0.0000 |       0.0000 |       0.0000 |       0.0000 |       0.0000 |
dtlb.accesses                               147389 |       147389 |       147389 |       147389 |       305758 |       305758 |       305758 |       305758 |       643644 |       643644 |       643644 |       643644 |      1346845 |      1346845 |      1346845 |      1346845 |      2877953 |      2877953 |      2877953 |      2877953 |      6005520 |      6005520 |      6005520 |      6005520 |     12981148 |     12981148 |     12981148 |     12981148 |     26208356 |     26208356 |     26208356 |     26208356 |     55656712 |     55656712 |     55656712 |     55656712 |    114127572 |    114127572 |    114127572 |    114127572 |    240466798 |    240466798 |    240466798 |    240466798 |
dtlb.hits                                   147377 |       147377 |       147377 |       147377 |       305742 |       305742 |       305742 |       305742 |       643620 |       643620 |       643620 |       643620 |      1346805 |      1346805 |      1346805 |      1346805 |      2877881 |      2877881 |      2877881 |      2877881 |      6005344 |      6005344 |      6005344 |      6005344 |     12979966 |     12979966 |     12979966 |     12979966 |     26205781 |     26205781 |     26205781 |     26205781 |     55649436 |     55649436 |     55649436 |     55649436 |    114111852 |    114111852 |    114111852 |    114111852 |    240427027 |    240427027 |    240427027 |    240427027 |
dtlb.misses                                     12 |           12 |           12 |           12 |           16 |           16 |           16 |           16 |           24 |           24 |           24 |           24 |           40 |           40 |           40 |           40 |           72 |           72 |           72 |           72 |          176 |          176 |          176 |          176 |         1182 |         1182 |         1182 |         1182 |         2575 |         2575 |         2575 |         2575 |         7276 |         7276 |         7276 |         7276 |        15720 |        15720 |        15720 |        15720 |        39771 |        39771 |        39771 |        39771 |
dtlb.replacements                                0 |            0 |            0 |            0 |            0 |            0 |            0 |            0 |            0 |            0 |            0 |            0 |            0 |            0 |            0 |            0 |            0 |            0 |            0 |            0 |           48 |           48 |           48 |           48 |         1054 |         1054 |         1054 |         1054 |         2447 |         2447 |         2447 |         2447 |         7148 |         7148 |         7148 |         7148 |        15592 |        15592 |        15592 |        15592 |        39643 |        39643 |        39643 |        39643 |
dtlb.writebacks                                  0 |            0 |            0 |            0 |            0 |            0 |            0 |            0 |            0 |            0 |            0 |            0 |            0 |            0 |            0 |            0 |            0 |            0 |            0 |            0 |           46 |           46 |           46 |           46 |         1052 |         1052 |         1052 |         1052 |         2445 |         2445 |         2445 |         2445 |         7146 |         7146 |         7146 |         7146 |        15589 |        15589 |        15589 |        15589 |        39636 |        39636 |        39636 |        39636 |
dtlb.invalidations                               0 |            0 |            0 |            0 |            0 |            0 |            0 |            0 |            0 |            0 |            0 |            0 |            0 |            0 |            0 |            0 |            0 |            0 |            0 |            0 |            0 |            0 |            0 |            0 |            0 |            0 |            0 |            0 |            0 |            0 |            0 |            0 |            0 |            0 |            0 |            0 |            0 |            0 |            0 |            0 |            0 |            0 |            0 |            0 |
dtlb.miss_rate                              0.0001 |       0.0001 |       0.0001 |       0.0001 |       0.0001 |       0.0001 |       0.0001 |       0.0001 |       0.0000 |       0.0000 |       0.0000 |       0.0000 |       0.0000 |       0.0000 |       0.0000 |       0.0000 |       0.0000 |       0.0000 |       0.0000 |       0.0000 |       0.0000 |       0.0000 |       0.0000 |       0.0000 |       0.0001 |       0.0001 |       0.0001 |       0.0001 |       0.0001 |       0.0001 |       0.0001 |       0.0001 |       0.0001 |       0.0001 |       0.0001 |       0.0001 |       0.0001 |       0.0001 |       0.0001 |       0.0001 |       0.0002 |       0.0002 |       0.0002 |       0.0002 |
dtlb.repl_rate                              0.0000 |       0.0000 |       0.0000 |       0.0000 |       0.0000 |       0.0000 |       0.0000 |       0.0000 |       0.0000 |       0.0000 |       0.0000 |       0.0000 |       0.0000 |       0.0000 |       0.0000 |       0.0000 |       0.0000 |       0.0000 |       0.0000 |       0.0000 |       0.0000 |       0.0000 |       0.0000 |       0.0000 |       0.0001 |       0.0001 |       0.0001 |       0.0001 |       0.0001 |       0.0001 |       0.0001 |       0.0001 |       0.0001 |       0.0001 |       0.0001 |       0.0001 |       0.0001 |       0.0001 |       0.0001 |       0.0001 |       0.0002 |       0.0002 |       0.0002 |       0.0002 |
dtlb.wb_rate                                0.0000 |       0.0000 |       0.0000 |       0.0000 |       0.0000 |       0.0000 |       0.0000 |       0.0000 |       0.0000 |       0.0000 |       0.0000 |       0.0000 |       0.0000 |       0.0000 |       0.0000 |       0.0000 |       0.0000 |       0.0000 |       0.0000 |       0.0000 |       0.0000 |       0.0000 |       0.0000 |       0.0000 |       0.0001 |       0.0001 |       0.0001 |       0.0001 |       0.0001 |       0.0001 |       0.0001 |       0.0001 |       0.0001 |       0.0001 |       0.0001 |       0.0001 |       0.0001 |       0.0001 |       0.0001 |       0.0001 |       0.0002 |       0.0002 |       0.0002 |       0.0002 |
dtlb.inv_rate                               0.0000 |       0.0000 |       0.0000 |       0.0000 |       0.0000 |       0.0000 |       0.0000 |       0.0000 |       0.0000 |       0.0000 |       0.0000 |       0.0000 |       0.0000 |       0.0000 |       0.0000 |       0.0000 |       0.0000 |       0.0000 |       0.0000 |       0.0000 |       0.0000 |       0.0000 |       0.0000 |       0.0000 |       0.0000 |       0.0000 |       0.0000 |       0.0000 |       0.0000 |       0.0000 |       0.0000 |       0.0000 |       0.0000 |       0.0000 |       0.0000 |       0.0000 |       0.0000 |       0.0000 |       0.0000 |       0.0000 |       0.0000 |       0.0000 |       0.0000 |       0.0000 |
ld_text_base                            0x00400000 |   0x00400000 |   0x00400000 |   0x00400000 |   0x00400000 |   0x00400000 |   0x00400000 |   0x00400000 |   0x00400000 |   0x00400000 |   0x00400000 |   0x00400000 |   0x00400000 |   0x00400000 |   0x00400000 |   0x00400000 |   0x00400000 |   0x00400000 |   0x00400000 |   0x00400000 |   0x00400000 |   0x00400000 |   0x00400000 |   0x00400000 |   0x00400000 |   0x00400000 |   0x00400000 |   0x00400000 |   0x00400000 |   0x00400000 |   0x00400000 |   0x00400000 |   0x00400000 |   0x00400000 |   0x00400000 |   0x00400000 |   0x00400000 |   0x00400000 |   0x00400000 |   0x00400000 |   0x00400000 |   0x00400000 |   0x00400000 |   0x00400000 |
ld_text_size                                 73136 |        73136 |        73136 |        73136 |        73168 |        73168 |        73168 |        73168 |        73184 |        73184 |        73184 |        73184 |        73200 |        73200 |        73200 |        73200 |        73200 |        73200 |        73200 |        73200 |        73200 |        73200 |        73200 |        73200 |        73200 |        73200 |        73200 |        73200 |        73200 |        73200 |        73200 |        73200 |        73200 |        73200 |        73200 |        73200 |        73200 |        73200 |        73200 |        73200 |        73200 |        73200 |        73200 |        73200 |
ld_data_base                            0x10000000 |   0x10000000 |   0x10000000 |   0x10000000 |   0x10000000 |   0x10000000 |   0x10000000 |   0x10000000 |   0x10000000 |   0x10000000 |   0x10000000 |   0x10000000 |   0x10000000 |   0x10000000 |   0x10000000 |   0x10000000 |   0x10000000 |   0x10000000 |   0x10000000 |   0x10000000 |   0x10000000 |   0x10000000 |   0x10000000 |   0x10000000 |   0x10000000 |   0x10000000 |   0x10000000 |   0x10000000 |   0x10000000 |   0x10000000 |   0x10000000 |   0x10000000 |   0x10000000 |   0x10000000 |   0x10000000 |   0x10000000 |   0x10000000 |   0x10000000 |   0x10000000 |   0x10000000 |   0x10000000 |   0x10000000 |   0x10000000 |   0x10000000 |
ld_data_size                                  8192 |         8192 |         8192 |         8192 |         8192 |         8192 |         8192 |         8192 |         8192 |         8192 |         8192 |         8192 |         8192 |         8192 |         8192 |         8192 |         8192 |         8192 |         8192 |         8192 |         8192 |         8192 |         8192 |         8192 |         8192 |         8192 |         8192 |         8192 |         8192 |         8192 |         8192 |         8192 |         8192 |         8192 |         8192 |         8192 |         8192 |         8192 |         8192 |         8192 |         8192 |         8192 |         8192 |         8192 |
ld_stack_base                           0x7fffc000 |   0x7fffc000 |   0x7fffc000 |   0x7fffc000 |   0x7fffc000 |   0x7fffc000 |   0x7fffc000 |   0x7fffc000 |   0x7fffc000 |   0x7fffc000 |   0x7fffc000 |   0x7fffc000 |   0x7fffc000 |   0x7fffc000 |   0x7fffc000 |   0x7fffc000 |   0x7fffc000 |   0x7fffc000 |   0x7fffc000 |   0x7fffc000 |   0x7fffc000 |   0x7fffc000 |   0x7fffc000 |   0x7fffc000 |   0x7fffc000 |   0x7fffc000 |   0x7fffc000 |   0x7fffc000 |   0x7fffc000 |   0x7fffc000 |   0x7fffc000 |   0x7fffc000 |   0x7fffc000 |   0x7fffc000 |   0x7fffc000 |   0x7fffc000 |   0x7fffc000 |   0x7fffc000 |   0x7fffc000 |   0x7fffc000 |   0x7fffc000 |   0x7fffc000 |   0x7fffc000 |   0x7fffc000 |
ld_stack_size                                16384 |        16384 |        16384 |        16384 |        16384 |        16384 |        16384 |        16384 |        16384 |        16384 |        16384 |        16384 |        16384 |        16384 |        16384 |        16384 |        16384 |        16384 |        16384 |        16384 |        16384 |        16384 |        16384 |        16384 |        16384 |        16384 |        16384 |        16384 |        16384 |        16384 |        16384 |        16384 |        16384 |        16384 |        16384 |        16384 |        16384 |        16384 |        16384 |        16384 |        16384 |        16384 |        16384 |        16384 |
ld_prog_entry                           0x00400140 |   0x00400140 |   0x00400140 |   0x00400140 |   0x00400140 |   0x00400140 |   0x00400140 |   0x00400140 |   0x00400140 |   0x00400140 |   0x00400140 |   0x00400140 |   0x00400140 |   0x00400140 |   0x00400140 |   0x00400140 |   0x00400140 |   0x00400140 |   0x00400140 |   0x00400140 |   0x00400140 |   0x00400140 |   0x00400140 |   0x00400140 |   0x00400140 |   0x00400140 |   0x00400140 |   0x00400140 |   0x00400140 |   0x00400140 |   0x00400140 |   0x00400140 |   0x00400140 |   0x00400140 |   0x00400140 |   0x00400140 |   0x00400140 |   0x00400140 |   0x00400140 |   0x00400140 |   0x00400140 |   0x00400140 |   0x00400140 |   0x00400140 |
ld_environ_base                         0x7fff8000 |   0x7fff8000 |   0x7fff8000 |   0x7fff8000 |   0x7fff8000 |   0x7fff8000 |   0x7fff8000 |   0x7fff8000 |   0x7fff8000 |   0x7fff8000 |   0x7fff8000 |   0x7fff8000 |   0x7fff8000 |   0x7fff8000 |   0x7fff8000 |   0x7fff8000 |   0x7fff8000 |   0x7fff8000 |   0x7fff8000 |   0x7fff8000 |   0x7fff8000 |   0x7fff8000 |   0x7fff8000 |   0x7fff8000 |   0x7fff8000 |   0x7fff8000 |   0x7fff8000 |   0x7fff8000 |   0x7fff8000 |   0x7fff8000 |   0x7fff8000 |   0x7fff8000 |   0x7fff8000 |   0x7fff8000 |   0x7fff8000 |   0x7fff8000 |   0x7fff8000 |   0x7fff8000 |   0x7fff8000 |   0x7fff8000 |   0x7fff8000 |   0x7fff8000 |   0x7fff8000 |   0x7fff8000 |
ld_target_big_endian                             0 |            0 |            0 |            0 |            0 |            0 |            0 |            0 |            0 |            0 |            0 |            0 |            0 |            0 |            0 |            0 |            0 |            0 |            0 |            0 |            0 |            0 |            0 |            0 |            0 |            0 |            0 |            0 |            0 |            0 |            0 |            0 |            0 |            0 |            0 |            0 |            0 |            0 |            0 |            0 |            0 |            0 |            0 |            0 |
mem.page_count                                  30 |           30 |           30 |           30 |           34 |           34 |           34 |           34 |           42 |           42 |           42 |           42 |           58 |           58 |           58 |           58 |           90 |           90 |           90 |           90 |          154 |          154 |          154 |          154 |          282 |          282 |          282 |          282 |          538 |          538 |          538 |          538 |         1050 |         1050 |         1050 |         1050 |         2074 |         2074 |         2074 |         2074 |         4122 |         4122 |         4122 |         4122 |
mem.page_mem                                  120k |         120k |         120k |         120k |         136k |         136k |         136k |         136k |         168k |         168k |         168k |         168k |         232k |         232k |         232k |         232k |         360k |         360k |         360k |         360k |         616k |         616k |         616k |         616k |        1128k |        1128k |        1128k |        1128k |        2152k |        2152k |        2152k |        2152k |        4200k |        4200k |        4200k |        4200k |        8296k |        8296k |        8296k |        8296k |       16488k |       16488k |       16488k |       16488k |
mem.ptab_misses                                 30 |           30 |           30 |           30 |           34 |           34 |           34 |           34 |           42 |           42 |           42 |           42 |           58 |           58 |           58 |           58 |           90 |           90 |           90 |           90 |          154 |          154 |          154 |          154 |          282 |          282 |          282 |          282 |          538 |          538 |          538 |          538 |         1050 |         1050 |         1050 |         1050 |         2074 |         2074 |         2074 |         2074 |         4122 |         4122 |         4122 |         4122 |
mem.ptab_accesses                          2836754 |      2836754 |      2836754 |      2836754 |      5407672 |      5407672 |      5407672 |      5407672 |     11133304 |     11133304 |     11133304 |     11133304 |     22739822 |     22739822 |     22739822 |     22739822 |     49547810 |     49547810 |     49547810 |     49547810 |    102634168 |    102634168 |    102634168 |    102634168 |    227853932 |    227853932 |    227853932 |    227853932 |    449681168 |    449681168 |    449681168 |    449681168 |    973856936 |    973856936 |    973856936 |    973856936 |   1983216020 |   1983216020 |   1983216020 |   1983216020 |   4223400920 |   4223400920 |   4223400920 |   4223400920 |
mem.ptab_miss_rate                          0.0000 |       0.0000 |       0.0000 |       0.0000 |       0.0000 |       0.0000 |       0.0000 |       0.0000 |       0.0000 |       0.0000 |       0.0000 |       0.0000 |       0.0000 |       0.0000 |       0.0000 |       0.0000 |       0.0000 |       0.0000 |       0.0000 |       0.0000 |       0.0000 |       0.0000 |       0.0000 |       0.0000 |       0.0000 |       0.0000 |       0.0000 |       0.0000 |       0.0000 |       0.0000 |       0.0000 |       0.0000 |       0.0000 |       0.0000 |       0.0000 |       0.0000 |       0.0000 |       0.0000 |       0.0000 |       0.0000 |       0.0000 |       0.0000 |       0.0000 |       0.0000 |
-------------------------------------------------------------------------------------------------
sim-bpred                                     4096 |         4096 |         4096 |         4096 |         4096 |         4096 |         4096 |         8192 |         8192 |         8192 |         8192 |         8192 |         8192 |         8192 |        16384 |        16384 |        16384 |        16384 |        16384 |        16384 |        16384 |        32768 |        32768 |        32768 |        32768 |        32768 |        32768 |        32768 |        65536 |        65536 |        65536 |        65536 |        65536 |        65536 |        65536 |       131072 |       131072 |       131072 |       131072 |       131072 |       131072 |       131072 |       262144 |       262144 |       262144 |       262144 |       262144 |       262144 |       262144 |       524288 |       524288 |       524288 |       524288 |       524288 |       524288 |       524288 |      1048576 |      1048576 |      1048576 |      1048576 |      1048576 |      1048576 |      1048576 |      2097152 |      2097152 |      2097152 |      2097152 |      2097152 |      2097152 |      2097152 |      4194304 |      4194304 |      4194304 |      4194304 |      4194304 |      4194304 |      4194304 |
-bpred bimod -bpred:bimod 512
-bpred bimod -bpred:bimod 1024
-bpred bimod -bpred:bimod 2048
-bpred 2lev -bpred:2lev 1 512 10 1
-bpred 2lev -bpred:2lev 1 1024 10 1
-bpred 2lev -bpred:2lev 1 2048 10 1
-bpred 2lev -bpred:2lev 1 4096 10 1
-------------------------------------------------------------------------------------------------
sim_num_insn                                522134 |       522134 |       522134 |       522134 |       522134 |       522134 |       522134 |      1085631 |      1085631 |      1085631 |      1085631 |      1085631 |      1085631 |      1085631 |      2348072 |      2348072 |      2348072 |      2348072 |      2348072 |      2348072 |      2348072 |      4898077 |      4898077 |      4898077 |      4898077 |      4898077 |      4898077 |      4898077 |     10834520 |     10834520 |     10834520 |     10834520 |     10834520 |     10834520 |     10834520 |     22542326 |     22542326 |     22542326 |     22542326 |     22542326 |     22542326 |     22542326 |     50359453 |     50359453 |     50359453 |     50359453 |     50359453 |     50359453 |     50359453 |     99202658 |     99202658 |     99202658 |     99202658 |     99202658 |     99202658 |     99202658 |    215522422 |    215522422 |    215522422 |    215522422 |    215522422 |    215522422 |    215522422 |    438626763 |    438626763 |    438626763 |    438626763 |    438626763 |    438626763 |    438626763 |    935503375 |    935503375 |    935503375 |    935503375 |    935503375 |    935503375 |    935503375 |
sim_num_refs                                130923 |       130923 |       130923 |       130923 |       130923 |       130923 |       130923 |       272908 |       272908 |       272908 |       272908 |       272908 |       272908 |       272908 |       578026 |       578026 |       578026 |       578026 |       578026 |       578026 |       578026 |      1215691 |      1215691 |      1215691 |      1215691 |      1215691 |      1215691 |      1215691 |      2615727 |      2615727 |      2615727 |      2615727 |      2615727 |      2615727 |      2615727 |      5481150 |      5481150 |      5481150 |      5481150 |      5481150 |      5481150 |      5481150 |     11932490 |     11932490 |     11932490 |     11932490 |     11932490 |     11932490 |     11932490 |     24111122 |     24111122 |     24111122 |     24111122 |     24111122 |     24111122 |     24111122 |     51462326 |     51462326 |     51462326 |     51462326 |     51462326 |     51462326 |     51462326 |    105738882 |    105738882 |    105738882 |    105738882 |    105738882 |    105738882 |    105738882 |    223689500 |    223689500 |    223689500 |    223689500 |    223689500 |    223689500 |    223689500 |
sim_elapsed_time                                 1 |            1 |            1 |            1 |            1 |            1 |            1 |            1 |            1 |            1 |            1 |            1 |            1 |            1 |            1 |            1 |            1 |            1 |            1 |            1 |            1 |            1 |            1 |            1 |            1 |            1 |            1 |            1 |            1 |            2 |            1 |            1 |            2 |            1 |            2 |            3 |            3 |            3 |            2 |            3 |            3 |            3 |            6 |            7 |            6 |            6 |            7 |            6 |            7 |           12 |           12 |           13 |           12 |           13 |           12 |           13 |           27 |           26 |           27 |           28 |           27 |           27 |           28 |           55 |           55 |           55 |           55 |           56 |           56 |           56 |          116 |          116 |          116 |          118 |          118 |          119 |          119 |
sim_inst_rate                          522134.0000 |  522134.0000 |  522134.0000 |  522134.0000 |  522134.0000 |  522134.0000 |  522134.0000 | 1085631.0000 | 1085631.0000 | 1085631.0000 | 1085631.0000 | 1085631.0000 | 1085631.0000 | 1085631.0000 | 2348072.0000 | 2348072.0000 | 2348072.0000 | 2348072.0000 | 2348072.0000 | 2348072.0000 | 2348072.0000 | 4898077.0000 | 4898077.0000 | 4898077.0000 | 4898077.0000 | 4898077.0000 | 4898077.0000 | 4898077.0000 |10834520.0000 | 5417260.0000 |10834520.0000 |10834520.0000 | 5417260.0000 |10834520.0000 | 5417260.0000 | 7514108.6667 | 7514108.6667 | 7514108.6667 |11271163.0000 | 7514108.6667 | 7514108.6667 | 7514108.6667 | 8393242.1667 | 7194207.5714 | 8393242.1667 | 8393242.1667 | 7194207.5714 | 8393242.1667 | 7194207.5714 | 8266888.1667 | 8266888.1667 | 7630973.6923 | 8266888.1667 | 7630973.6923 | 8266888.1667 | 7630973.6923 | 7982311.9259 | 8289323.9231 | 7982311.9259 | 7697229.3571 | 7982311.9259 | 7982311.9259 | 7697229.3571 | 7975032.0545 | 7975032.0545 | 7975032.0545 | 7975032.0545 | 7832620.7679 | 7832620.7679 | 7832620.7679 | 8064684.2672 | 8064684.2672 | 8064684.2672 | 7927994.7034 | 7927994.7034 | 7861372.8992 | 7861372.8992 |
sim_num_branches                            104518 |       104518 |       104518 |       104518 |       104518 |       104518 |       104518 |       212042 |       212042 |       212042 |       212042 |       212042 |       212042 |       212042 |       476388 |       476388 |       476388 |       476388 |       476388 |       476388 |       476388 |       975750 |       975750 |       975750 |       975750 |       975750 |       975750 |       975750 |      2239964 |      2239964 |      2239964 |      2239964 |      2239964 |      2239964 |      2239964 |      4602730 |      4602730 |      4602730 |      4602730 |      4602730 |      4602730 |      4602730 |     10395580 |     10395580 |     10395580 |     10395580 |     10395580 |     10395580 |     10395580 |     20262824 |     20262824 |     20262824 |     20262824 |     20262824 |     20262824 |     20262824 |     44311566 |     44311566 |     44311566 |     44311566 |     44311566 |     44311566 |     44311566 |     91107450 |     91107450 |     91107450 |     91107450 |     91107450 |     91107450 |     91107450 |    193429974 |    193429974 |    193429974 |    193429974 |    193429974 |    193429974 |    193429974 |
sim_IPB                                     4.9956 |       4.9956 |       4.9956 |       4.9956 |       4.9956 |       4.9956 |       4.9956 |       5.1199 |       5.1199 |       5.1199 |       5.1199 |       5.1199 |       5.1199 |       5.1199 |       4.9289 |       4.9289 |       4.9289 |       4.9289 |       4.9289 |       4.9289 |       4.9289 |       5.0198 |       5.0198 |       5.0198 |       5.0198 |       5.0198 |       5.0198 |       5.0198 |       4.8369 |       4.8369 |       4.8369 |       4.8369 |       4.8369 |       4.8369 |       4.8369 |       4.8976 |       4.8976 |       4.8976 |       4.8976 |       4.8976 |       4.8976 |       4.8976 |       4.8443 |       4.8443 |       4.8443 |       4.8443 |       4.8443 |       4.8443 |       4.8443 |       4.8958 |       4.8958 |       4.8958 |       4.8958 |       4.8958 |       4.8958 |       4.8958 |       4.8638 |       4.8638 |       4.8638 |       4.8638 |       4.8638 |       4.8638 |       4.8638 |       4.8144 |       4.8144 |       4.8144 |       4.8144 |       4.8144 |       4.8144 |       4.8144 |       4.8364 |       4.8364 |       4.8364 |       4.8364 |       4.8364 |       4.8364 |       4.8364 |
bpred_bimod.lookups                         104518 |       104518 |       104518 |xxxxxxxxxxxxx |xxxxxxxxxxxxx |xxxxxxxxxxxxx |xxxxxxxxxxxxx |       212042 |       212042 |       212042 |xxxxxxxxxxxxx |xxxxxxxxxxxxx |xxxxxxxxxxxxx |xxxxxxxxxxxxx |       476388 |       476388 |       476388 |xxxxxxxxxxxxx |xxxxxxxxxxxxx |xxxxxxxxxxxxx |xxxxxxxxxxxxx |       975750 |       975750 |       975750 |xxxxxxxxxxxxx |xxxxxxxxxxxxx |xxxxxxxxxxxxx |xxxxxxxxxxxxx |      2239964 |      2239964 |      2239964 |xxxxxxxxxxxxx |xxxxxxxxxxxxx |xxxxxxxxxxxxx |xxxxxxxxxxxxx |      4602730 |      4602730 |      4602730 |xxxxxxxxxxxxx |xxxxxxxxxxxxx |xxxxxxxxxxxxx |xxxxxxxxxxxxx |     10395580 |     10395580 |     10395580 |xxxxxxxxxxxxx |xxxxxxxxxxxxx |xxxxxxxxxxxxx |xxxxxxxxxxxxx |     20262824 |     20262824 |     20262824 |xxxxxxxxxxxxx |xxxxxxxxxxxxx |xxxxxxxxxxxxx |xxxxxxxxxxxxx |     44311566 |     44311566 |     44311566 |xxxxxxxxxxxxx |xxxxxxxxxxxxx |xxxxxxxxxxxxx |xxxxxxxxxxxxx |     91107450 |     91107450 |     91107450 |xxxxxxxxxxxxx |xxxxxxxxxxxxx |xxxxxxxxxxxxx |xxxxxxxxxxxxx |    193429974 |    193429974 |    193429974 |
bpred_bimod.updates                         104518 |       104518 |       104518 |xxxxxxxxxxxxx |xxxxxxxxxxxxx |xxxxxxxxxxxxx |xxxxxxxxxxxxx |       212042 |       212042 |       212042 |xxxxxxxxxxxxx |xxxxxxxxxxxxx |xxxxxxxxxxxxx |xxxxxxxxxxxxx |       476388 |       476388 |       476388 |xxxxxxxxxxxxx |xxxxxxxxxxxxx |xxxxxxxxxxxxx |xxxxxxxxxxxxx |       975750 |       975750 |       975750 |xxxxxxxxxxxxx |xxxxxxxxxxxxx |xxxxxxxxxxxxx |xxxxxxxxxxxxx |      2239964 |      2239964 |      2239964 |xxxxxxxxxxxxx |xxxxxxxxxxxxx |xxxxxxxxxxxxx |xxxxxxxxxxxxx |      4602730 |      4602730 |      4602730 |xxxxxxxxxxxxx |xxxxxxxxxxxxx |xxxxxxxxxxxxx |xxxxxxxxxxxxx |     10395580 |     10395580 |     10395580 |xxxxxxxxxxxxx |xxxxxxxxxxxxx |xxxxxxxxxxxxx |xxxxxxxxxxxxx |     20262824 |     20262824 |     20262824 |xxxxxxxxxxxxx |xxxxxxxxxxxxx |xxxxxxxxxxxxx |xxxxxxxxxxxxx |     44311566 |     44311566 |     44311566 |xxxxxxxxxxxxx |xxxxxxxxxxxxx |xxxxxxxxxxxxx |xxxxxxxxxxxxx |     91107450 |     91107450 |     91107450 |xxxxxxxxxxxxx |xxxxxxxxxxxxx |xxxxxxxxxxxxx |xxxxxxxxxxxxx |    193429974 |    193429974 |    193429974 |
bpred_bimod.addr_hits                        83036 |        83039 |        83041 |xxxxxxxxxxxxx |xxxxxxxxxxxxx |xxxxxxxxxxxxx |xxxxxxxxxxxxx |       165890 |       165889 |       165891 |xxxxxxxxxxxxx |xxxxxxxxxxxxx |xxxxxxxxxxxxx |xxxxxxxxxxxxx |       377418 |       377420 |       377420 |xxxxxxxxxxxxx |xxxxxxxxxxxxx |xxxxxxxxxxxxx |xxxxxxxxxxxxx |       764380 |       764381 |       764384 |xxxxxxxxxxxxx |xxxxxxxxxxxxx |xxxxxxxxxxxxx |xxxxxxxxxxxxx |      1800315 |      1800316 |      1800317 |xxxxxxxxxxxxx |xxxxxxxxxxxxx |xxxxxxxxxxxxx |xxxxxxxxxxxxx |      3667350 |      3667351 |      3667351 |xxxxxxxxxxxxx |xxxxxxxxxxxxx |xxxxxxxxxxxxx |xxxxxxxxxxxxx |      8449703 |      8449704 |      8449705 |xxxxxxxxxxxxx |xxxxxxxxxxxxx |xxxxxxxxxxxxx |xxxxxxxxxxxxx |     16025857 |     16025858 |     16025860 |xxxxxxxxxxxxx |xxxxxxxxxxxxx |xxxxxxxxxxxxx |xxxxxxxxxxxxx |     35611407 |     35611408 |     35611411 |xxxxxxxxxxxxx |xxxxxxxxxxxxx |xxxxxxxxxxxxx |xxxxxxxxxxxxx |     72462447 |     72462448 |     72462450 |xxxxxxxxxxxxx |xxxxxxxxxxxxx |xxxxxxxxxxxxx |xxxxxxxxxxxxx |    154327651 |    154327652 |    154327653 |
bpred_bimod.dir_hits                         83148 |        83149 |        83151 |xxxxxxxxxxxxx |xxxxxxxxxxxxx |xxxxxxxxxxxxx |xxxxxxxxxxxxx |       166001 |       165998 |       166000 |xxxxxxxxxxxxx |xxxxxxxxxxxxx |xxxxxxxxxxxxx |xxxxxxxxxxxxx |       377530 |       377530 |       377531 |xxxxxxxxxxxxx |xxxxxxxxxxxxx |xxxxxxxxxxxxx |xxxxxxxxxxxxx |       764492 |       764491 |       764494 |xxxxxxxxxxxxx |xxxxxxxxxxxxx |xxxxxxxxxxxxx |xxxxxxxxxxxxx |      1800429 |      1800428 |      1800428 |xxxxxxxxxxxxx |xxxxxxxxxxxxx |xxxxxxxxxxxxx |xxxxxxxxxxxxx |      3667461 |      3667460 |      3667459 |xxxxxxxxxxxxx |xxxxxxxxxxxxx |xxxxxxxxxxxxx |xxxxxxxxxxxxx |      8449818 |      8449817 |      8449817 |xxxxxxxxxxxxx |xxxxxxxxxxxxx |xxxxxxxxxxxxx |xxxxxxxxxxxxx |     16025968 |     16025967 |     16025968 |xxxxxxxxxxxxx |xxxxxxxxxxxxx |xxxxxxxxxxxxx |xxxxxxxxxxxxx |     35611519 |     35611518 |     35611520 |xxxxxxxxxxxxx |xxxxxxxxxxxxx |xxxxxxxxxxxxx |xxxxxxxxxxxxx |     72462561 |     72462560 |     72462561 |xxxxxxxxxxxxx |xxxxxxxxxxxxx |xxxxxxxxxxxxx |xxxxxxxxxxxxx |    154327766 |    154327765 |    154327765 |
bpred_bimod.misses                           21370 |        21369 |        21367 |xxxxxxxxxxxxx |xxxxxxxxxxxxx |xxxxxxxxxxxxx |xxxxxxxxxxxxx |        46041 |        46044 |        46042 |xxxxxxxxxxxxx |xxxxxxxxxxxxx |xxxxxxxxxxxxx |xxxxxxxxxxxxx |        98858 |        98858 |        98857 |xxxxxxxxxxxxx |xxxxxxxxxxxxx |xxxxxxxxxxxxx |xxxxxxxxxxxxx |       211258 |       211259 |       211256 |xxxxxxxxxxxxx |xxxxxxxxxxxxx |xxxxxxxxxxxxx |xxxxxxxxxxxxx |       439535 |       439536 |       439536 |xxxxxxxxxxxxx |xxxxxxxxxxxxx |xxxxxxxxxxxxx |xxxxxxxxxxxxx |       935269 |       935270 |       935271 |xxxxxxxxxxxxx |xxxxxxxxxxxxx |xxxxxxxxxxxxx |xxxxxxxxxxxxx |      1945762 |      1945763 |      1945763 |xxxxxxxxxxxxx |xxxxxxxxxxxxx |xxxxxxxxxxxxx |xxxxxxxxxxxxx |      4236856 |      4236857 |      4236856 |xxxxxxxxxxxxx |xxxxxxxxxxxxx |xxxxxxxxxxxxx |xxxxxxxxxxxxx |      8700047 |      8700048 |      8700046 |xxxxxxxxxxxxx |xxxxxxxxxxxxx |xxxxxxxxxxxxx |xxxxxxxxxxxxx |     18644889 |     18644890 |     18644889 |xxxxxxxxxxxxx |xxxxxxxxxxxxx |xxxxxxxxxxxxx |xxxxxxxxxxxxx |     39102208 |     39102209 |     39102209 |
bpred_bimod.jr_hits                             64 |           64 |           64 |xxxxxxxxxxxxx |xxxxxxxxxxxxx |xxxxxxxxxxxxx |xxxxxxxxxxxxx |           64 |           64 |           64 |xxxxxxxxxxxxx |xxxxxxxxxxxxx |xxxxxxxxxxxxx |xxxxxxxxxxxxx |           64 |           64 |           64 |xxxxxxxxxxxxx |xxxxxxxxxxxxx |xxxxxxxxxxxxx |xxxxxxxxxxxxx |           64 |           64 |           64 |xxxxxxxxxxxxx |xxxxxxxxxxxxx |xxxxxxxxxxxxx |xxxxxxxxxxxxx |           64 |           64 |           64 |xxxxxxxxxxxxx |xxxxxxxxxxxxx |xxxxxxxxxxxxx |xxxxxxxxxxxxx |           64 |           64 |           64 |xxxxxxxxxxxxx |xxxxxxxxxxxxx |xxxxxxxxxxxxx |xxxxxxxxxxxxx |           64 |           64 |           64 |xxxxxxxxxxxxx |xxxxxxxxxxxxx |xxxxxxxxxxxxx |xxxxxxxxxxxxx |           64 |           64 |           64 |xxxxxxxxxxxxx |xxxxxxxxxxxxx |xxxxxxxxxxxxx |xxxxxxxxxxxxx |           64 |           64 |           64 |xxxxxxxxxxxxx |xxxxxxxxxxxxx |xxxxxxxxxxxxx |xxxxxxxxxxxxx |           64 |           64 |           64 |xxxxxxxxxxxxx |xxxxxxxxxxxxx |xxxxxxxxxxxxx |xxxxxxxxxxxxx |           64 |           64 |           64 |
bpred_bimod.jr_seen                             64 |           64 |           64 |xxxxxxxxxxxxx |xxxxxxxxxxxxx |xxxxxxxxxxxxx |xxxxxxxxxxxxx |           64 |           64 |           64 |xxxxxxxxxxxxx |xxxxxxxxxxxxx |xxxxxxxxxxxxx |xxxxxxxxxxxxx |           64 |           64 |           64 |xxxxxxxxxxxxx |xxxxxxxxxxxxx |xxxxxxxxxxxxx |xxxxxxxxxxxxx |           64 |           64 |           64 |xxxxxxxxxxxxx |xxxxxxxxxxxxx |xxxxxxxxxxxxx |xxxxxxxxxxxxx |           64 |           64 |           64 |xxxxxxxxxxxxx |xxxxxxxxxxxxx |xxxxxxxxxxxxx |xxxxxxxxxxxxx |           64 |           64 |           64 |xxxxxxxxxxxxx |xxxxxxxxxxxxx |xxxxxxxxxxxxx |xxxxxxxxxxxxx |           64 |           64 |           64 |xxxxxxxxxxxxx |xxxxxxxxxxxxx |xxxxxxxxxxxxx |xxxxxxxxxxxxx |           64 |           64 |           64 |xxxxxxxxxxxxx |xxxxxxxxxxxxx |xxxxxxxxxxxxx |xxxxxxxxxxxxx |           64 |           64 |           64 |xxxxxxxxxxxxx |xxxxxxxxxxxxx |xxxxxxxxxxxxx |xxxxxxxxxxxxx |           64 |           64 |           64 |xxxxxxxxxxxxx |xxxxxxxxxxxxx |xxxxxxxxxxxxx |xxxxxxxxxxxxx |           64 |           64 |           64 |
bpred_bimod.jr_non_ras_hits.PP                   0 |            0 |            0 |xxxxxxxxxxxxx |xxxxxxxxxxxxx |xxxxxxxxxxxxx |xxxxxxxxxxxxx |            0 |            0 |            0 |xxxxxxxxxxxxx |xxxxxxxxxxxxx |xxxxxxxxxxxxx |xxxxxxxxxxxxx |            0 |            0 |            0 |xxxxxxxxxxxxx |xxxxxxxxxxxxx |xxxxxxxxxxxxx |xxxxxxxxxxxxx |            0 |            0 |            0 |xxxxxxxxxxxxx |xxxxxxxxxxxxx |xxxxxxxxxxxxx |xxxxxxxxxxxxx |            0 |            0 |            0 |xxxxxxxxxxxxx |xxxxxxxxxxxxx |xxxxxxxxxxxxx |xxxxxxxxxxxxx |            0 |            0 |            0 |xxxxxxxxxxxxx |xxxxxxxxxxxxx |xxxxxxxxxxxxx |xxxxxxxxxxxxx |            0 |            0 |            0 |xxxxxxxxxxxxx |xxxxxxxxxxxxx |xxxxxxxxxxxxx |xxxxxxxxxxxxx |            0 |            0 |            0 |xxxxxxxxxxxxx |xxxxxxxxxxxxx |xxxxxxxxxxxxx |xxxxxxxxxxxxx |            0 |            0 |            0 |xxxxxxxxxxxxx |xxxxxxxxxxxxx |xxxxxxxxxxxxx |xxxxxxxxxxxxx |            0 |            0 |            0 |xxxxxxxxxxxxx |xxxxxxxxxxxxx |xxxxxxxxxxxxx |xxxxxxxxxxxxx |            0 |            0 |            0 |
bpred_bimod.jr_non_ras_seen.PP                   0 |            0 |            0 |xxxxxxxxxxxxx |xxxxxxxxxxxxx |xxxxxxxxxxxxx |xxxxxxxxxxxxx |            0 |            0 |            0 |xxxxxxxxxxxxx |xxxxxxxxxxxxx |xxxxxxxxxxxxx |xxxxxxxxxxxxx |            0 |            0 |            0 |xxxxxxxxxxxxx |xxxxxxxxxxxxx |xxxxxxxxxxxxx |xxxxxxxxxxxxx |            0 |            0 |            0 |xxxxxxxxxxxxx |xxxxxxxxxxxxx |xxxxxxxxxxxxx |xxxxxxxxxxxxx |            0 |            0 |            0 |xxxxxxxxxxxxx |xxxxxxxxxxxxx |xxxxxxxxxxxxx |xxxxxxxxxxxxx |            0 |            0 |            0 |xxxxxxxxxxxxx |xxxxxxxxxxxxx |xxxxxxxxxxxxx |xxxxxxxxxxxxx |            0 |            0 |            0 |xxxxxxxxxxxxx |xxxxxxxxxxxxx |xxxxxxxxxxxxx |xxxxxxxxxxxxx |            0 |            0 |            0 |xxxxxxxxxxxxx |xxxxxxxxxxxxx |xxxxxxxxxxxxx |xxxxxxxxxxxxx |            0 |            0 |            0 |xxxxxxxxxxxxx |xxxxxxxxxxxxx |xxxxxxxxxxxxx |xxxxxxxxxxxxx |            0 |            0 |            0 |xxxxxxxxxxxxx |xxxxxxxxxxxxx |xxxxxxxxxxxxx |xxxxxxxxxxxxx |            0 |            0 |            0 |
bpred_bimod.bpred_addr_rate                 0.7945 |       0.7945 |       0.7945 |xxxxxxxxxxxxx |xxxxxxxxxxxxx |xxxxxxxxxxxxx |xxxxxxxxxxxxx |       0.7823 |       0.7823 |       0.7823 |xxxxxxxxxxxxx |xxxxxxxxxxxxx |xxxxxxxxxxxxx |xxxxxxxxxxxxx |       0.7922 |       0.7923 |       0.7923 |xxxxxxxxxxxxx |xxxxxxxxxxxxx |xxxxxxxxxxxxx |xxxxxxxxxxxxx |       0.7834 |       0.7834 |       0.7834 |xxxxxxxxxxxxx |xxxxxxxxxxxxx |xxxxxxxxxxxxx |xxxxxxxxxxxxx |       0.8037 |       0.8037 |       0.8037 |xxxxxxxxxxxxx |xxxxxxxxxxxxx |xxxxxxxxxxxxx |xxxxxxxxxxxxx |       0.7968 |       0.7968 |       0.7968 |xxxxxxxxxxxxx |xxxxxxxxxxxxx |xxxxxxxxxxxxx |xxxxxxxxxxxxx |       0.8128 |       0.8128 |       0.8128 |xxxxxxxxxxxxx |xxxxxxxxxxxxx |xxxxxxxxxxxxx |xxxxxxxxxxxxx |       0.7909 |       0.7909 |       0.7909 |xxxxxxxxxxxxx |xxxxxxxxxxxxx |xxxxxxxxxxxxx |xxxxxxxxxxxxx |       0.8037 |       0.8037 |       0.8037 |xxxxxxxxxxxxx |xxxxxxxxxxxxx |xxxxxxxxxxxxx |xxxxxxxxxxxxx |       0.7954 |       0.7954 |       0.7954 |xxxxxxxxxxxxx |xxxxxxxxxxxxx |xxxxxxxxxxxxx |xxxxxxxxxxxxx |       0.7978 |       0.7978 |       0.7978 |
bpred_bimod.bpred_dir_rate                  0.7955 |       0.7955 |       0.7956 |xxxxxxxxxxxxx |xxxxxxxxxxxxx |xxxxxxxxxxxxx |xxxxxxxxxxxxx |       0.7829 |       0.7829 |       0.7829 |xxxxxxxxxxxxx |xxxxxxxxxxxxx |xxxxxxxxxxxxx |xxxxxxxxxxxxx |       0.7925 |       0.7925 |       0.7925 |xxxxxxxxxxxxx |xxxxxxxxxxxxx |xxxxxxxxxxxxx |xxxxxxxxxxxxx |       0.7835 |       0.7835 |       0.7835 |xxxxxxxxxxxxx |xxxxxxxxxxxxx |xxxxxxxxxxxxx |xxxxxxxxxxxxx |       0.8038 |       0.8038 |       0.8038 |xxxxxxxxxxxxx |xxxxxxxxxxxxx |xxxxxxxxxxxxx |xxxxxxxxxxxxx |       0.7968 |       0.7968 |       0.7968 |xxxxxxxxxxxxx |xxxxxxxxxxxxx |xxxxxxxxxxxxx |xxxxxxxxxxxxx |       0.8128 |       0.8128 |       0.8128 |xxxxxxxxxxxxx |xxxxxxxxxxxxx |xxxxxxxxxxxxx |xxxxxxxxxxxxx |       0.7909 |       0.7909 |       0.7909 |xxxxxxxxxxxxx |xxxxxxxxxxxxx |xxxxxxxxxxxxx |xxxxxxxxxxxxx |       0.8037 |       0.8037 |       0.8037 |xxxxxxxxxxxxx |xxxxxxxxxxxxx |xxxxxxxxxxxxx |xxxxxxxxxxxxx |       0.7954 |       0.7954 |       0.7954 |xxxxxxxxxxxxx |xxxxxxxxxxxxx |xxxxxxxxxxxxx |xxxxxxxxxxxxx |       0.7978 |       0.7978 |       0.7978 |
bpred_bimod.bpred_jr_rate                   1.0000 |       1.0000 |       1.0000 |xxxxxxxxxxxxx |xxxxxxxxxxxxx |xxxxxxxxxxxxx |xxxxxxxxxxxxx |       1.0000 |       1.0000 |       1.0000 |xxxxxxxxxxxxx |xxxxxxxxxxxxx |xxxxxxxxxxxxx |xxxxxxxxxxxxx |       1.0000 |       1.0000 |       1.0000 |xxxxxxxxxxxxx |xxxxxxxxxxxxx |xxxxxxxxxxxxx |xxxxxxxxxxxxx |       1.0000 |       1.0000 |       1.0000 |xxxxxxxxxxxxx |xxxxxxxxxxxxx |xxxxxxxxxxxxx |xxxxxxxxxxxxx |       1.0000 |       1.0000 |       1.0000 |xxxxxxxxxxxxx |xxxxxxxxxxxxx |xxxxxxxxxxxxx |xxxxxxxxxxxxx |       1.0000 |       1.0000 |       1.0000 |xxxxxxxxxxxxx |xxxxxxxxxxxxx |xxxxxxxxxxxxx |xxxxxxxxxxxxx |       1.0000 |       1.0000 |       1.0000 |xxxxxxxxxxxxx |xxxxxxxxxxxxx |xxxxxxxxxxxxx |xxxxxxxxxxxxx |       1.0000 |       1.0000 |       1.0000 |xxxxxxxxxxxxx |xxxxxxxxxxxxx |xxxxxxxxxxxxx |xxxxxxxxxxxxx |       1.0000 |       1.0000 |       1.0000 |xxxxxxxxxxxxx |xxxxxxxxxxxxx |xxxxxxxxxxxxx |xxxxxxxxxxxxx |       1.0000 |       1.0000 |       1.0000 |xxxxxxxxxxxxx |xxxxxxxxxxxxx |xxxxxxxxxxxxx |xxxxxxxxxxxxx |       1.0000 |       1.0000 |       1.0000 |
bpred_bimod.bpred_jr_non_ras_rate.PP       <error: |      <error: |      <error: |xxxxxxxxxxxxx |xxxxxxxxxxxxx |xxxxxxxxxxxxx |xxxxxxxxxxxxx |      <error: |      <error: |      <error: |xxxxxxxxxxxxx |xxxxxxxxxxxxx |xxxxxxxxxxxxx |xxxxxxxxxxxxx |      <error: |      <error: |      <error: |xxxxxxxxxxxxx |xxxxxxxxxxxxx |xxxxxxxxxxxxx |xxxxxxxxxxxxx |      <error: |      <error: |      <error: |xxxxxxxxxxxxx |xxxxxxxxxxxxx |xxxxxxxxxxxxx |xxxxxxxxxxxxx |      <error: |      <error: |      <error: |xxxxxxxxxxxxx |xxxxxxxxxxxxx |xxxxxxxxxxxxx |xxxxxxxxxxxxx |      <error: |      <error: |      <error: |xxxxxxxxxxxxx |xxxxxxxxxxxxx |xxxxxxxxxxxxx |xxxxxxxxxxxxx |      <error: |      <error: |      <error: |xxxxxxxxxxxxx |xxxxxxxxxxxxx |xxxxxxxxxxxxx |xxxxxxxxxxxxx |      <error: |      <error: |      <error: |xxxxxxxxxxxxx |xxxxxxxxxxxxx |xxxxxxxxxxxxx |xxxxxxxxxxxxx |      <error: |      <error: |      <error: |xxxxxxxxxxxxx |xxxxxxxxxxxxx |xxxxxxxxxxxxx |xxxxxxxxxxxxx |      <error: |      <error: |      <error: |xxxxxxxxxxxxx |xxxxxxxxxxxxx |xxxxxxxxxxxxx |xxxxxxxxxxxxx |      <error: |      <error: |      <error: |
bpred_bimod.retstack_pushes                     66 |           66 |           66 |xxxxxxxxxxxxx |xxxxxxxxxxxxx |xxxxxxxxxxxxx |xxxxxxxxxxxxx |           66 |           66 |           66 |xxxxxxxxxxxxx |xxxxxxxxxxxxx |xxxxxxxxxxxxx |xxxxxxxxxxxxx |           66 |           66 |           66 |xxxxxxxxxxxxx |xxxxxxxxxxxxx |xxxxxxxxxxxxx |xxxxxxxxxxxxx |           66 |           66 |           66 |xxxxxxxxxxxxx |xxxxxxxxxxxxx |xxxxxxxxxxxxx |xxxxxxxxxxxxx |           66 |           66 |           66 |xxxxxxxxxxxxx |xxxxxxxxxxxxx |xxxxxxxxxxxxx |xxxxxxxxxxxxx |           66 |           66 |           66 |xxxxxxxxxxxxx |xxxxxxxxxxxxx |xxxxxxxxxxxxx |xxxxxxxxxxxxx |           66 |           66 |           66 |xxxxxxxxxxxxx |xxxxxxxxxxxxx |xxxxxxxxxxxxx |xxxxxxxxxxxxx |           66 |           66 |           66 |xxxxxxxxxxxxx |xxxxxxxxxxxxx |xxxxxxxxxxxxx |xxxxxxxxxxxxx |           66 |           66 |           66 |xxxxxxxxxxxxx |xxxxxxxxxxxxx |xxxxxxxxxxxxx |xxxxxxxxxxxxx |           66 |           66 |           66 |xxxxxxxxxxxxx |xxxxxxxxxxxxx |xxxxxxxxxxxxx |xxxxxxxxxxxxx |           66 |           66 |           66 |
bpred_bimod.retstack_pops                       64 |           64 |           64 |xxxxxxxxxxxxx |xxxxxxxxxxxxx |xxxxxxxxxxxxx |xxxxxxxxxxxxx |           64 |           64 |           64 |xxxxxxxxxxxxx |xxxxxxxxxxxxx |xxxxxxxxxxxxx |xxxxxxxxxxxxx |           64 |           64 |           64 |xxxxxxxxxxxxx |xxxxxxxxxxxxx |xxxxxxxxxxxxx |xxxxxxxxxxxxx |           64 |           64 |           64 |xxxxxxxxxxxxx |xxxxxxxxxxxxx |xxxxxxxxxxxxx |xxxxxxxxxxxxx |           64 |           64 |           64 |xxxxxxxxxxxxx |xxxxxxxxxxxxx |xxxxxxxxxxxxx |xxxxxxxxxxxxx |           64 |           64 |           64 |xxxxxxxxxxxxx |xxxxxxxxxxxxx |xxxxxxxxxxxxx |xxxxxxxxxxxxx |           64 |           64 |           64 |xxxxxxxxxxxxx |xxxxxxxxxxxxx |xxxxxxxxxxxxx |xxxxxxxxxxxxx |           64 |           64 |           64 |xxxxxxxxxxxxx |xxxxxxxxxxxxx |xxxxxxxxxxxxx |xxxxxxxxxxxxx |           64 |           64 |           64 |xxxxxxxxxxxxx |xxxxxxxxxxxxx |xxxxxxxxxxxxx |xxxxxxxxxxxxx |           64 |           64 |           64 |xxxxxxxxxxxxx |xxxxxxxxxxxxx |xxxxxxxxxxxxx |xxxxxxxxxxxxx |           64 |           64 |           64 |
bpred_bimod.used_ras.PP                         64 |           64 |           64 |xxxxxxxxxxxxx |xxxxxxxxxxxxx |xxxxxxxxxxxxx |xxxxxxxxxxxxx |           64 |           64 |           64 |xxxxxxxxxxxxx |xxxxxxxxxxxxx |xxxxxxxxxxxxx |xxxxxxxxxxxxx |           64 |           64 |           64 |xxxxxxxxxxxxx |xxxxxxxxxxxxx |xxxxxxxxxxxxx |xxxxxxxxxxxxx |           64 |           64 |           64 |xxxxxxxxxxxxx |xxxxxxxxxxxxx |xxxxxxxxxxxxx |xxxxxxxxxxxxx |           64 |           64 |           64 |xxxxxxxxxxxxx |xxxxxxxxxxxxx |xxxxxxxxxxxxx |xxxxxxxxxxxxx |           64 |           64 |           64 |xxxxxxxxxxxxx |xxxxxxxxxxxxx |xxxxxxxxxxxxx |xxxxxxxxxxxxx |           64 |           64 |           64 |xxxxxxxxxxxxx |xxxxxxxxxxxxx |xxxxxxxxxxxxx |xxxxxxxxxxxxx |           64 |           64 |           64 |xxxxxxxxxxxxx |xxxxxxxxxxxxx |xxxxxxxxxxxxx |xxxxxxxxxxxxx |           64 |           64 |           64 |xxxxxxxxxxxxx |xxxxxxxxxxxxx |xxxxxxxxxxxxx |xxxxxxxxxxxxx |           64 |           64 |           64 |xxxxxxxxxxxxx |xxxxxxxxxxxxx |xxxxxxxxxxxxx |xxxxxxxxxxxxx |           64 |           64 |           64 |
bpred_bimod.ras_hits.PP                         64 |           64 |           64 |xxxxxxxxxxxxx |xxxxxxxxxxxxx |xxxxxxxxxxxxx |xxxxxxxxxxxxx |           64 |           64 |           64 |xxxxxxxxxxxxx |xxxxxxxxxxxxx |xxxxxxxxxxxxx |xxxxxxxxxxxxx |           64 |           64 |           64 |xxxxxxxxxxxxx |xxxxxxxxxxxxx |xxxxxxxxxxxxx |xxxxxxxxxxxxx |           64 |           64 |           64 |xxxxxxxxxxxxx |xxxxxxxxxxxxx |xxxxxxxxxxxxx |xxxxxxxxxxxxx |           64 |           64 |           64 |xxxxxxxxxxxxx |xxxxxxxxxxxxx |xxxxxxxxxxxxx |xxxxxxxxxxxxx |           64 |           64 |           64 |xxxxxxxxxxxxx |xxxxxxxxxxxxx |xxxxxxxxxxxxx |xxxxxxxxxxxxx |           64 |           64 |           64 |xxxxxxxxxxxxx |xxxxxxxxxxxxx |xxxxxxxxxxxxx |xxxxxxxxxxxxx |           64 |           64 |           64 |xxxxxxxxxxxxx |xxxxxxxxxxxxx |xxxxxxxxxxxxx |xxxxxxxxxxxxx |           64 |           64 |           64 |xxxxxxxxxxxxx |xxxxxxxxxxxxx |xxxxxxxxxxxxx |xxxxxxxxxxxxx |           64 |           64 |           64 |xxxxxxxxxxxxx |xxxxxxxxxxxxx |xxxxxxxxxxxxx |xxxxxxxxxxxxx |           64 |           64 |           64 |
bpred_bimod.ras_rate.PP                     1.0000 |       1.0000 |       1.0000 |xxxxxxxxxxxxx |xxxxxxxxxxxxx |xxxxxxxxxxxxx |xxxxxxxxxxxxx |       1.0000 |       1.0000 |       1.0000 |xxxxxxxxxxxxx |xxxxxxxxxxxxx |xxxxxxxxxxxxx |xxxxxxxxxxxxx |       1.0000 |       1.0000 |       1.0000 |xxxxxxxxxxxxx |xxxxxxxxxxxxx |xxxxxxxxxxxxx |xxxxxxxxxxxxx |       1.0000 |       1.0000 |       1.0000 |xxxxxxxxxxxxx |xxxxxxxxxxxxx |xxxxxxxxxxxxx |xxxxxxxxxxxxx |       1.0000 |       1.0000 |       1.0000 |xxxxxxxxxxxxx |xxxxxxxxxxxxx |xxxxxxxxxxxxx |xxxxxxxxxxxxx |       1.0000 |       1.0000 |       1.0000 |xxxxxxxxxxxxx |xxxxxxxxxxxxx |xxxxxxxxxxxxx |xxxxxxxxxxxxx |       1.0000 |       1.0000 |       1.0000 |xxxxxxxxxxxxx |xxxxxxxxxxxxx |xxxxxxxxxxxxx |xxxxxxxxxxxxx |       1.0000 |       1.0000 |       1.0000 |xxxxxxxxxxxxx |xxxxxxxxxxxxx |xxxxxxxxxxxxx |xxxxxxxxxxxxx |       1.0000 |       1.0000 |       1.0000 |xxxxxxxxxxxxx |xxxxxxxxxxxxx |xxxxxxxxxxxxx |xxxxxxxxxxxxx |       1.0000 |       1.0000 |       1.0000 |xxxxxxxxxxxxx |xxxxxxxxxxxxx |xxxxxxxxxxxxx |xxxxxxxxxxxxx |       1.0000 |       1.0000 |       1.0000 |
bpred_2lev.lookups                   xxxxxxxxxxxxx |xxxxxxxxxxxxx |xxxxxxxxxxxxx |       104518 |       104518 |       104518 |       104518 |xxxxxxxxxxxxx |xxxxxxxxxxxxx |xxxxxxxxxxxxx |       212042 |       212042 |       212042 |       212042 |xxxxxxxxxxxxx |xxxxxxxxxxxxx |xxxxxxxxxxxxx |       476388 |       476388 |       476388 |       476388 |xxxxxxxxxxxxx |xxxxxxxxxxxxx |xxxxxxxxxxxxx |       975750 |       975750 |       975750 |       975750 |xxxxxxxxxxxxx |xxxxxxxxxxxxx |xxxxxxxxxxxxx |      2239964 |      2239964 |      2239964 |      2239964 |xxxxxxxxxxxxx |xxxxxxxxxxxxx |xxxxxxxxxxxxx |      4602730 |      4602730 |      4602730 |      4602730 |xxxxxxxxxxxxx |xxxxxxxxxxxxx |xxxxxxxxxxxxx |     10395580 |     10395580 |     10395580 |     10395580 |xxxxxxxxxxxxx |xxxxxxxxxxxxx |xxxxxxxxxxxxx |     20262824 |     20262824 |     20262824 |     20262824 |xxxxxxxxxxxxx |xxxxxxxxxxxxx |xxxxxxxxxxxxx |     44311566 |     44311566 |     44311566 |     44311566 |xxxxxxxxxxxxx |xxxxxxxxxxxxx |xxxxxxxxxxxxx |     91107450 |     91107450 |     91107450 |     91107450 |xxxxxxxxxxxxx |xxxxxxxxxxxxx |xxxxxxxxxxxxx |    193429974 |    193429974 |    193429974 |    193429974 |
[...]
bpred_2lev.retstack_pushes           xxxxxxxxxxxxx |xxxxxxxxxxxxx |xxxxxxxxxxxxx |           66 |           66 |           66 |           66 |xxxxxxxxxxxxx |xxxxxxxxxxxxx |xxxxxxxxxxxxx |           66 |           66 |           66 |           66 |xxxxxxxxxxxxx |xxxxxxxxxxxxx |xxxxxxxxxxxxx |           66 |           66 |           66 |           66 |xxxxxxxxxxxxx |xxxxxxxxxxxxx |xxxxxxxxxxxxx |           66 |           66 |           66 |           66 |xxxxxxxxxxxxx |xxxxxxxxxxxxx |xxxxxxxxxxxxx |           66 |           66 |           66 |           66 |xxxxxxxxxxxxx |xxxxxxxxxxxxx |xxxxxxxxxxxxx |           66 |           66 |           66 |           66 |xxxxxxxxxxxxx |xxxxxxxxxxxxx |xxxxxxxxxxxxx |           66 |           66 |           66 |           66 |xxxxxxxxxxxxx |xxxxxxxxxxxxx |xxxxxxxxxxxxx |           66 |           66 |           66 |           66 |xxxxxxxxxxxxx |xxxxxxxxxxxxx |xxxxxxxxxxxxx |           66 |           66 |           66 |           66 |xxxxxxxxxxxxx |xxxxxxxxxxxxx |xxxxxxxxxxxxx |           66 |           66 |           66 |           66 |xxxxxxxxxxxxx |xxxxxxxxxxxxx |xxxxxxxxxxxxx |           66 |           66 |           66 |           66 |
bpred_2lev.retstack_pops             xxxxxxxxxxxxx |xxxxxxxxxxxxx |xxxxxxxxxxxxx |           64 |           64 |           64 |           64 |xxxxxxxxxxxxx |xxxxxxxxxxxxx |xxxxxxxxxxxxx |           64 |           64 |           64 |           64 |xxxxxxxxxxxxx |xxxxxxxxxxxxx |xxxxxxxxxxxxx |           64 |           64 |           64 |           64 |xxxxxxxxxxxxx |xxxxxxxxxxxxx |xxxxxxxxxxxxx |           64 |           64 |           64 |           64 |xxxxxxxxxxxxx |xxxxxxxxxxxxx |xxxxxxxxxxxxx |           64 |           64 |           64 |           64 |xxxxxxxxxxxxx |xxxxxxxxxxxxx |xxxxxxxxxxxxx |           64 |           64 |           64 |           64 |xxxxxxxxxxxxx |xxxxxxxxxxxxx |xxxxxxxxxxxxx |           64 |           64 |           64 |           64 |xxxxxxxxxxxxx |xxxxxxxxxxxxx |xxxxxxxxxxxxx |           64 |           64 |           64 |           64 |xxxxxxxxxxxxx |xxxxxxxxxxxxx |xxxxxxxxxxxxx |           64 |           64 |           64 |           64 |xxxxxxxxxxxxx |xxxxxxxxxxxxx |xxxxxxxxxxxxx |           64 |           64 |           64 |           64 |xxxxxxxxxxxxx |xxxxxxxxxxxxx |xxxxxxxxxxxxx |           64 |           64 |           64 |           64 |
bpred_2lev.used_ras.PP               xxxxxxxxxxxxx |xxxxxxxxxxxxx |xxxxxxxxxxxxx |           64 |           64 |           64 |           64 |xxxxxxxxxxxxx |xxxxxxxxxxxxx |xxxxxxxxxxxxx |           64 |           64 |           64 |           64 |xxxxxxxxxxxxx |xxxxxxxxxxxxx |xxxxxxxxxxxxx |           64 |           64 |           64 |           64 |xxxxxxxxxxxxx |xxxxxxxxxxxxx |xxxxxxxxxxxxx |           64 |           64 |           64 |           64 |xxxxxxxxxxxxx |xxxxxxxxxxxxx |xxxxxxxxxxxxx |           64 |           64 |           64 |           64 |xxxxxxxxxxxxx |xxxxxxxxxxxxx |xxxxxxxxxxxxx |           64 |           64 |           64 |           64 |xxxxxxxxxxxxx |xxxxxxxxxxxxx |xxxxxxxxxxxxx |           64 |           64 |           64 |           64 |xxxxxxxxxxxxx |xxxxxxxxxxxxx |xxxxxxxxxxxxx |           64 |           64 |           64 |           64 |xxxxxxxxxxxxx |xxxxxxxxxxxxx |xxxxxxxxxxxxx |           64 |           64 |           64 |           64 |xxxxxxxxxxxxx |xxxxxxxxxxxxx |xxxxxxxxxxxxx |           64 |           64 |           64 |           64 |xxxxxxxxxxxxx |xxxxxxxxxxxxx |xxxxxxxxxxxxx |           64 |           64 |           64 |           64 |
bpred_2lev.ras_hits.PP               xxxxxxxxxxxxx |xxxxxxxxxxxxx |xxxxxxxxxxxxx |           64 |           64 |           64 |           64 |xxxxxxxxxxxxx |xxxxxxxxxxxxx |xxxxxxxxxxxxx |           64 |           64 |           64 |           64 |xxxxxxxxxxxxx |xxxxxxxxxxxxx |xxxxxxxxxxxxx |           64 |           64 |           64 |           64 |xxxxxxxxxxxxx |xxxxxxxxxxxxx |xxxxxxxxxxxxx |           64 |           64 |           64 |           64 |xxxxxxxxxxxxx |xxxxxxxxxxxxx |xxxxxxxxxxxxx |           64 |           64 |           64 |           64 |xxxxxxxxxxxxx |xxxxxxxxxxxxx |xxxxxxxxxxxxx |           64 |           64 |           64 |           64 |xxxxxxxxxxxxx |xxxxxxxxxxxxx |xxxxxxxxxxxxx |           64 |           64 |           64 |           64 |xxxxxxxxxxxxx |xxxxxxxxxxxxx |xxxxxxxxxxxxx |           64 |           64 |           64 |           64 |xxxxxxxxxxxxx |xxxxxxxxxxxxx |xxxxxxxxxxxxx |           64 |           64 |           64 |           64 |xxxxxxxxxxxxx |xxxxxxxxxxxxx |xxxxxxxxxxxxx |           64 |           64 |           64 |           64 |xxxxxxxxxxxxx |xxxxxxxxxxxxx |xxxxxxxxxxxxx |           64 |           64 |           64 |           64 |
bpred_2lev.ras_rate.PP               xxxxxxxxxxxxx |xxxxxxxxxxxxx |xxxxxxxxxxxxx |       1.0000 |       1.0000 |       1.0000 |       1.0000 |xxxxxxxxxxxxx |xxxxxxxxxxxxx |xxxxxxxxxxxxx |       1.0000 |       1.0000 |       1.0000 |       1.0000 |xxxxxxxxxxxxx |xxxxxxxxxxxxx |xxxxxxxxxxxxx |       1.0000 |       1.0000 |       1.0000 |       1.0000 |xxxxxxxxxxxxx |xxxxxxxxxxxxx |xxxxxxxxxxxxx |       1.0000 |       1.0000 |       1.0000 |       1.0000 |xxxxxxxxxxxxx |xxxxxxxxxxxxx |xxxxxxxxxxxxx |       1.0000 |       1.0000 |       1.0000 |       1.0000 |xxxxxxxxxxxxx |xxxxxxxxxxxxx |xxxxxxxxxxxxx |       1.0000 |       1.0000 |       1.0000 |       1.0000 |xxxxxxxxxxxxx |xxxxxxxxxxxxx |xxxxxxxxxxxxx |       1.0000 |       1.0000 |       1.0000 |       1.0000 |xxxxxxxxxxxxx |xxxxxxxxxxxxx |xxxxxxxxxxxxx |       1.0000 |       1.0000 |       1.0000 |       1.0000 |xxxxxxxxxxxxx |xxxxxxxxxxxxx |xxxxxxxxxxxxx |       1.0000 |       1.0000 |       1.0000 |       1.0000 |xxxxxxxxxxxxx |xxxxxxxxxxxxx |xxxxxxxxxxxxx |       1.0000 |       1.0000 |       1.0000 |       1.0000 |xxxxxxxxxxxxx |xxxxxxxxxxxxx |xxxxxxxxxxxxx |       1.0000 |       1.0000 |       1.0000 |       1.0000 |

Command list: 
	sslittle-na-sstrix-gcc -Wall -O3 -funroll-loops -finline-functions  -DRANDOM_SIZE=4096 -DOFFSET=3 -DSORT=base_quicksort1 sorts/base_quicksort1592898048.c simpleMain.c -o base_quicksort11849176554
	sim-cache -cache:dl1 dl1:256:32:1:l -cache:dl2 dl2:131072:32:1:l -cache:il1 il1:256:32:1:l -cache:il2 dl2 base_quicksort11849176554
	sim-cache -cache:dl1 dl1:256:32:1:l -cache:dl2 dl2:65536:32:1:l -cache:il1 il1:256:32:1:l -cache:il2 dl2 base_quicksort11849176554
	sim-cache -cache:dl1 dl1:1:32:256:l -cache:dl2 dl2:1:32:131072:l -cache:il1 il1:1:32:256:l -cache:il2 dl2 base_quicksort11849176554
	sim-cache -cache:dl1 dl1:1:32:256:l -cache:dl2 dl2:1:32:65536:l -cache:il1 il1:1:32:256:l -cache:il2 dl2 base_quicksort11849176554
	sim-bpred -bpred bimod -bpred:bimod 512 base_quicksort11849176554
	sim-bpred -bpred bimod -bpred:bimod 1024 base_quicksort11849176554
	sim-bpred -bpred bimod -bpred:bimod 2048 base_quicksort11849176554
	sim-bpred -bpred 2lev -bpred:2lev 1 512 10 1 base_quicksort11849176554
	sim-bpred -bpred 2lev -bpred:2lev 1 1024 10 1 base_quicksort11849176554
	sim-bpred -bpred 2lev -bpred:2lev 1 2048 10 1 base_quicksort11849176554
	sim-bpred -bpred 2lev -bpred:2lev 1 4096 10 1 base_quicksort11849176554
	sslittle-na-sstrix-gcc -Wall -O3 -funroll-loops -finline-functions  -DRANDOM_SIZE=8192 -DOFFSET=3 -DSORT=base_quicksort1 sorts/base_quicksort1592898048.c simpleMain.c -o base_quicksort11849176554
	sim-cache -cache:dl1 dl1:256:32:1:l -cache:dl2 dl2:131072:32:1:l -cache:il1 il1:256:32:1:l -cache:il2 dl2 base_quicksort11849176554
	sim-cache -cache:dl1 dl1:256:32:1:l -cache:dl2 dl2:65536:32:1:l -cache:il1 il1:256:32:1:l -cache:il2 dl2 base_quicksort11849176554
	sim-cache -cache:dl1 dl1:1:32:256:l -cache:dl2 dl2:1:32:131072:l -cache:il1 il1:1:32:256:l -cache:il2 dl2 base_quicksort11849176554
	sim-cache -cache:dl1 dl1:1:32:256:l -cache:dl2 dl2:1:32:65536:l -cache:il1 il1:1:32:256:l -cache:il2 dl2 base_quicksort11849176554
	sim-bpred -bpred bimod -bpred:bimod 512 base_quicksort11849176554
	sim-bpred -bpred bimod -bpred:bimod 1024 base_quicksort11849176554
	sim-bpred -bpred bimod -bpred:bimod 2048 base_quicksort11849176554
	sim-bpred -bpred 2lev -bpred:2lev 1 512 10 1 base_quicksort11849176554
	sim-bpred -bpred 2lev -bpred:2lev 1 1024 10 1 base_quicksort11849176554
	sim-bpred -bpred 2lev -bpred:2lev 1 2048 10 1 base_quicksort11849176554
	sim-bpred -bpred 2lev -bpred:2lev 1 4096 10 1 base_quicksort11849176554
	sslittle-na-sstrix-gcc -Wall -O3 -funroll-loops -finline-functions  -DRANDOM_SIZE=16384 -DOFFSET=3 -DSORT=base_quicksort1 sorts/base_quicksort1592898048.c simpleMain.c -o base_quicksort11849176554
	sim-cache -cache:dl1 dl1:256:32:1:l -cache:dl2 dl2:131072:32:1:l -cache:il1 il1:256:32:1:l -cache:il2 dl2 base_quicksort11849176554
	sim-cache -cache:dl1 dl1:256:32:1:l -cache:dl2 dl2:65536:32:1:l -cache:il1 il1:256:32:1:l -cache:il2 dl2 base_quicksort11849176554
	sim-cache -cache:dl1 dl1:1:32:256:l -cache:dl2 dl2:1:32:131072:l -cache:il1 il1:1:32:256:l -cache:il2 dl2 base_quicksort11849176554
	sim-cache -cache:dl1 dl1:1:32:256:l -cache:dl2 dl2:1:32:65536:l -cache:il1 il1:1:32:256:l -cache:il2 dl2 base_quicksort11849176554
	sim-bpred -bpred bimod -bpred:bimod 512 base_quicksort11849176554
	sim-bpred -bpred bimod -bpred:bimod 1024 base_quicksort11849176554
	sim-bpred -bpred bimod -bpred:bimod 2048 base_quicksort11849176554
	sim-bpred -bpred 2lev -bpred:2lev 1 512 10 1 base_quicksort11849176554
	sim-bpred -bpred 2lev -bpred:2lev 1 1024 10 1 base_quicksort11849176554
	sim-bpred -bpred 2lev -bpred:2lev 1 2048 10 1 base_quicksort11849176554
	sim-bpred -bpred 2lev -bpred:2lev 1 4096 10 1 base_quicksort11849176554
	sslittle-na-sstrix-gcc -Wall -O3 -funroll-loops -finline-functions  -DRANDOM_SIZE=32768 -DOFFSET=3 -DSORT=base_quicksort1 sorts/base_quicksort1592898048.c simpleMain.c -o base_quicksort11849176554
	sim-cache -cache:dl1 dl1:256:32:1:l -cache:dl2 dl2:131072:32:1:l -cache:il1 il1:256:32:1:l -cache:il2 dl2 base_quicksort11849176554
	sim-cache -cache:dl1 dl1:256:32:1:l -cache:dl2 dl2:65536:32:1:l -cache:il1 il1:256:32:1:l -cache:il2 dl2 base_quicksort11849176554
	sim-cache -cache:dl1 dl1:1:32:256:l -cache:dl2 dl2:1:32:131072:l -cache:il1 il1:1:32:256:l -cache:il2 dl2 base_quicksort11849176554
	sim-cache -cache:dl1 dl1:1:32:256:l -cache:dl2 dl2:1:32:65536:l -cache:il1 il1:1:32:256:l -cache:il2 dl2 base_quicksort11849176554
	sim-bpred -bpred bimod -bpred:bimod 512 base_quicksort11849176554
	sim-bpred -bpred bimod -bpred:bimod 1024 base_quicksort11849176554
	sim-bpred -bpred bimod -bpred:bimod 2048 base_quicksort11849176554
	sim-bpred -bpred 2lev -bpred:2lev 1 512 10 1 base_quicksort11849176554
	sim-bpred -bpred 2lev -bpred:2lev 1 1024 10 1 base_quicksort11849176554
	sim-bpred -bpred 2lev -bpred:2lev 1 2048 10 1 base_quicksort11849176554
	sim-bpred -bpred 2lev -bpred:2lev 1 4096 10 1 base_quicksort11849176554
	sslittle-na-sstrix-gcc -Wall -O3 -funroll-loops -finline-functions  -DRANDOM_SIZE=65536 -DOFFSET=3 -DSORT=base_quicksort1 sorts/base_quicksort1592898048.c simpleMain.c -o base_quicksort11849176554
	sim-cache -cache:dl1 dl1:256:32:1:l -cache:dl2 dl2:131072:32:1:l -cache:il1 il1:256:32:1:l -cache:il2 dl2 base_quicksort11849176554
	sim-cache -cache:dl1 dl1:256:32:1:l -cache:dl2 dl2:65536:32:1:l -cache:il1 il1:256:32:1:l -cache:il2 dl2 base_quicksort11849176554
	sim-cache -cache:dl1 dl1:1:32:256:l -cache:dl2 dl2:1:32:131072:l -cache:il1 il1:1:32:256:l -cache:il2 dl2 base_quicksort11849176554
	sim-cache -cache:dl1 dl1:1:32:256:l -cache:dl2 dl2:1:32:65536:l -cache:il1 il1:1:32:256:l -cache:il2 dl2 base_quicksort11849176554
	sim-bpred -bpred bimod -bpred:bimod 512 base_quicksort11849176554
	sim-bpred -bpred bimod -bpred:bimod 1024 base_quicksort11849176554
	sim-bpred -bpred bimod -bpred:bimod 2048 base_quicksort11849176554
	sim-bpred -bpred 2lev -bpred:2lev 1 512 10 1 base_quicksort11849176554
	sim-bpred -bpred 2lev -bpred:2lev 1 1024 10 1 base_quicksort11849176554
	sim-bpred -bpred 2lev -bpred:2lev 1 2048 10 1 base_quicksort11849176554
	sim-bpred -bpred 2lev -bpred:2lev 1 4096 10 1 base_quicksort11849176554
	sslittle-na-sstrix-gcc -Wall -O3 -funroll-loops -finline-functions  -DRANDOM_SIZE=131072 -DOFFSET=3 -DSORT=base_quicksort1 sorts/base_quicksort1592898048.c simpleMain.c -o base_quicksort11849176554
	sim-cache -cache:dl1 dl1:256:32:1:l -cache:dl2 dl2:131072:32:1:l -cache:il1 il1:256:32:1:l -cache:il2 dl2 base_quicksort11849176554
	sim-cache -cache:dl1 dl1:256:32:1:l -cache:dl2 dl2:65536:32:1:l -cache:il1 il1:256:32:1:l -cache:il2 dl2 base_quicksort11849176554
	sim-cache -cache:dl1 dl1:1:32:256:l -cache:dl2 dl2:1:32:131072:l -cache:il1 il1:1:32:256:l -cache:il2 dl2 base_quicksort11849176554
	sim-cache -cache:dl1 dl1:1:32:256:l -cache:dl2 dl2:1:32:65536:l -cache:il1 il1:1:32:256:l -cache:il2 dl2 base_quicksort11849176554
	sim-bpred -bpred bimod -bpred:bimod 512 base_quicksort11849176554
	sim-bpred -bpred bimod -bpred:bimod 1024 base_quicksort11849176554
	sim-bpred -bpred bimod -bpred:bimod 2048 base_quicksort11849176554
	sim-bpred -bpred 2lev -bpred:2lev 1 512 10 1 base_quicksort11849176554
	sim-bpred -bpred 2lev -bpred:2lev 1 1024 10 1 base_quicksort11849176554
	sim-bpred -bpred 2lev -bpred:2lev 1 2048 10 1 base_quicksort11849176554
	sim-bpred -bpred 2lev -bpred:2lev 1 4096 10 1 base_quicksort11849176554
	sslittle-na-sstrix-gcc -Wall -O3 -funroll-loops -finline-functions  -DRANDOM_SIZE=262144 -DOFFSET=3 -DSORT=base_quicksort1 sorts/base_quicksort1592898048.c simpleMain.c -o base_quicksort11849176554
	sim-cache -cache:dl1 dl1:256:32:1:l -cache:dl2 dl2:131072:32:1:l -cache:il1 il1:256:32:1:l -cache:il2 dl2 base_quicksort11849176554
	sim-cache -cache:dl1 dl1:256:32:1:l -cache:dl2 dl2:65536:32:1:l -cache:il1 il1:256:32:1:l -cache:il2 dl2 base_quicksort11849176554
	sim-cache -cache:dl1 dl1:1:32:256:l -cache:dl2 dl2:1:32:131072:l -cache:il1 il1:1:32:256:l -cache:il2 dl2 base_quicksort11849176554
	sim-cache -cache:dl1 dl1:1:32:256:l -cache:dl2 dl2:1:32:65536:l -cache:il1 il1:1:32:256:l -cache:il2 dl2 base_quicksort11849176554
	sim-bpred -bpred bimod -bpred:bimod 512 base_quicksort11849176554
	sim-bpred -bpred bimod -bpred:bimod 1024 base_quicksort11849176554
	sim-bpred -bpred bimod -bpred:bimod 2048 base_quicksort11849176554
	sim-bpred -bpred 2lev -bpred:2lev 1 512 10 1 base_quicksort11849176554
	sim-bpred -bpred 2lev -bpred:2lev 1 1024 10 1 base_quicksort11849176554
	sim-bpred -bpred 2lev -bpred:2lev 1 2048 10 1 base_quicksort11849176554
	sim-bpred -bpred 2lev -bpred:2lev 1 4096 10 1 base_quicksort11849176554
	sslittle-na-sstrix-gcc -Wall -O3 -funroll-loops -finline-functions  -DRANDOM_SIZE=524288 -DOFFSET=3 -DSORT=base_quicksort1 sorts/base_quicksort1592898048.c simpleMain.c -o base_quicksort11849176554
	sim-cache -cache:dl1 dl1:256:32:1:l -cache:dl2 dl2:131072:32:1:l -cache:il1 il1:256:32:1:l -cache:il2 dl2 base_quicksort11849176554
	sim-cache -cache:dl1 dl1:256:32:1:l -cache:dl2 dl2:65536:32:1:l -cache:il1 il1:256:32:1:l -cache:il2 dl2 base_quicksort11849176554
	sim-cache -cache:dl1 dl1:1:32:256:l -cache:dl2 dl2:1:32:131072:l -cache:il1 il1:1:32:256:l -cache:il2 dl2 base_quicksort11849176554
	sim-cache -cache:dl1 dl1:1:32:256:l -cache:dl2 dl2:1:32:65536:l -cache:il1 il1:1:32:256:l -cache:il2 dl2 base_quicksort11849176554
	sim-bpred -bpred bimod -bpred:bimod 512 base_quicksort11849176554
	sim-bpred -bpred bimod -bpred:bimod 1024 base_quicksort11849176554
	sim-bpred -bpred bimod -bpred:bimod 2048 base_quicksort11849176554
	sim-bpred -bpred 2lev -bpred:2lev 1 512 10 1 base_quicksort11849176554
	sim-bpred -bpred 2lev -bpred:2lev 1 1024 10 1 base_quicksort11849176554
	sim-bpred -bpred 2lev -bpred:2lev 1 2048 10 1 base_quicksort11849176554
	sim-bpred -bpred 2lev -bpred:2lev 1 4096 10 1 base_quicksort11849176554
	sslittle-na-sstrix-gcc -Wall -O3 -funroll-loops -finline-functions  -DRANDOM_SIZE=1048576 -DOFFSET=3 -DSORT=base_quicksort1 sorts/base_quicksort1592898048.c simpleMain.c -o base_quicksort11849176554
	sim-cache -cache:dl1 dl1:256:32:1:l -cache:dl2 dl2:131072:32:1:l -cache:il1 il1:256:32:1:l -cache:il2 dl2 base_quicksort11849176554
	sim-cache -cache:dl1 dl1:256:32:1:l -cache:dl2 dl2:65536:32:1:l -cache:il1 il1:256:32:1:l -cache:il2 dl2 base_quicksort11849176554
	sim-cache -cache:dl1 dl1:1:32:256:l -cache:dl2 dl2:1:32:131072:l -cache:il1 il1:1:32:256:l -cache:il2 dl2 base_quicksort11849176554
	sim-cache -cache:dl1 dl1:1:32:256:l -cache:dl2 dl2:1:32:65536:l -cache:il1 il1:1:32:256:l -cache:il2 dl2 base_quicksort11849176554
	sim-bpred -bpred bimod -bpred:bimod 512 base_quicksort11849176554
	sim-bpred -bpred bimod -bpred:bimod 1024 base_quicksort11849176554
	sim-bpred -bpred bimod -bpred:bimod 2048 base_quicksort11849176554
	sim-bpred -bpred 2lev -bpred:2lev 1 512 10 1 base_quicksort11849176554
	sim-bpred -bpred 2lev -bpred:2lev 1 1024 10 1 base_quicksort11849176554
	sim-bpred -bpred 2lev -bpred:2lev 1 2048 10 1 base_quicksort11849176554
	sim-bpred -bpred 2lev -bpred:2lev 1 4096 10 1 base_quicksort11849176554
	sslittle-na-sstrix-gcc -Wall -O3 -funroll-loops -finline-functions  -DRANDOM_SIZE=2097152 -DOFFSET=3 -DSORT=base_quicksort1 sorts/base_quicksort1592898048.c simpleMain.c -o base_quicksort11849176554
	sim-cache -cache:dl1 dl1:256:32:1:l -cache:dl2 dl2:131072:32:1:l -cache:il1 il1:256:32:1:l -cache:il2 dl2 base_quicksort11849176554
	sim-cache -cache:dl1 dl1:256:32:1:l -cache:dl2 dl2:65536:32:1:l -cache:il1 il1:256:32:1:l -cache:il2 dl2 base_quicksort11849176554
	sim-cache -cache:dl1 dl1:1:32:256:l -cache:dl2 dl2:1:32:131072:l -cache:il1 il1:1:32:256:l -cache:il2 dl2 base_quicksort11849176554
	sim-cache -cache:dl1 dl1:1:32:256:l -cache:dl2 dl2:1:32:65536:l -cache:il1 il1:1:32:256:l -cache:il2 dl2 base_quicksort11849176554
	sim-bpred -bpred bimod -bpred:bimod 512 base_quicksort11849176554
	sim-bpred -bpred bimod -bpred:bimod 1024 base_quicksort11849176554
	sim-bpred -bpred bimod -bpred:bimod 2048 base_quicksort11849176554
	sim-bpred -bpred 2lev -bpred:2lev 1 512 10 1 base_quicksort11849176554
	sim-bpred -bpred 2lev -bpred:2lev 1 1024 10 1 base_quicksort11849176554
	sim-bpred -bpred 2lev -bpred:2lev 1 2048 10 1 base_quicksort11849176554
	sim-bpred -bpred 2lev -bpred:2lev 1 4096 10 1 base_quicksort11849176554
	sslittle-na-sstrix-gcc -Wall -O3 -funroll-loops -finline-functions  -DRANDOM_SIZE=4194304 -DOFFSET=3 -DSORT=base_quicksort1 sorts/base_quicksort1592898048.c simpleMain.c -o base_quicksort11849176554
	sim-cache -cache:dl1 dl1:256:32:1:l -cache:dl2 dl2:131072:32:1:l -cache:il1 il1:256:32:1:l -cache:il2 dl2 base_quicksort11849176554
	sim-cache -cache:dl1 dl1:256:32:1:l -cache:dl2 dl2:65536:32:1:l -cache:il1 il1:256:32:1:l -cache:il2 dl2 base_quicksort11849176554
	sim-cache -cache:dl1 dl1:1:32:256:l -cache:dl2 dl2:1:32:131072:l -cache:il1 il1:1:32:256:l -cache:il2 dl2 base_quicksort11849176554
	sim-cache -cache:dl1 dl1:1:32:256:l -cache:dl2 dl2:1:32:65536:l -cache:il1 il1:1:32:256:l -cache:il2 dl2 base_quicksort11849176554
	sim-bpred -bpred bimod -bpred:bimod 512 base_quicksort11849176554
	sim-bpred -bpred bimod -bpred:bimod 1024 base_quicksort11849176554
	sim-bpred -bpred bimod -bpred:bimod 2048 base_quicksort11849176554
	sim-bpred -bpred 2lev -bpred:2lev 1 512 10 1 base_quicksort11849176554
	sim-bpred -bpred 2lev -bpred:2lev 1 1024 10 1 base_quicksort11849176554
	sim-bpred -bpred 2lev -bpred:2lev 1 2048 10 1 base_quicksort11849176554
	sim-bpred -bpred 2lev -bpred:2lev 1 4096 10 1 base_quicksort11849176554
