Wed Jul 20 03:10:27 2005
Run as: "./do_simple -c random.org6 -o 6 base_quicksort1"
-------------------------------------------------------------------------------------------------
sim-cache                                     4096 |         4096 |         4096 |         4096 |         8192 |         8192 |         8192 |         8192 |        16384 |        16384 |        16384 |        16384 |        32768 |        32768 |        32768 |        32768 |        65536 |        65536 |        65536 |        65536 |       131072 |       131072 |       131072 |       131072 |       262144 |       262144 |       262144 |       262144 |       524288 |       524288 |       524288 |       524288 |      1048576 |      1048576 |      1048576 |      1048576 |      2097152 |      2097152 |      2097152 |      2097152 |      4194304 |      4194304 |      4194304 |      4194304 |
-cache:dl1 dl1:256:32:1:l -cache:dl2 dl2:131072:32:1:l -cache:il1 il1:256:32:1:l -cache:il2 dl2
-cache:dl1 dl1:256:32:1:l -cache:dl2 dl2:65536:32:1:l -cache:il1 il1:256:32:1:l -cache:il2 dl2
-cache:dl1 dl1:1:32:256:l -cache:dl2 dl2:1:32:131072:l -cache:il1 il1:1:32:256:l -cache:il2 dl2
-cache:dl1 dl1:1:32:256:l -cache:dl2 dl2:1:32:65536:l -cache:il1 il1:1:32:256:l -cache:il2 dl2
-------------------------------------------------------------------------------------------------
sim_num_insn                                495362 |       495362 |       495362 |       495362 |      1093071 |      1093071 |      1093071 |      1093071 |      2385136 |      2385136 |      2385136 |      2385136 |      5114866 |      5114866 |      5114866 |      5114866 |     10638341 |     10638341 |     10638341 |     10638341 |     22835985 |     22835985 |     22835985 |     22835985 |     49058534 |     49058534 |     49058534 |     49058534 |    101115934 |    101115934 |    101115934 |    101115934 |    213945488 |    213945488 |    213945488 |    213945488 |    445902901 |    445902901 |    445902901 |    445902901 |    924602660 |    924602660 |    924602660 |    924602660 |
sim_num_refs                                127087 |       127087 |       127087 |       127087 |       273609 |       273609 |       273609 |       273609 |       584159 |       584159 |       584159 |       584159 |      1248588 |      1248588 |      1248588 |      1248588 |      2598796 |      2598796 |      2598796 |      2598796 |      5505877 |      5505877 |      5505877 |      5505877 |     11725229 |     11725229 |     11725229 |     11725229 |     24292661 |     24292661 |     24292661 |     24292661 |     51243152 |     51243152 |     51243152 |     51243152 |    106604362 |    106604362 |    106604362 |    106604362 |    221701564 |    221701564 |    221701564 |    221701564 |
sim_elapsed_time                                 1 |            1 |            7 |            4 |            1 |            1 |           10 |            5 |            1 |            1 |           15 |            8 |            2 |            1 |           26 |           14 |            3 |            3 |           47 |           25 |            6 |            6 |           89 |           44 |           13 |           13 |          163 |           77 |           26 |           27 |          282 |          111 |           56 |           55 |          394 |          143 |          117 |          116 |          460 |          209 |          241 |          241 |          594 |          343 |
sim_inst_rate                          495362.0000 |  495362.0000 |   70766.0000 |  123840.5000 | 1093071.0000 | 1093071.0000 |  109307.1000 |  218614.2000 | 2385136.0000 | 2385136.0000 |  159009.0667 |  298142.0000 | 2557433.0000 | 5114866.0000 |  196725.6154 |  365347.5714 | 3546113.6667 | 3546113.6667 |  226347.6809 |  425533.6400 | 3805997.5000 | 3805997.5000 |  256584.1011 |  518999.6591 | 3773733.3846 | 3773733.3846 |  300972.6012 |  637123.8182 | 3889074.3846 | 3745034.5926 |  358567.1418 |  910954.3604 | 3820455.1429 | 3889917.9636 |  543008.8528 | 1496122.2937 | 3811135.9060 | 3843990.5259 |  969354.1326 | 2133506.7033 | 3836525.5602 | 3836525.5602 | 1556570.1347 | 2695634.5773 |
il1.accesses                                495362 |       495362 |       495362 |       495362 |      1093071 |      1093071 |      1093071 |      1093071 |      2385136 |      2385136 |      2385136 |      2385136 |      5114866 |      5114866 |      5114866 |      5114866 |     10638341 |     10638341 |     10638341 |     10638341 |     22835985 |     22835985 |     22835985 |     22835985 |     49058534 |     49058534 |     49058534 |     49058534 |    101115934 |    101115934 |    101115934 |    101115934 |    213945488 |    213945488 |    213945488 |    213945488 |    445902901 |    445902901 |    445902901 |    445902901 |    924602660 |    924602660 |    924602660 |    924602660 |
il1.hits                                    494923 |       494923 |       494964 |       494964 |      1092633 |      1092633 |      1092671 |      1092671 |      2384688 |      2384688 |      2384732 |      2384732 |      5114427 |      5114427 |      5114465 |      5114465 |     10637902 |     10637902 |     10637940 |     10637940 |     22835547 |     22835547 |     22835585 |     22835585 |     49058096 |     49058096 |     49058134 |     49058134 |    101115496 |    101115496 |    101115534 |    101115534 |    213945050 |    213945050 |    213945088 |    213945088 |    445902463 |    445902463 |    445902501 |    445902501 |    924602222 |    924602222 |    924602260 |    924602260 |
il1.misses                                     439 |          439 |          398 |          398 |          438 |          438 |          400 |          400 |          448 |          448 |          404 |          404 |          439 |          439 |          401 |          401 |          439 |          439 |          401 |          401 |          438 |          438 |          400 |          400 |          438 |          438 |          400 |          400 |          438 |          438 |          400 |          400 |          438 |          438 |          400 |          400 |          438 |          438 |          400 |          400 |          438 |          438 |          400 |          400 |
il1.replacements                               200 |          200 |          142 |          142 |          199 |          199 |          144 |          144 |          210 |          210 |          148 |          148 |          201 |          201 |          145 |          145 |          201 |          201 |          145 |          145 |          201 |          201 |          144 |          144 |          201 |          201 |          144 |          144 |          201 |          201 |          144 |          144 |          201 |          201 |          144 |          144 |          201 |          201 |          144 |          144 |          201 |          201 |          144 |          144 |
il1.writebacks                                   0 |            0 |            0 |            0 |            0 |            0 |            0 |            0 |            0 |            0 |            0 |            0 |            0 |            0 |            0 |            0 |            0 |            0 |            0 |            0 |            0 |            0 |            0 |            0 |            0 |            0 |            0 |            0 |            0 |            0 |            0 |            0 |            0 |            0 |            0 |            0 |            0 |            0 |            0 |            0 |            0 |            0 |            0 |            0 |
il1.invalidations                                0 |            0 |            0 |            0 |            0 |            0 |            0 |            0 |            0 |            0 |            0 |            0 |            0 |            0 |            0 |            0 |            0 |            0 |            0 |            0 |            0 |            0 |            0 |            0 |            0 |            0 |            0 |            0 |            0 |            0 |            0 |            0 |            0 |            0 |            0 |            0 |            0 |            0 |            0 |            0 |            0 |            0 |            0 |            0 |
il1.miss_rate                               0.0009 |       0.0009 |       0.0008 |       0.0008 |       0.0004 |       0.0004 |       0.0004 |       0.0004 |       0.0002 |       0.0002 |       0.0002 |       0.0002 |       0.0001 |       0.0001 |       0.0001 |       0.0001 |       0.0000 |       0.0000 |       0.0000 |       0.0000 |       0.0000 |       0.0000 |       0.0000 |       0.0000 |       0.0000 |       0.0000 |       0.0000 |       0.0000 |       0.0000 |       0.0000 |       0.0000 |       0.0000 |       0.0000 |       0.0000 |       0.0000 |       0.0000 |       0.0000 |       0.0000 |       0.0000 |       0.0000 |       0.0000 |       0.0000 |       0.0000 |       0.0000 |
il1.repl_rate                               0.0004 |       0.0004 |       0.0003 |       0.0003 |       0.0002 |       0.0002 |       0.0001 |       0.0001 |       0.0001 |       0.0001 |       0.0001 |       0.0001 |       0.0000 |       0.0000 |       0.0000 |       0.0000 |       0.0000 |       0.0000 |       0.0000 |       0.0000 |       0.0000 |       0.0000 |       0.0000 |       0.0000 |       0.0000 |       0.0000 |       0.0000 |       0.0000 |       0.0000 |       0.0000 |       0.0000 |       0.0000 |       0.0000 |       0.0000 |       0.0000 |       0.0000 |       0.0000 |       0.0000 |       0.0000 |       0.0000 |       0.0000 |       0.0000 |       0.0000 |       0.0000 |
il1.wb_rate                                 0.0000 |       0.0000 |       0.0000 |       0.0000 |       0.0000 |       0.0000 |       0.0000 |       0.0000 |       0.0000 |       0.0000 |       0.0000 |       0.0000 |       0.0000 |       0.0000 |       0.0000 |       0.0000 |       0.0000 |       0.0000 |       0.0000 |       0.0000 |       0.0000 |       0.0000 |       0.0000 |       0.0000 |       0.0000 |       0.0000 |       0.0000 |       0.0000 |       0.0000 |       0.0000 |       0.0000 |       0.0000 |       0.0000 |       0.0000 |       0.0000 |       0.0000 |       0.0000 |       0.0000 |       0.0000 |       0.0000 |       0.0000 |       0.0000 |       0.0000 |       0.0000 |
il1.inv_rate                                0.0000 |       0.0000 |       0.0000 |       0.0000 |       0.0000 |       0.0000 |       0.0000 |       0.0000 |       0.0000 |       0.0000 |       0.0000 |       0.0000 |       0.0000 |       0.0000 |       0.0000 |       0.0000 |       0.0000 |       0.0000 |       0.0000 |       0.0000 |       0.0000 |       0.0000 |       0.0000 |       0.0000 |       0.0000 |       0.0000 |       0.0000 |       0.0000 |       0.0000 |       0.0000 |       0.0000 |       0.0000 |       0.0000 |       0.0000 |       0.0000 |       0.0000 |       0.0000 |       0.0000 |       0.0000 |       0.0000 |       0.0000 |       0.0000 |       0.0000 |       0.0000 |
dl1.accesses                                143553 |       143553 |       143553 |       143553 |       306459 |       306459 |       306459 |       306459 |       649777 |       649777 |       649777 |       649777 |      1379742 |      1379742 |      1379742 |      1379742 |      2861022 |      2861022 |      2861022 |      2861022 |      6030247 |      6030247 |      6030247 |      6030247 |     12773887 |     12773887 |     12773887 |     12773887 |     26389895 |     26389895 |     26389895 |     26389895 |     55437538 |     55437538 |     55437538 |     55437538 |    114993052 |    114993052 |    114993052 |    114993052 |    238478862 |    238478862 |    238478862 |    238478862 |
dl1.hits                                    141051 |       141051 |       140936 |       140936 |       300351 |       300351 |       300125 |       300125 |       634398 |       634398 |       634290 |       634290 |      1341182 |      1341182 |      1341078 |      1341078 |      2780489 |      2780489 |      2780016 |      2780016 |      5840832 |      5840832 |      5840909 |      5840909 |     12336202 |     12336202 |     12337322 |     12337322 |     25481111 |     25481111 |     25487003 |     25487003 |     53399143 |     53399143 |     53411469 |     53411469 |    110630637 |    110630637 |    110664523 |    110664523 |    229236485 |    229236485 |    229314498 |    229314498 |
dl1.misses                                    2502 |         2502 |         2617 |         2617 |         6108 |         6108 |         6334 |         6334 |        15379 |        15379 |        15487 |        15487 |        38560 |        38560 |        38664 |        38664 |        80533 |        80533 |        81006 |        81006 |       189415 |       189415 |       189338 |       189338 |       437685 |       437685 |       436565 |       436565 |       908784 |       908784 |       902892 |       902892 |      2038395 |      2038395 |      2026069 |      2026069 |      4362415 |      4362415 |      4328529 |      4328529 |      9242377 |      9242377 |      9164364 |      9164364 |
dl1.replacements                              2246 |         2246 |         2361 |         2361 |         5852 |         5852 |         6078 |         6078 |        15123 |        15123 |        15231 |        15231 |        38304 |        38304 |        38408 |        38408 |        80277 |        80277 |        80750 |        80750 |       189159 |       189159 |       189082 |       189082 |       437429 |       437429 |       436309 |       436309 |       908528 |       908528 |       902636 |       902636 |      2038139 |      2038139 |      2025813 |      2025813 |      4362159 |      4362159 |      4328273 |      4328273 |      9242121 |      9242121 |      9164108 |      9164108 |
dl1.writebacks                                2200 |         2200 |         2279 |         2279 |         5466 |         5466 |         5624 |         5624 |        13427 |        13427 |        13636 |        13636 |        31117 |        31117 |        31367 |        31367 |        71249 |        71249 |        71830 |        71830 |       162295 |       162295 |       163215 |       163215 |       361878 |       361878 |       362451 |       362451 |       788379 |       788379 |       789080 |       789080 |      1721548 |      1721548 |      1722515 |      1722515 |      3750280 |      3750280 |      3749485 |      3749485 |      7978233 |      7978233 |      7973279 |      7973279 |
dl1.invalidations                                0 |            0 |            0 |            0 |            0 |            0 |            0 |            0 |            0 |            0 |            0 |            0 |            0 |            0 |            0 |            0 |            0 |            0 |            0 |            0 |            0 |            0 |            0 |            0 |            0 |            0 |            0 |            0 |            0 |            0 |            0 |            0 |            0 |            0 |            0 |            0 |            0 |            0 |            0 |            0 |            0 |            0 |            0 |            0 |
dl1.miss_rate                               0.0174 |       0.0174 |       0.0182 |       0.0182 |       0.0199 |       0.0199 |       0.0207 |       0.0207 |       0.0237 |       0.0237 |       0.0238 |       0.0238 |       0.0279 |       0.0279 |       0.0280 |       0.0280 |       0.0281 |       0.0281 |       0.0283 |       0.0283 |       0.0314 |       0.0314 |       0.0314 |       0.0314 |       0.0343 |       0.0343 |       0.0342 |       0.0342 |       0.0344 |       0.0344 |       0.0342 |       0.0342 |       0.0368 |       0.0368 |       0.0365 |       0.0365 |       0.0379 |       0.0379 |       0.0376 |       0.0376 |       0.0388 |       0.0388 |       0.0384 |       0.0384 |
dl1.repl_rate                               0.0156 |       0.0156 |       0.0164 |       0.0164 |       0.0191 |       0.0191 |       0.0198 |       0.0198 |       0.0233 |       0.0233 |       0.0234 |       0.0234 |       0.0278 |       0.0278 |       0.0278 |       0.0278 |       0.0281 |       0.0281 |       0.0282 |       0.0282 |       0.0314 |       0.0314 |       0.0314 |       0.0314 |       0.0342 |       0.0342 |       0.0342 |       0.0342 |       0.0344 |       0.0344 |       0.0342 |       0.0342 |       0.0368 |       0.0368 |       0.0365 |       0.0365 |       0.0379 |       0.0379 |       0.0376 |       0.0376 |       0.0388 |       0.0388 |       0.0384 |       0.0384 |
dl1.wb_rate                                 0.0153 |       0.0153 |       0.0159 |       0.0159 |       0.0178 |       0.0178 |       0.0184 |       0.0184 |       0.0207 |       0.0207 |       0.0210 |       0.0210 |       0.0226 |       0.0226 |       0.0227 |       0.0227 |       0.0249 |       0.0249 |       0.0251 |       0.0251 |       0.0269 |       0.0269 |       0.0271 |       0.0271 |       0.0283 |       0.0283 |       0.0284 |       0.0284 |       0.0299 |       0.0299 |       0.0299 |       0.0299 |       0.0311 |       0.0311 |       0.0311 |       0.0311 |       0.0326 |       0.0326 |       0.0326 |       0.0326 |       0.0335 |       0.0335 |       0.0334 |       0.0334 |
dl1.inv_rate                                0.0000 |       0.0000 |       0.0000 |       0.0000 |       0.0000 |       0.0000 |       0.0000 |       0.0000 |       0.0000 |       0.0000 |       0.0000 |       0.0000 |       0.0000 |       0.0000 |       0.0000 |       0.0000 |       0.0000 |       0.0000 |       0.0000 |       0.0000 |       0.0000 |       0.0000 |       0.0000 |       0.0000 |       0.0000 |       0.0000 |       0.0000 |       0.0000 |       0.0000 |       0.0000 |       0.0000 |       0.0000 |       0.0000 |       0.0000 |       0.0000 |       0.0000 |       0.0000 |       0.0000 |       0.0000 |       0.0000 |       0.0000 |       0.0000 |       0.0000 |       0.0000 |
dl2.accesses                                  5141 |         5141 |         5294 |         5294 |        12012 |        12012 |        12358 |        12358 |        29254 |        29254 |        29527 |        29527 |        70116 |        70116 |        70432 |        70432 |       152221 |       152221 |       153237 |       153237 |       352148 |       352148 |       352953 |       352953 |       800001 |       800001 |       799416 |       799416 |      1697601 |      1697601 |      1692372 |      1692372 |      3760381 |      3760381 |      3748984 |      3748984 |      8113133 |      8113133 |      8078414 |      8078414 |     17221048 |     17221048 |     17138043 |     17138043 |
dl2.hits                                      3786 |         3786 |         3952 |         3952 |        10144 |        10144 |        10502 |        10502 |        26365 |        26365 |        26653 |        26653 |        65182 |        65182 |        65511 |        65511 |       143191 |       143191 |       144220 |       144220 |       334926 |       334926 |       335744 |       335744 |       766395 |       766395 |       765823 |       765823 |      1631227 |      1630465 |      1626011 |      1571625 |      3627741 |      3309398 |      3545003 |      3265978 |      7213645 |      6812651 |      7024547 |      6719235 |     14696363 |     14006774 |     14485906 |     13768168 |
dl2.misses                                    1355 |         1355 |         1342 |         1342 |         1868 |         1868 |         1856 |         1856 |         2889 |         2889 |         2874 |         2874 |         4934 |         4934 |         4921 |         4921 |         9030 |         9030 |         9017 |         9017 |        17222 |        17222 |        17209 |        17209 |        33606 |        33606 |        33593 |        33593 |        66374 |        67136 |        66361 |       120747 |       132640 |       450983 |       203981 |       483006 |       899488 |      1300482 |      1053867 |      1359179 |      2524685 |      3214274 |      2652137 |      3369875 |
dl2.replacements                               146 |          146 |            0 |            0 |          145 |          145 |            0 |            0 |          148 |          148 |            0 |            0 |          147 |          147 |            0 |            0 |          147 |          147 |            0 |            0 |          147 |          147 |            0 |            0 |          147 |          147 |            0 |            0 |          147 |         1600 |            0 |        55211 |         1568 |       385447 |        72909 |       417470 |       768416 |      1234946 |       922795 |      1293643 |      2393613 |      3148738 |      2521065 |      3304339 |
dl2.writebacks                                  83 |           83 |            0 |            0 |           84 |           84 |            0 |            0 |           85 |           85 |            0 |            0 |           85 |           85 |            0 |            0 |           85 |           85 |            0 |            0 |           85 |           85 |            0 |            0 |           85 |           85 |            0 |            0 |           85 |         1299 |            0 |        54932 |         1274 |       383616 |        72630 |       415287 |       761214 |      1207316 |       913704 |      1264419 |      2370702 |      3053608 |      2493368 |      3188529 |
dl2.invalidations                                0 |            0 |            0 |            0 |            0 |            0 |            0 |            0 |            0 |            0 |            0 |            0 |            0 |            0 |            0 |            0 |            0 |            0 |            0 |            0 |            0 |            0 |            0 |            0 |            0 |            0 |            0 |            0 |            0 |            0 |            0 |            0 |            0 |            0 |            0 |            0 |            0 |            0 |            0 |            0 |            0 |            0 |            0 |            0 |
dl2.miss_rate                               0.2636 |       0.2636 |       0.2535 |       0.2535 |       0.1555 |       0.1555 |       0.1502 |       0.1502 |       0.0988 |       0.0988 |       0.0973 |       0.0973 |       0.0704 |       0.0704 |       0.0699 |       0.0699 |       0.0593 |       0.0593 |       0.0588 |       0.0588 |       0.0489 |       0.0489 |       0.0488 |       0.0488 |       0.0420 |       0.0420 |       0.0420 |       0.0420 |       0.0391 |       0.0395 |       0.0392 |       0.0713 |       0.0353 |       0.1199 |       0.0544 |       0.1288 |       0.1109 |       0.1603 |       0.1305 |       0.1682 |       0.1466 |       0.1866 |       0.1548 |       0.1966 |
dl2.repl_rate                               0.0284 |       0.0284 |       0.0000 |       0.0000 |       0.0121 |       0.0121 |       0.0000 |       0.0000 |       0.0051 |       0.0051 |       0.0000 |       0.0000 |       0.0021 |       0.0021 |       0.0000 |       0.0000 |       0.0010 |       0.0010 |       0.0000 |       0.0000 |       0.0004 |       0.0004 |       0.0000 |       0.0000 |       0.0002 |       0.0002 |       0.0000 |       0.0000 |       0.0001 |       0.0009 |       0.0000 |       0.0326 |       0.0004 |       0.1025 |       0.0194 |       0.1114 |       0.0947 |       0.1522 |       0.1142 |       0.1601 |       0.1390 |       0.1828 |       0.1471 |       0.1928 |
dl2.wb_rate                                 0.0161 |       0.0161 |       0.0000 |       0.0000 |       0.0070 |       0.0070 |       0.0000 |       0.0000 |       0.0029 |       0.0029 |       0.0000 |       0.0000 |       0.0012 |       0.0012 |       0.0000 |       0.0000 |       0.0006 |       0.0006 |       0.0000 |       0.0000 |       0.0002 |       0.0002 |       0.0000 |       0.0000 |       0.0001 |       0.0001 |       0.0000 |       0.0000 |       0.0001 |       0.0008 |       0.0000 |       0.0325 |       0.0003 |       0.1020 |       0.0194 |       0.1108 |       0.0938 |       0.1488 |       0.1131 |       0.1565 |       0.1377 |       0.1773 |       0.1455 |       0.1860 |
dl2.inv_rate                                0.0000 |       0.0000 |       0.0000 |       0.0000 |       0.0000 |       0.0000 |       0.0000 |       0.0000 |       0.0000 |       0.0000 |       0.0000 |       0.0000 |       0.0000 |       0.0000 |       0.0000 |       0.0000 |       0.0000 |       0.0000 |       0.0000 |       0.0000 |       0.0000 |       0.0000 |       0.0000 |       0.0000 |       0.0000 |       0.0000 |       0.0000 |       0.0000 |       0.0000 |       0.0000 |       0.0000 |       0.0000 |       0.0000 |       0.0000 |       0.0000 |       0.0000 |       0.0000 |       0.0000 |       0.0000 |       0.0000 |       0.0000 |       0.0000 |       0.0000 |       0.0000 |
itlb.accesses                               495362 |       495362 |       495362 |       495362 |      1093071 |      1093071 |      1093071 |      1093071 |      2385136 |      2385136 |      2385136 |      2385136 |      5114866 |      5114866 |      5114866 |      5114866 |     10638341 |     10638341 |     10638341 |     10638341 |     22835985 |     22835985 |     22835985 |     22835985 |     49058534 |     49058534 |     49058534 |     49058534 |    101115934 |    101115934 |    101115934 |    101115934 |    213945488 |    213945488 |    213945488 |    213945488 |    445902901 |    445902901 |    445902901 |    445902901 |    924602660 |    924602660 |    924602660 |    924602660 |
itlb.hits                                   495351 |       495351 |       495351 |       495351 |      1093061 |      1093061 |      1093061 |      1093061 |      2385126 |      2385126 |      2385126 |      2385126 |      5114856 |      5114856 |      5114856 |      5114856 |     10638331 |     10638331 |     10638331 |     10638331 |     22835975 |     22835975 |     22835975 |     22835975 |     49058524 |     49058524 |     49058524 |     49058524 |    101115924 |    101115924 |    101115924 |    101115924 |    213945478 |    213945478 |    213945478 |    213945478 |    445902891 |    445902891 |    445902891 |    445902891 |    924602650 |    924602650 |    924602650 |    924602650 |
itlb.misses                                     11 |           11 |           11 |           11 |           10 |           10 |           10 |           10 |           10 |           10 |           10 |           10 |           10 |           10 |           10 |           10 |           10 |           10 |           10 |           10 |           10 |           10 |           10 |           10 |           10 |           10 |           10 |           10 |           10 |           10 |           10 |           10 |           10 |           10 |           10 |           10 |           10 |           10 |           10 |           10 |           10 |           10 |           10 |           10 |
itlb.replacements                                0 |            0 |            0 |            0 |            0 |            0 |            0 |            0 |            0 |            0 |            0 |            0 |            0 |            0 |            0 |            0 |            0 |            0 |            0 |            0 |            0 |            0 |            0 |            0 |            0 |            0 |            0 |            0 |            0 |            0 |            0 |            0 |            0 |            0 |            0 |            0 |            0 |            0 |            0 |            0 |            0 |            0 |            0 |            0 |
itlb.writebacks                                  0 |            0 |            0 |            0 |            0 |            0 |            0 |            0 |            0 |            0 |            0 |            0 |            0 |            0 |            0 |            0 |            0 |            0 |            0 |            0 |            0 |            0 |            0 |            0 |            0 |            0 |            0 |            0 |            0 |            0 |            0 |            0 |            0 |            0 |            0 |            0 |            0 |            0 |            0 |            0 |            0 |            0 |            0 |            0 |
itlb.invalidations                               0 |            0 |            0 |            0 |            0 |            0 |            0 |            0 |            0 |            0 |            0 |            0 |            0 |            0 |            0 |            0 |            0 |            0 |            0 |            0 |            0 |            0 |            0 |            0 |            0 |            0 |            0 |            0 |            0 |            0 |            0 |            0 |            0 |            0 |            0 |            0 |            0 |            0 |            0 |            0 |            0 |            0 |            0 |            0 |
itlb.miss_rate                              0.0000 |       0.0000 |       0.0000 |       0.0000 |       0.0000 |       0.0000 |       0.0000 |       0.0000 |       0.0000 |       0.0000 |       0.0000 |       0.0000 |       0.0000 |       0.0000 |       0.0000 |       0.0000 |       0.0000 |       0.0000 |       0.0000 |       0.0000 |       0.0000 |       0.0000 |       0.0000 |       0.0000 |       0.0000 |       0.0000 |       0.0000 |       0.0000 |       0.0000 |       0.0000 |       0.0000 |       0.0000 |       0.0000 |       0.0000 |       0.0000 |       0.0000 |       0.0000 |       0.0000 |       0.0000 |       0.0000 |       0.0000 |       0.0000 |       0.0000 |       0.0000 |
itlb.repl_rate                              0.0000 |       0.0000 |       0.0000 |       0.0000 |       0.0000 |       0.0000 |       0.0000 |       0.0000 |       0.0000 |       0.0000 |       0.0000 |       0.0000 |       0.0000 |       0.0000 |       0.0000 |       0.0000 |       0.0000 |       0.0000 |       0.0000 |       0.0000 |       0.0000 |       0.0000 |       0.0000 |       0.0000 |       0.0000 |       0.0000 |       0.0000 |       0.0000 |       0.0000 |       0.0000 |       0.0000 |       0.0000 |       0.0000 |       0.0000 |       0.0000 |       0.0000 |       0.0000 |       0.0000 |       0.0000 |       0.0000 |       0.0000 |       0.0000 |       0.0000 |       0.0000 |
itlb.wb_rate                                0.0000 |       0.0000 |       0.0000 |       0.0000 |       0.0000 |       0.0000 |       0.0000 |       0.0000 |       0.0000 |       0.0000 |       0.0000 |       0.0000 |       0.0000 |       0.0000 |       0.0000 |       0.0000 |       0.0000 |       0.0000 |       0.0000 |       0.0000 |       0.0000 |       0.0000 |       0.0000 |       0.0000 |       0.0000 |       0.0000 |       0.0000 |       0.0000 |       0.0000 |       0.0000 |       0.0000 |       0.0000 |       0.0000 |       0.0000 |       0.0000 |       0.0000 |       0.0000 |       0.0000 |       0.0000 |       0.0000 |       0.0000 |       0.0000 |       0.0000 |       0.0000 |
itlb.inv_rate                               0.0000 |       0.0000 |       0.0000 |       0.0000 |       0.0000 |       0.0000 |       0.0000 |       0.0000 |       0.0000 |       0.0000 |       0.0000 |       0.0000 |       0.0000 |       0.0000 |       0.0000 |       0.0000 |       0.0000 |       0.0000 |       0.0000 |       0.0000 |       0.0000 |       0.0000 |       0.0000 |       0.0000 |       0.0000 |       0.0000 |       0.0000 |       0.0000 |       0.0000 |       0.0000 |       0.0000 |       0.0000 |       0.0000 |       0.0000 |       0.0000 |       0.0000 |       0.0000 |       0.0000 |       0.0000 |       0.0000 |       0.0000 |       0.0000 |       0.0000 |       0.0000 |
dtlb.accesses                               143553 |       143553 |       143553 |       143553 |       306459 |       306459 |       306459 |       306459 |       649777 |       649777 |       649777 |       649777 |      1379742 |      1379742 |      1379742 |      1379742 |      2861022 |      2861022 |      2861022 |      2861022 |      6030247 |      6030247 |      6030247 |      6030247 |     12773887 |     12773887 |     12773887 |     12773887 |     26389895 |     26389895 |     26389895 |     26389895 |     55437538 |     55437538 |     55437538 |     55437538 |    114993052 |    114993052 |    114993052 |    114993052 |    238478862 |    238478862 |    238478862 |    238478862 |
dtlb.hits                                   143541 |       143541 |       143541 |       143541 |       306443 |       306443 |       306443 |       306443 |       649753 |       649753 |       649753 |       649753 |      1379702 |      1379702 |      1379702 |      1379702 |      2860950 |      2860950 |      2860950 |      2860950 |      6030069 |      6030069 |      6030069 |      6030069 |     12772645 |     12772645 |     12772645 |     12772645 |     26387246 |     26387246 |     26387246 |     26387246 |     55430667 |     55430667 |     55430667 |     55430667 |    114976605 |    114976605 |    114976605 |    114976605 |    238440961 |    238440961 |    238440961 |    238440961 |
dtlb.misses                                     12 |           12 |           12 |           12 |           16 |           16 |           16 |           16 |           24 |           24 |           24 |           24 |           40 |           40 |           40 |           40 |           72 |           72 |           72 |           72 |          178 |          178 |          178 |          178 |         1242 |         1242 |         1242 |         1242 |         2649 |         2649 |         2649 |         2649 |         6871 |         6871 |         6871 |         6871 |        16447 |        16447 |        16447 |        16447 |        37901 |        37901 |        37901 |        37901 |
dtlb.replacements                                0 |            0 |            0 |            0 |            0 |            0 |            0 |            0 |            0 |            0 |            0 |            0 |            0 |            0 |            0 |            0 |            0 |            0 |            0 |            0 |           50 |           50 |           50 |           50 |         1114 |         1114 |         1114 |         1114 |         2521 |         2521 |         2521 |         2521 |         6743 |         6743 |         6743 |         6743 |        16319 |        16319 |        16319 |        16319 |        37773 |        37773 |        37773 |        37773 |
dtlb.writebacks                                  0 |            0 |            0 |            0 |            0 |            0 |            0 |            0 |            0 |            0 |            0 |            0 |            0 |            0 |            0 |            0 |            0 |            0 |            0 |            0 |           48 |           48 |           48 |           48 |         1112 |         1112 |         1112 |         1112 |         2519 |         2519 |         2519 |         2519 |         6741 |         6741 |         6741 |         6741 |        16317 |        16317 |        16317 |        16317 |        37755 |        37755 |        37755 |        37755 |
dtlb.invalidations                               0 |            0 |            0 |            0 |            0 |            0 |            0 |            0 |            0 |            0 |            0 |            0 |            0 |            0 |            0 |            0 |            0 |            0 |            0 |            0 |            0 |            0 |            0 |            0 |            0 |            0 |            0 |            0 |            0 |            0 |            0 |            0 |            0 |            0 |            0 |            0 |            0 |            0 |            0 |            0 |            0 |            0 |            0 |            0 |
dtlb.miss_rate                              0.0001 |       0.0001 |       0.0001 |       0.0001 |       0.0001 |       0.0001 |       0.0001 |       0.0001 |       0.0000 |       0.0000 |       0.0000 |       0.0000 |       0.0000 |       0.0000 |       0.0000 |       0.0000 |       0.0000 |       0.0000 |       0.0000 |       0.0000 |       0.0000 |       0.0000 |       0.0000 |       0.0000 |       0.0001 |       0.0001 |       0.0001 |       0.0001 |       0.0001 |       0.0001 |       0.0001 |       0.0001 |       0.0001 |       0.0001 |       0.0001 |       0.0001 |       0.0001 |       0.0001 |       0.0001 |       0.0001 |       0.0002 |       0.0002 |       0.0002 |       0.0002 |
dtlb.repl_rate                              0.0000 |       0.0000 |       0.0000 |       0.0000 |       0.0000 |       0.0000 |       0.0000 |       0.0000 |       0.0000 |       0.0000 |       0.0000 |       0.0000 |       0.0000 |       0.0000 |       0.0000 |       0.0000 |       0.0000 |       0.0000 |       0.0000 |       0.0000 |       0.0000 |       0.0000 |       0.0000 |       0.0000 |       0.0001 |       0.0001 |       0.0001 |       0.0001 |       0.0001 |       0.0001 |       0.0001 |       0.0001 |       0.0001 |       0.0001 |       0.0001 |       0.0001 |       0.0001 |       0.0001 |       0.0001 |       0.0001 |       0.0002 |       0.0002 |       0.0002 |       0.0002 |
dtlb.wb_rate                                0.0000 |       0.0000 |       0.0000 |       0.0000 |       0.0000 |       0.0000 |       0.0000 |       0.0000 |       0.0000 |       0.0000 |       0.0000 |       0.0000 |       0.0000 |       0.0000 |       0.0000 |       0.0000 |       0.0000 |       0.0000 |       0.0000 |       0.0000 |       0.0000 |       0.0000 |       0.0000 |       0.0000 |       0.0001 |       0.0001 |       0.0001 |       0.0001 |       0.0001 |       0.0001 |       0.0001 |       0.0001 |       0.0001 |       0.0001 |       0.0001 |       0.0001 |       0.0001 |       0.0001 |       0.0001 |       0.0001 |       0.0002 |       0.0002 |       0.0002 |       0.0002 |
dtlb.inv_rate                               0.0000 |       0.0000 |       0.0000 |       0.0000 |       0.0000 |       0.0000 |       0.0000 |       0.0000 |       0.0000 |       0.0000 |       0.0000 |       0.0000 |       0.0000 |       0.0000 |       0.0000 |       0.0000 |       0.0000 |       0.0000 |       0.0000 |       0.0000 |       0.0000 |       0.0000 |       0.0000 |       0.0000 |       0.0000 |       0.0000 |       0.0000 |       0.0000 |       0.0000 |       0.0000 |       0.0000 |       0.0000 |       0.0000 |       0.0000 |       0.0000 |       0.0000 |       0.0000 |       0.0000 |       0.0000 |       0.0000 |       0.0000 |       0.0000 |       0.0000 |       0.0000 |
ld_text_base                            0x00400000 |   0x00400000 |   0x00400000 |   0x00400000 |   0x00400000 |   0x00400000 |   0x00400000 |   0x00400000 |   0x00400000 |   0x00400000 |   0x00400000 |   0x00400000 |   0x00400000 |   0x00400000 |   0x00400000 |   0x00400000 |   0x00400000 |   0x00400000 |   0x00400000 |   0x00400000 |   0x00400000 |   0x00400000 |   0x00400000 |   0x00400000 |   0x00400000 |   0x00400000 |   0x00400000 |   0x00400000 |   0x00400000 |   0x00400000 |   0x00400000 |   0x00400000 |   0x00400000 |   0x00400000 |   0x00400000 |   0x00400000 |   0x00400000 |   0x00400000 |   0x00400000 |   0x00400000 |   0x00400000 |   0x00400000 |   0x00400000 |   0x00400000 |
ld_text_size                                 73136 |        73136 |        73136 |        73136 |        73168 |        73168 |        73168 |        73168 |        73184 |        73184 |        73184 |        73184 |        73200 |        73200 |        73200 |        73200 |        73200 |        73200 |        73200 |        73200 |        73200 |        73200 |        73200 |        73200 |        73200 |        73200 |        73200 |        73200 |        73200 |        73200 |        73200 |        73200 |        73200 |        73200 |        73200 |        73200 |        73200 |        73200 |        73200 |        73200 |        73200 |        73200 |        73200 |        73200 |
ld_data_base                            0x10000000 |   0x10000000 |   0x10000000 |   0x10000000 |   0x10000000 |   0x10000000 |   0x10000000 |   0x10000000 |   0x10000000 |   0x10000000 |   0x10000000 |   0x10000000 |   0x10000000 |   0x10000000 |   0x10000000 |   0x10000000 |   0x10000000 |   0x10000000 |   0x10000000 |   0x10000000 |   0x10000000 |   0x10000000 |   0x10000000 |   0x10000000 |   0x10000000 |   0x10000000 |   0x10000000 |   0x10000000 |   0x10000000 |   0x10000000 |   0x10000000 |   0x10000000 |   0x10000000 |   0x10000000 |   0x10000000 |   0x10000000 |   0x10000000 |   0x10000000 |   0x10000000 |   0x10000000 |   0x10000000 |   0x10000000 |   0x10000000 |   0x10000000 |
ld_data_size                                  8192 |         8192 |         8192 |         8192 |         8192 |         8192 |         8192 |         8192 |         8192 |         8192 |         8192 |         8192 |         8192 |         8192 |         8192 |         8192 |         8192 |         8192 |         8192 |         8192 |         8192 |         8192 |         8192 |         8192 |         8192 |         8192 |         8192 |         8192 |         8192 |         8192 |         8192 |         8192 |         8192 |         8192 |         8192 |         8192 |         8192 |         8192 |         8192 |         8192 |         8192 |         8192 |         8192 |         8192 |
ld_stack_base                           0x7fffc000 |   0x7fffc000 |   0x7fffc000 |   0x7fffc000 |   0x7fffc000 |   0x7fffc000 |   0x7fffc000 |   0x7fffc000 |   0x7fffc000 |   0x7fffc000 |   0x7fffc000 |   0x7fffc000 |   0x7fffc000 |   0x7fffc000 |   0x7fffc000 |   0x7fffc000 |   0x7fffc000 |   0x7fffc000 |   0x7fffc000 |   0x7fffc000 |   0x7fffc000 |   0x7fffc000 |   0x7fffc000 |   0x7fffc000 |   0x7fffc000 |   0x7fffc000 |   0x7fffc000 |   0x7fffc000 |   0x7fffc000 |   0x7fffc000 |   0x7fffc000 |   0x7fffc000 |   0x7fffc000 |   0x7fffc000 |   0x7fffc000 |   0x7fffc000 |   0x7fffc000 |   0x7fffc000 |   0x7fffc000 |   0x7fffc000 |   0x7fffc000 |   0x7fffc000 |   0x7fffc000 |   0x7fffc000 |
ld_stack_size                                16384 |        16384 |        16384 |        16384 |        16384 |        16384 |        16384 |        16384 |        16384 |        16384 |        16384 |        16384 |        16384 |        16384 |        16384 |        16384 |        16384 |        16384 |        16384 |        16384 |        16384 |        16384 |        16384 |        16384 |        16384 |        16384 |        16384 |        16384 |        16384 |        16384 |        16384 |        16384 |        16384 |        16384 |        16384 |        16384 |        16384 |        16384 |        16384 |        16384 |        16384 |        16384 |        16384 |        16384 |
ld_prog_entry                           0x00400140 |   0x00400140 |   0x00400140 |   0x00400140 |   0x00400140 |   0x00400140 |   0x00400140 |   0x00400140 |   0x00400140 |   0x00400140 |   0x00400140 |   0x00400140 |   0x00400140 |   0x00400140 |   0x00400140 |   0x00400140 |   0x00400140 |   0x00400140 |   0x00400140 |   0x00400140 |   0x00400140 |   0x00400140 |   0x00400140 |   0x00400140 |   0x00400140 |   0x00400140 |   0x00400140 |   0x00400140 |   0x00400140 |   0x00400140 |   0x00400140 |   0x00400140 |   0x00400140 |   0x00400140 |   0x00400140 |   0x00400140 |   0x00400140 |   0x00400140 |   0x00400140 |   0x00400140 |   0x00400140 |   0x00400140 |   0x00400140 |   0x00400140 |
ld_environ_base                         0x7fff8000 |   0x7fff8000 |   0x7fff8000 |   0x7fff8000 |   0x7fff8000 |   0x7fff8000 |   0x7fff8000 |   0x7fff8000 |   0x7fff8000 |   0x7fff8000 |   0x7fff8000 |   0x7fff8000 |   0x7fff8000 |   0x7fff8000 |   0x7fff8000 |   0x7fff8000 |   0x7fff8000 |   0x7fff8000 |   0x7fff8000 |   0x7fff8000 |   0x7fff8000 |   0x7fff8000 |   0x7fff8000 |   0x7fff8000 |   0x7fff8000 |   0x7fff8000 |   0x7fff8000 |   0x7fff8000 |   0x7fff8000 |   0x7fff8000 |   0x7fff8000 |   0x7fff8000 |   0x7fff8000 |   0x7fff8000 |   0x7fff8000 |   0x7fff8000 |   0x7fff8000 |   0x7fff8000 |   0x7fff8000 |   0x7fff8000 |   0x7fff8000 |   0x7fff8000 |   0x7fff8000 |   0x7fff8000 |
ld_target_big_endian                             0 |            0 |            0 |            0 |            0 |            0 |            0 |            0 |            0 |            0 |            0 |            0 |            0 |            0 |            0 |            0 |            0 |            0 |            0 |            0 |            0 |            0 |            0 |            0 |            0 |            0 |            0 |            0 |            0 |            0 |            0 |            0 |            0 |            0 |            0 |            0 |            0 |            0 |            0 |            0 |            0 |            0 |            0 |            0 |
mem.page_count                                  30 |           30 |           30 |           30 |           34 |           34 |           34 |           34 |           42 |           42 |           42 |           42 |           58 |           58 |           58 |           58 |           90 |           90 |           90 |           90 |          154 |          154 |          154 |          154 |          282 |          282 |          282 |          282 |          538 |          538 |          538 |          538 |         1050 |         1050 |         1050 |         1050 |         2074 |         2074 |         2074 |         2074 |         4122 |         4122 |         4122 |         4122 |
mem.page_mem                                  120k |         120k |         120k |         120k |         136k |         136k |         136k |         136k |         168k |         168k |         168k |         168k |         232k |         232k |         232k |         232k |         360k |         360k |         360k |         360k |         616k |         616k |         616k |         616k |        1128k |        1128k |        1128k |        1128k |        2152k |        2152k |        2152k |        2152k |        4200k |        4200k |        4200k |        4200k |        8296k |        8296k |        8296k |        8296k |       16488k |       16488k |       16488k |       16488k |
mem.ptab_misses                                 30 |           30 |           30 |           30 |           34 |           34 |           34 |           34 |           42 |           42 |           42 |           42 |           58 |           58 |           58 |           58 |           90 |           90 |           90 |           90 |          154 |          154 |          154 |          154 |          282 |          282 |          282 |          282 |          538 |          538 |          538 |          538 |         1050 |         1050 |         1050 |         1050 |         2074 |         2074 |         2074 |         2074 |         4122 |         4122 |         4122 |         4122 |
mem.ptab_accesses                          2721982 |      2721982 |      2721982 |      2721982 |      5438822 |      5438822 |      5438822 |      5438822 |     11293814 |     11293814 |     11293814 |     11293814 |     23672760 |     23672760 |     23672760 |     23672760 |     48729220 |     48729220 |     48729220 |     48729220 |    103858246 |    103858246 |    103858246 |    103858246 |    222235722 |    222235722 |    222235722 |    222235722 |    457697338 |    457697338 |    457697338 |    457697338 |    967110840 |    967110840 |    967110840 |    967110840 |   2014051520 |   2014051520 |   2014051520 |   2014051520 |   4175822176 |   4175822176 |   4175822176 |   4175822176 |
mem.ptab_miss_rate                          0.0000 |       0.0000 |       0.0000 |       0.0000 |       0.0000 |       0.0000 |       0.0000 |       0.0000 |       0.0000 |       0.0000 |       0.0000 |       0.0000 |       0.0000 |       0.0000 |       0.0000 |       0.0000 |       0.0000 |       0.0000 |       0.0000 |       0.0000 |       0.0000 |       0.0000 |       0.0000 |       0.0000 |       0.0000 |       0.0000 |       0.0000 |       0.0000 |       0.0000 |       0.0000 |       0.0000 |       0.0000 |       0.0000 |       0.0000 |       0.0000 |       0.0000 |       0.0000 |       0.0000 |       0.0000 |       0.0000 |       0.0000 |       0.0000 |       0.0000 |       0.0000 |
-------------------------------------------------------------------------------------------------
sim-bpred                                     4096 |         4096 |         4096 |         4096 |         4096 |         4096 |         4096 |         8192 |         8192 |         8192 |         8192 |         8192 |         8192 |         8192 |        16384 |        16384 |        16384 |        16384 |        16384 |        16384 |        16384 |        32768 |        32768 |        32768 |        32768 |        32768 |        32768 |        32768 |        65536 |        65536 |        65536 |        65536 |        65536 |        65536 |        65536 |       131072 |       131072 |       131072 |       131072 |       131072 |       131072 |       131072 |       262144 |       262144 |       262144 |       262144 |       262144 |       262144 |       262144 |       524288 |       524288 |       524288 |       524288 |       524288 |       524288 |       524288 |      1048576 |      1048576 |      1048576 |      1048576 |      1048576 |      1048576 |      1048576 |      2097152 |      2097152 |      2097152 |      2097152 |      2097152 |      2097152 |      2097152 |      4194304 |      4194304 |      4194304 |      4194304 |      4194304 |      4194304 |      4194304 |
-bpred bimod -bpred:bimod 512
-bpred bimod -bpred:bimod 1024
-bpred bimod -bpred:bimod 2048
-bpred 2lev -bpred:2lev 1 512 10 1
-bpred 2lev -bpred:2lev 1 1024 10 1
-bpred 2lev -bpred:2lev 1 2048 10 1
-bpred 2lev -bpred:2lev 1 4096 10 1
-------------------------------------------------------------------------------------------------
sim_num_insn                                495362 |       495362 |       495362 |       495362 |       495362 |       495362 |       495362 |      1093071 |      1093071 |      1093071 |      1093071 |      1093071 |      1093071 |      1093071 |      2385136 |      2385136 |      2385136 |      2385136 |      2385136 |      2385136 |      2385136 |      5114866 |      5114866 |      5114866 |      5114866 |      5114866 |      5114866 |      5114866 |     10638341 |     10638341 |     10638341 |     10638341 |     10638341 |     10638341 |     10638341 |     22835985 |     22835985 |     22835985 |     22835985 |     22835985 |     22835985 |     22835985 |     49058534 |     49058534 |     49058534 |     49058534 |     49058534 |     49058534 |     49058534 |    101115934 |    101115934 |    101115934 |    101115934 |    101115934 |    101115934 |    101115934 |    213945488 |    213945488 |    213945488 |    213945488 |    213945488 |    213945488 |    213945488 |    445902901 |    445902901 |    445902901 |    445902901 |    445902901 |    445902901 |    445902901 |    924602660 |    924602660 |    924602660 |    924602660 |    924602660 |    924602660 |    924602660 |
sim_num_refs                                127087 |       127087 |       127087 |       127087 |       127087 |       127087 |       127087 |       273609 |       273609 |       273609 |       273609 |       273609 |       273609 |       273609 |       584159 |       584159 |       584159 |       584159 |       584159 |       584159 |       584159 |      1248588 |      1248588 |      1248588 |      1248588 |      1248588 |      1248588 |      1248588 |      2598796 |      2598796 |      2598796 |      2598796 |      2598796 |      2598796 |      2598796 |      5505877 |      5505877 |      5505877 |      5505877 |      5505877 |      5505877 |      5505877 |     11725229 |     11725229 |     11725229 |     11725229 |     11725229 |     11725229 |     11725229 |     24292661 |     24292661 |     24292661 |     24292661 |     24292661 |     24292661 |     24292661 |     51243152 |     51243152 |     51243152 |     51243152 |     51243152 |     51243152 |     51243152 |    106604362 |    106604362 |    106604362 |    106604362 |    106604362 |    106604362 |    106604362 |    221701564 |    221701564 |    221701564 |    221701564 |    221701564 |    221701564 |    221701564 |
sim_elapsed_time                                 1 |            1 |            1 |            1 |            1 |            1 |            1 |            1 |            1 |            1 |            1 |            1 |            1 |            1 |            1 |            1 |            1 |            1 |            1 |            1 |            1 |            1 |            1 |            1 |            1 |            1 |            1 |            1 |            1 |            1 |            2 |            1 |            1 |            1 |            1 |            3 |            3 |            3 |            3 |            3 |            3 |            3 |            6 |            6 |            7 |            6 |            6 |            6 |            7 |           13 |           12 |           13 |           13 |           13 |           13 |           13 |           27 |           26 |           27 |           27 |           27 |           36 |           27 |           56 |           55 |           56 |           57 |           56 |           57 |           57 |          116 |          115 |          115 |          117 |          117 |          118 |          118 |
sim_inst_rate                          495362.0000 |  495362.0000 |  495362.0000 |  495362.0000 |  495362.0000 |  495362.0000 |  495362.0000 | 1093071.0000 | 1093071.0000 | 1093071.0000 | 1093071.0000 | 1093071.0000 | 1093071.0000 | 1093071.0000 | 2385136.0000 | 2385136.0000 | 2385136.0000 | 2385136.0000 | 2385136.0000 | 2385136.0000 | 2385136.0000 | 5114866.0000 | 5114866.0000 | 5114866.0000 | 5114866.0000 | 5114866.0000 | 5114866.0000 | 5114866.0000 |10638341.0000 |10638341.0000 | 5319170.5000 |10638341.0000 |10638341.0000 |10638341.0000 |10638341.0000 | 7611995.0000 | 7611995.0000 | 7611995.0000 | 7611995.0000 | 7611995.0000 | 7611995.0000 | 7611995.0000 | 8176422.3333 | 8176422.3333 | 7008362.0000 | 8176422.3333 | 8176422.3333 | 8176422.3333 | 7008362.0000 | 7778148.7692 | 8426327.8333 | 7778148.7692 | 7778148.7692 | 7778148.7692 | 7778148.7692 | 7778148.7692 | 7923906.9630 | 8228672.6154 | 7923906.9630 | 7923906.9630 | 7923906.9630 | 5942930.2222 | 7923906.9630 | 7962551.8036 | 8107325.4727 | 7962551.8036 | 7822857.9123 | 7962551.8036 | 7822857.9123 | 7822857.9123 | 7970712.5862 | 8040023.1304 | 8040023.1304 | 7902586.8376 | 7902586.8376 | 7835615.7627 | 7835615.7627 |
sim_num_branches                             97076 |        97076 |        97076 |        97076 |        97076 |        97076 |        97076 |       218658 |       218658 |       218658 |       218658 |       218658 |       218658 |       218658 |       480462 |       480462 |       480462 |       480462 |       480462 |       480462 |       480462 |      1019058 |      1019058 |      1019058 |      1019058 |      1019058 |      1019058 |      1019058 |      2163343 |      2163343 |      2163343 |      2163343 |      2163343 |      2163343 |      2163343 |      4727162 |      4727162 |      4727162 |      4727162 |      4727162 |      4727162 |      4727162 |     10154026 |     10154026 |     10154026 |     10154026 |     10154026 |     10154026 |     10154026 |     21114476 |     21114476 |     21114476 |     21114476 |     21114476 |     21114476 |     21114476 |     44331695 |     44331695 |     44331695 |     44331695 |     44331695 |     44331695 |     44331695 |     93332525 |     93332525 |     93332525 |     93332525 |     93332525 |     93332525 |     93332525 |    193227581 |    193227581 |    193227581 |    193227581 |    193227581 |    193227581 |    193227581 |
sim_IPB                                     5.1028 |       5.1028 |       5.1028 |       5.1028 |       5.1028 |       5.1028 |       5.1028 |       4.9990 |       4.9990 |       4.9990 |       4.9990 |       4.9990 |       4.9990 |       4.9990 |       4.9643 |       4.9643 |       4.9643 |       4.9643 |       4.9643 |       4.9643 |       4.9643 |       5.0192 |       5.0192 |       5.0192 |       5.0192 |       5.0192 |       5.0192 |       5.0192 |       4.9175 |       4.9175 |       4.9175 |       4.9175 |       4.9175 |       4.9175 |       4.9175 |       4.8308 |       4.8308 |       4.8308 |       4.8308 |       4.8308 |       4.8308 |       4.8308 |       4.8314 |       4.8314 |       4.8314 |       4.8314 |       4.8314 |       4.8314 |       4.8314 |       4.7889 |       4.7889 |       4.7889 |       4.7889 |       4.7889 |       4.7889 |       4.7889 |       4.8260 |       4.8260 |       4.8260 |       4.8260 |       4.8260 |       4.8260 |       4.8260 |       4.7776 |       4.7776 |       4.7776 |       4.7776 |       4.7776 |       4.7776 |       4.7776 |       4.7850 |       4.7850 |       4.7850 |       4.7850 |       4.7850 |       4.7850 |       4.7850 |
bpred_bimod.lookups                          97076 |        97076 |        97076 |xxxxxxxxxxxxx |xxxxxxxxxxxxx |xxxxxxxxxxxxx |xxxxxxxxxxxxx |       218658 |       218658 |       218658 |xxxxxxxxxxxxx |xxxxxxxxxxxxx |xxxxxxxxxxxxx |xxxxxxxxxxxxx |       480462 |       480462 |       480462 |xxxxxxxxxxxxx |xxxxxxxxxxxxx |xxxxxxxxxxxxx |xxxxxxxxxxxxx |      1019058 |      1019058 |      1019058 |xxxxxxxxxxxxx |xxxxxxxxxxxxx |xxxxxxxxxxxxx |xxxxxxxxxxxxx |      2163343 |      2163343 |      2163343 |xxxxxxxxxxxxx |xxxxxxxxxxxxx |xxxxxxxxxxxxx |xxxxxxxxxxxxx |      4727162 |      4727162 |      4727162 |xxxxxxxxxxxxx |xxxxxxxxxxxxx |xxxxxxxxxxxxx |xxxxxxxxxxxxx |     10154026 |     10154026 |     10154026 |xxxxxxxxxxxxx |xxxxxxxxxxxxx |xxxxxxxxxxxxx |xxxxxxxxxxxxx |     21114476 |     21114476 |     21114476 |xxxxxxxxxxxxx |xxxxxxxxxxxxx |xxxxxxxxxxxxx |xxxxxxxxxxxxx |     44331695 |     44331695 |     44331695 |xxxxxxxxxxxxx |xxxxxxxxxxxxx |xxxxxxxxxxxxx |xxxxxxxxxxxxx |     93332525 |     93332525 |     93332525 |xxxxxxxxxxxxx |xxxxxxxxxxxxx |xxxxxxxxxxxxx |xxxxxxxxxxxxx |    193227581 |    193227581 |    193227581 |
bpred_bimod.updates                          97076 |        97076 |        97076 |xxxxxxxxxxxxx |xxxxxxxxxxxxx |xxxxxxxxxxxxx |xxxxxxxxxxxxx |       218658 |       218658 |       218658 |xxxxxxxxxxxxx |xxxxxxxxxxxxx |xxxxxxxxxxxxx |xxxxxxxxxxxxx |       480462 |       480462 |       480462 |xxxxxxxxxxxxx |xxxxxxxxxxxxx |xxxxxxxxxxxxx |xxxxxxxxxxxxx |      1019058 |      1019058 |      1019058 |xxxxxxxxxxxxx |xxxxxxxxxxxxx |xxxxxxxxxxxxx |xxxxxxxxxxxxx |      2163343 |      2163343 |      2163343 |xxxxxxxxxxxxx |xxxxxxxxxxxxx |xxxxxxxxxxxxx |xxxxxxxxxxxxx |      4727162 |      4727162 |      4727162 |xxxxxxxxxxxxx |xxxxxxxxxxxxx |xxxxxxxxxxxxx |xxxxxxxxxxxxx |     10154026 |     10154026 |     10154026 |xxxxxxxxxxxxx |xxxxxxxxxxxxx |xxxxxxxxxxxxx |xxxxxxxxxxxxx |     21114476 |     21114476 |     21114476 |xxxxxxxxxxxxx |xxxxxxxxxxxxx |xxxxxxxxxxxxx |xxxxxxxxxxxxx |     44331695 |     44331695 |     44331695 |xxxxxxxxxxxxx |xxxxxxxxxxxxx |xxxxxxxxxxxxx |xxxxxxxxxxxxx |     93332525 |     93332525 |     93332525 |xxxxxxxxxxxxx |xxxxxxxxxxxxx |xxxxxxxxxxxxx |xxxxxxxxxxxxx |    193227581 |    193227581 |    193227581 |
bpred_bimod.addr_hits                        75459 |        75460 |        75462 |xxxxxxxxxxxxx |xxxxxxxxxxxxx |xxxxxxxxxxxxx |xxxxxxxxxxxxx |       171984 |       171983 |       171984 |xxxxxxxxxxxxx |xxxxxxxxxxxxx |xxxxxxxxxxxxx |xxxxxxxxxxxxx |       383110 |       383113 |       383113 |xxxxxxxxxxxxx |xxxxxxxxxxxxx |xxxxxxxxxxxxx |xxxxxxxxxxxxx |       806605 |       806606 |       806608 |xxxxxxxxxxxxx |xxxxxxxxxxxxx |xxxxxxxxxxxxx |xxxxxxxxxxxxx |      1718740 |      1718741 |      1718743 |xxxxxxxxxxxxx |xxxxxxxxxxxxx |xxxxxxxxxxxxx |xxxxxxxxxxxxx |      3789525 |      3789526 |      3789531 |xxxxxxxxxxxxx |xxxxxxxxxxxxx |xxxxxxxxxxxxx |xxxxxxxxxxxxx |      8188921 |      8188922 |      8188924 |xxxxxxxxxxxxx |xxxxxxxxxxxxx |xxxxxxxxxxxxx |xxxxxxxxxxxxx |     16941427 |     16941428 |     16941428 |xxxxxxxxxxxxx |xxxxxxxxxxxxx |xxxxxxxxxxxxx |xxxxxxxxxxxxx |     35514685 |     35514686 |     35514689 |xxxxxxxxxxxxx |xxxxxxxxxxxxx |xxxxxxxxxxxxx |xxxxxxxxxxxxx |     74967229 |     74967230 |     74967231 |xxxxxxxxxxxxx |xxxxxxxxxxxxx |xxxxxxxxxxxxx |xxxxxxxxxxxxx |    154095566 |    154095567 |    154095567 |
bpred_bimod.dir_hits                         75572 |        75570 |        75572 |xxxxxxxxxxxxx |xxxxxxxxxxxxx |xxxxxxxxxxxxx |xxxxxxxxxxxxx |       172096 |       172093 |       172095 |xxxxxxxxxxxxx |xxxxxxxxxxxxx |xxxxxxxxxxxxx |xxxxxxxxxxxxx |       383223 |       383223 |       383224 |xxxxxxxxxxxxx |xxxxxxxxxxxxx |xxxxxxxxxxxxx |xxxxxxxxxxxxx |       806717 |       806716 |       806717 |xxxxxxxxxxxxx |xxxxxxxxxxxxx |xxxxxxxxxxxxx |xxxxxxxxxxxxx |      1718851 |      1718850 |      1718851 |xxxxxxxxxxxxx |xxxxxxxxxxxxx |xxxxxxxxxxxxx |xxxxxxxxxxxxx |      3789639 |      3789638 |      3789642 |xxxxxxxxxxxxx |xxxxxxxxxxxxx |xxxxxxxxxxxxx |xxxxxxxxxxxxx |      8189034 |      8189033 |      8189034 |xxxxxxxxxxxxx |xxxxxxxxxxxxx |xxxxxxxxxxxxx |xxxxxxxxxxxxx |     16941540 |     16941539 |     16941538 |xxxxxxxxxxxxx |xxxxxxxxxxxxx |xxxxxxxxxxxxx |xxxxxxxxxxxxx |     35514797 |     35514796 |     35514799 |xxxxxxxxxxxxx |xxxxxxxxxxxxx |xxxxxxxxxxxxx |xxxxxxxxxxxxx |     74967343 |     74967342 |     74967342 |xxxxxxxxxxxxx |xxxxxxxxxxxxx |xxxxxxxxxxxxx |xxxxxxxxxxxxx |    154095679 |    154095678 |    154095677 |
bpred_bimod.misses                           21504 |        21506 |        21504 |xxxxxxxxxxxxx |xxxxxxxxxxxxx |xxxxxxxxxxxxx |xxxxxxxxxxxxx |        46562 |        46565 |        46563 |xxxxxxxxxxxxx |xxxxxxxxxxxxx |xxxxxxxxxxxxx |xxxxxxxxxxxxx |        97239 |        97239 |        97238 |xxxxxxxxxxxxx |xxxxxxxxxxxxx |xxxxxxxxxxxxx |xxxxxxxxxxxxx |       212341 |       212342 |       212341 |xxxxxxxxxxxxx |xxxxxxxxxxxxx |xxxxxxxxxxxxx |xxxxxxxxxxxxx |       444492 |       444493 |       444492 |xxxxxxxxxxxxx |xxxxxxxxxxxxx |xxxxxxxxxxxxx |xxxxxxxxxxxxx |       937523 |       937524 |       937520 |xxxxxxxxxxxxx |xxxxxxxxxxxxx |xxxxxxxxxxxxx |xxxxxxxxxxxxx |      1964992 |      1964993 |      1964992 |xxxxxxxxxxxxx |xxxxxxxxxxxxx |xxxxxxxxxxxxx |xxxxxxxxxxxxx |      4172936 |      4172937 |      4172938 |xxxxxxxxxxxxx |xxxxxxxxxxxxx |xxxxxxxxxxxxx |xxxxxxxxxxxxx |      8816898 |      8816899 |      8816896 |xxxxxxxxxxxxx |xxxxxxxxxxxxx |xxxxxxxxxxxxx |xxxxxxxxxxxxx |     18365182 |     18365183 |     18365183 |xxxxxxxxxxxxx |xxxxxxxxxxxxx |xxxxxxxxxxxxx |xxxxxxxxxxxxx |     39131902 |     39131903 |     39131904 |
bpred_bimod.jr_hits                             64 |           64 |           64 |xxxxxxxxxxxxx |xxxxxxxxxxxxx |xxxxxxxxxxxxx |xxxxxxxxxxxxx |           64 |           64 |           64 |xxxxxxxxxxxxx |xxxxxxxxxxxxx |xxxxxxxxxxxxx |xxxxxxxxxxxxx |           64 |           64 |           64 |xxxxxxxxxxxxx |xxxxxxxxxxxxx |xxxxxxxxxxxxx |xxxxxxxxxxxxx |           64 |           64 |           64 |xxxxxxxxxxxxx |xxxxxxxxxxxxx |xxxxxxxxxxxxx |xxxxxxxxxxxxx |           64 |           64 |           64 |xxxxxxxxxxxxx |xxxxxxxxxxxxx |xxxxxxxxxxxxx |xxxxxxxxxxxxx |           64 |           64 |           64 |xxxxxxxxxxxxx |xxxxxxxxxxxxx |xxxxxxxxxxxxx |xxxxxxxxxxxxx |           64 |           64 |           64 |xxxxxxxxxxxxx |xxxxxxxxxxxxx |xxxxxxxxxxxxx |xxxxxxxxxxxxx |           64 |           64 |           64 |xxxxxxxxxxxxx |xxxxxxxxxxxxx |xxxxxxxxxxxxx |xxxxxxxxxxxxx |           64 |           64 |           64 |xxxxxxxxxxxxx |xxxxxxxxxxxxx |xxxxxxxxxxxxx |xxxxxxxxxxxxx |           64 |           64 |           64 |xxxxxxxxxxxxx |xxxxxxxxxxxxx |xxxxxxxxxxxxx |xxxxxxxxxxxxx |           64 |           64 |           64 |
bpred_bimod.jr_seen                             64 |           64 |           64 |xxxxxxxxxxxxx |xxxxxxxxxxxxx |xxxxxxxxxxxxx |xxxxxxxxxxxxx |           64 |           64 |           64 |xxxxxxxxxxxxx |xxxxxxxxxxxxx |xxxxxxxxxxxxx |xxxxxxxxxxxxx |           64 |           64 |           64 |xxxxxxxxxxxxx |xxxxxxxxxxxxx |xxxxxxxxxxxxx |xxxxxxxxxxxxx |           64 |           64 |           64 |xxxxxxxxxxxxx |xxxxxxxxxxxxx |xxxxxxxxxxxxx |xxxxxxxxxxxxx |           64 |           64 |           64 |xxxxxxxxxxxxx |xxxxxxxxxxxxx |xxxxxxxxxxxxx |xxxxxxxxxxxxx |           64 |           64 |           64 |xxxxxxxxxxxxx |xxxxxxxxxxxxx |xxxxxxxxxxxxx |xxxxxxxxxxxxx |           64 |           64 |           64 |xxxxxxxxxxxxx |xxxxxxxxxxxxx |xxxxxxxxxxxxx |xxxxxxxxxxxxx |           64 |           64 |           64 |xxxxxxxxxxxxx |xxxxxxxxxxxxx |xxxxxxxxxxxxx |xxxxxxxxxxxxx |           64 |           64 |           64 |xxxxxxxxxxxxx |xxxxxxxxxxxxx |xxxxxxxxxxxxx |xxxxxxxxxxxxx |           64 |           64 |           64 |xxxxxxxxxxxxx |xxxxxxxxxxxxx |xxxxxxxxxxxxx |xxxxxxxxxxxxx |           64 |           64 |           64 |
bpred_bimod.jr_non_ras_hits.PP                   0 |            0 |            0 |xxxxxxxxxxxxx |xxxxxxxxxxxxx |xxxxxxxxxxxxx |xxxxxxxxxxxxx |            0 |            0 |            0 |xxxxxxxxxxxxx |xxxxxxxxxxxxx |xxxxxxxxxxxxx |xxxxxxxxxxxxx |            0 |            0 |            0 |xxxxxxxxxxxxx |xxxxxxxxxxxxx |xxxxxxxxxxxxx |xxxxxxxxxxxxx |            0 |            0 |            0 |xxxxxxxxxxxxx |xxxxxxxxxxxxx |xxxxxxxxxxxxx |xxxxxxxxxxxxx |            0 |            0 |            0 |xxxxxxxxxxxxx |xxxxxxxxxxxxx |xxxxxxxxxxxxx |xxxxxxxxxxxxx |            0 |            0 |            0 |xxxxxxxxxxxxx |xxxxxxxxxxxxx |xxxxxxxxxxxxx |xxxxxxxxxxxxx |            0 |            0 |            0 |xxxxxxxxxxxxx |xxxxxxxxxxxxx |xxxxxxxxxxxxx |xxxxxxxxxxxxx |            0 |            0 |            0 |xxxxxxxxxxxxx |xxxxxxxxxxxxx |xxxxxxxxxxxxx |xxxxxxxxxxxxx |            0 |            0 |            0 |xxxxxxxxxxxxx |xxxxxxxxxxxxx |xxxxxxxxxxxxx |xxxxxxxxxxxxx |            0 |            0 |            0 |xxxxxxxxxxxxx |xxxxxxxxxxxxx |xxxxxxxxxxxxx |xxxxxxxxxxxxx |            0 |            0 |            0 |
bpred_bimod.jr_non_ras_seen.PP                   0 |            0 |            0 |xxxxxxxxxxxxx |xxxxxxxxxxxxx |xxxxxxxxxxxxx |xxxxxxxxxxxxx |            0 |            0 |            0 |xxxxxxxxxxxxx |xxxxxxxxxxxxx |xxxxxxxxxxxxx |xxxxxxxxxxxxx |            0 |            0 |            0 |xxxxxxxxxxxxx |xxxxxxxxxxxxx |xxxxxxxxxxxxx |xxxxxxxxxxxxx |            0 |            0 |            0 |xxxxxxxxxxxxx |xxxxxxxxxxxxx |xxxxxxxxxxxxx |xxxxxxxxxxxxx |            0 |            0 |            0 |xxxxxxxxxxxxx |xxxxxxxxxxxxx |xxxxxxxxxxxxx |xxxxxxxxxxxxx |            0 |            0 |            0 |xxxxxxxxxxxxx |xxxxxxxxxxxxx |xxxxxxxxxxxxx |xxxxxxxxxxxxx |            0 |            0 |            0 |xxxxxxxxxxxxx |xxxxxxxxxxxxx |xxxxxxxxxxxxx |xxxxxxxxxxxxx |            0 |            0 |            0 |xxxxxxxxxxxxx |xxxxxxxxxxxxx |xxxxxxxxxxxxx |xxxxxxxxxxxxx |            0 |            0 |            0 |xxxxxxxxxxxxx |xxxxxxxxxxxxx |xxxxxxxxxxxxx |xxxxxxxxxxxxx |            0 |            0 |            0 |xxxxxxxxxxxxx |xxxxxxxxxxxxx |xxxxxxxxxxxxx |xxxxxxxxxxxxx |            0 |            0 |            0 |
bpred_bimod.bpred_addr_rate                 0.7773 |       0.7773 |       0.7773 |xxxxxxxxxxxxx |xxxxxxxxxxxxx |xxxxxxxxxxxxx |xxxxxxxxxxxxx |       0.7865 |       0.7865 |       0.7865 |xxxxxxxxxxxxx |xxxxxxxxxxxxx |xxxxxxxxxxxxx |xxxxxxxxxxxxx |       0.7974 |       0.7974 |       0.7974 |xxxxxxxxxxxxx |xxxxxxxxxxxxx |xxxxxxxxxxxxx |xxxxxxxxxxxxx |       0.7915 |       0.7915 |       0.7915 |xxxxxxxxxxxxx |xxxxxxxxxxxxx |xxxxxxxxxxxxx |xxxxxxxxxxxxx |       0.7945 |       0.7945 |       0.7945 |xxxxxxxxxxxxx |xxxxxxxxxxxxx |xxxxxxxxxxxxx |xxxxxxxxxxxxx |       0.8016 |       0.8016 |       0.8017 |xxxxxxxxxxxxx |xxxxxxxxxxxxx |xxxxxxxxxxxxx |xxxxxxxxxxxxx |       0.8065 |       0.8065 |       0.8065 |xxxxxxxxxxxxx |xxxxxxxxxxxxx |xxxxxxxxxxxxx |xxxxxxxxxxxxx |       0.8024 |       0.8024 |       0.8024 |xxxxxxxxxxxxx |xxxxxxxxxxxxx |xxxxxxxxxxxxx |xxxxxxxxxxxxx |       0.8011 |       0.8011 |       0.8011 |xxxxxxxxxxxxx |xxxxxxxxxxxxx |xxxxxxxxxxxxx |xxxxxxxxxxxxx |       0.8032 |       0.8032 |       0.8032 |xxxxxxxxxxxxx |xxxxxxxxxxxxx |xxxxxxxxxxxxx |xxxxxxxxxxxxx |       0.7975 |       0.7975 |       0.7975 |
bpred_bimod.bpred_dir_rate                  0.7785 |       0.7785 |       0.7785 |xxxxxxxxxxxxx |xxxxxxxxxxxxx |xxxxxxxxxxxxx |xxxxxxxxxxxxx |       0.7871 |       0.7870 |       0.7871 |xxxxxxxxxxxxx |xxxxxxxxxxxxx |xxxxxxxxxxxxx |xxxxxxxxxxxxx |       0.7976 |       0.7976 |       0.7976 |xxxxxxxxxxxxx |xxxxxxxxxxxxx |xxxxxxxxxxxxx |xxxxxxxxxxxxx |       0.7916 |       0.7916 |       0.7916 |xxxxxxxxxxxxx |xxxxxxxxxxxxx |xxxxxxxxxxxxx |xxxxxxxxxxxxx |       0.7945 |       0.7945 |       0.7945 |xxxxxxxxxxxxx |xxxxxxxxxxxxx |xxxxxxxxxxxxx |xxxxxxxxxxxxx |       0.8017 |       0.8017 |       0.8017 |xxxxxxxxxxxxx |xxxxxxxxxxxxx |xxxxxxxxxxxxx |xxxxxxxxxxxxx |       0.8065 |       0.8065 |       0.8065 |xxxxxxxxxxxxx |xxxxxxxxxxxxx |xxxxxxxxxxxxx |xxxxxxxxxxxxx |       0.8024 |       0.8024 |       0.8024 |xxxxxxxxxxxxx |xxxxxxxxxxxxx |xxxxxxxxxxxxx |xxxxxxxxxxxxx |       0.8011 |       0.8011 |       0.8011 |xxxxxxxxxxxxx |xxxxxxxxxxxxx |xxxxxxxxxxxxx |xxxxxxxxxxxxx |       0.8032 |       0.8032 |       0.8032 |xxxxxxxxxxxxx |xxxxxxxxxxxxx |xxxxxxxxxxxxx |xxxxxxxxxxxxx |       0.7975 |       0.7975 |       0.7975 |
bpred_bimod.bpred_jr_rate                   1.0000 |       1.0000 |       1.0000 |xxxxxxxxxxxxx |xxxxxxxxxxxxx |xxxxxxxxxxxxx |xxxxxxxxxxxxx |       1.0000 |       1.0000 |       1.0000 |xxxxxxxxxxxxx |xxxxxxxxxxxxx |xxxxxxxxxxxxx |xxxxxxxxxxxxx |       1.0000 |       1.0000 |       1.0000 |xxxxxxxxxxxxx |xxxxxxxxxxxxx |xxxxxxxxxxxxx |xxxxxxxxxxxxx |       1.0000 |       1.0000 |       1.0000 |xxxxxxxxxxxxx |xxxxxxxxxxxxx |xxxxxxxxxxxxx |xxxxxxxxxxxxx |       1.0000 |       1.0000 |       1.0000 |xxxxxxxxxxxxx |xxxxxxxxxxxxx |xxxxxxxxxxxxx |xxxxxxxxxxxxx |       1.0000 |       1.0000 |       1.0000 |xxxxxxxxxxxxx |xxxxxxxxxxxxx |xxxxxxxxxxxxx |xxxxxxxxxxxxx |       1.0000 |       1.0000 |       1.0000 |xxxxxxxxxxxxx |xxxxxxxxxxxxx |xxxxxxxxxxxxx |xxxxxxxxxxxxx |       1.0000 |       1.0000 |       1.0000 |xxxxxxxxxxxxx |xxxxxxxxxxxxx |xxxxxxxxxxxxx |xxxxxxxxxxxxx |       1.0000 |       1.0000 |       1.0000 |xxxxxxxxxxxxx |xxxxxxxxxxxxx |xxxxxxxxxxxxx |xxxxxxxxxxxxx |       1.0000 |       1.0000 |       1.0000 |xxxxxxxxxxxxx |xxxxxxxxxxxxx |xxxxxxxxxxxxx |xxxxxxxxxxxxx |       1.0000 |       1.0000 |       1.0000 |
bpred_bimod.bpred_jr_non_ras_rate.PP       <error: |      <error: |      <error: |xxxxxxxxxxxxx |xxxxxxxxxxxxx |xxxxxxxxxxxxx |xxxxxxxxxxxxx |      <error: |      <error: |      <error: |xxxxxxxxxxxxx |xxxxxxxxxxxxx |xxxxxxxxxxxxx |xxxxxxxxxxxxx |      <error: |      <error: |      <error: |xxxxxxxxxxxxx |xxxxxxxxxxxxx |xxxxxxxxxxxxx |xxxxxxxxxxxxx |      <error: |      <error: |      <error: |xxxxxxxxxxxxx |xxxxxxxxxxxxx |xxxxxxxxxxxxx |xxxxxxxxxxxxx |      <error: |      <error: |      <error: |xxxxxxxxxxxxx |xxxxxxxxxxxxx |xxxxxxxxxxxxx |xxxxxxxxxxxxx |      <error: |      <error: |      <error: |xxxxxxxxxxxxx |xxxxxxxxxxxxx |xxxxxxxxxxxxx |xxxxxxxxxxxxx |      <error: |      <error: |      <error: |xxxxxxxxxxxxx |xxxxxxxxxxxxx |xxxxxxxxxxxxx |xxxxxxxxxxxxx |      <error: |      <error: |      <error: |xxxxxxxxxxxxx |xxxxxxxxxxxxx |xxxxxxxxxxxxx |xxxxxxxxxxxxx |      <error: |      <error: |      <error: |xxxxxxxxxxxxx |xxxxxxxxxxxxx |xxxxxxxxxxxxx |xxxxxxxxxxxxx |      <error: |      <error: |      <error: |xxxxxxxxxxxxx |xxxxxxxxxxxxx |xxxxxxxxxxxxx |xxxxxxxxxxxxx |      <error: |      <error: |      <error: |
bpred_bimod.retstack_pushes                     66 |           66 |           66 |xxxxxxxxxxxxx |xxxxxxxxxxxxx |xxxxxxxxxxxxx |xxxxxxxxxxxxx |           66 |           66 |           66 |xxxxxxxxxxxxx |xxxxxxxxxxxxx |xxxxxxxxxxxxx |xxxxxxxxxxxxx |           66 |           66 |           66 |xxxxxxxxxxxxx |xxxxxxxxxxxxx |xxxxxxxxxxxxx |xxxxxxxxxxxxx |           66 |           66 |           66 |xxxxxxxxxxxxx |xxxxxxxxxxxxx |xxxxxxxxxxxxx |xxxxxxxxxxxxx |           66 |           66 |           66 |xxxxxxxxxxxxx |xxxxxxxxxxxxx |xxxxxxxxxxxxx |xxxxxxxxxxxxx |           66 |           66 |           66 |xxxxxxxxxxxxx |xxxxxxxxxxxxx |xxxxxxxxxxxxx |xxxxxxxxxxxxx |           66 |           66 |           66 |xxxxxxxxxxxxx |xxxxxxxxxxxxx |xxxxxxxxxxxxx |xxxxxxxxxxxxx |           66 |           66 |           66 |xxxxxxxxxxxxx |xxxxxxxxxxxxx |xxxxxxxxxxxxx |xxxxxxxxxxxxx |           66 |           66 |           66 |xxxxxxxxxxxxx |xxxxxxxxxxxxx |xxxxxxxxxxxxx |xxxxxxxxxxxxx |           66 |           66 |           66 |xxxxxxxxxxxxx |xxxxxxxxxxxxx |xxxxxxxxxxxxx |xxxxxxxxxxxxx |           66 |           66 |           66 |
bpred_bimod.retstack_pops                       64 |           64 |           64 |xxxxxxxxxxxxx |xxxxxxxxxxxxx |xxxxxxxxxxxxx |xxxxxxxxxxxxx |           64 |           64 |           64 |xxxxxxxxxxxxx |xxxxxxxxxxxxx |xxxxxxxxxxxxx |xxxxxxxxxxxxx |           64 |           64 |           64 |xxxxxxxxxxxxx |xxxxxxxxxxxxx |xxxxxxxxxxxxx |xxxxxxxxxxxxx |           64 |           64 |           64 |xxxxxxxxxxxxx |xxxxxxxxxxxxx |xxxxxxxxxxxxx |xxxxxxxxxxxxx |           64 |           64 |           64 |xxxxxxxxxxxxx |xxxxxxxxxxxxx |xxxxxxxxxxxxx |xxxxxxxxxxxxx |           64 |           64 |           64 |xxxxxxxxxxxxx |xxxxxxxxxxxxx |xxxxxxxxxxxxx |xxxxxxxxxxxxx |           64 |           64 |           64 |xxxxxxxxxxxxx |xxxxxxxxxxxxx |xxxxxxxxxxxxx |xxxxxxxxxxxxx |           64 |           64 |           64 |xxxxxxxxxxxxx |xxxxxxxxxxxxx |xxxxxxxxxxxxx |xxxxxxxxxxxxx |           64 |           64 |           64 |xxxxxxxxxxxxx |xxxxxxxxxxxxx |xxxxxxxxxxxxx |xxxxxxxxxxxxx |           64 |           64 |           64 |xxxxxxxxxxxxx |xxxxxxxxxxxxx |xxxxxxxxxxxxx |xxxxxxxxxxxxx |           64 |           64 |           64 |
bpred_bimod.used_ras.PP                         64 |           64 |           64 |xxxxxxxxxxxxx |xxxxxxxxxxxxx |xxxxxxxxxxxxx |xxxxxxxxxxxxx |           64 |           64 |           64 |xxxxxxxxxxxxx |xxxxxxxxxxxxx |xxxxxxxxxxxxx |xxxxxxxxxxxxx |           64 |           64 |           64 |xxxxxxxxxxxxx |xxxxxxxxxxxxx |xxxxxxxxxxxxx |xxxxxxxxxxxxx |           64 |           64 |           64 |xxxxxxxxxxxxx |xxxxxxxxxxxxx |xxxxxxxxxxxxx |xxxxxxxxxxxxx |           64 |           64 |           64 |xxxxxxxxxxxxx |xxxxxxxxxxxxx |xxxxxxxxxxxxx |xxxxxxxxxxxxx |           64 |           64 |           64 |xxxxxxxxxxxxx |xxxxxxxxxxxxx |xxxxxxxxxxxxx |xxxxxxxxxxxxx |           64 |           64 |           64 |xxxxxxxxxxxxx |xxxxxxxxxxxxx |xxxxxxxxxxxxx |xxxxxxxxxxxxx |           64 |           64 |           64 |xxxxxxxxxxxxx |xxxxxxxxxxxxx |xxxxxxxxxxxxx |xxxxxxxxxxxxx |           64 |           64 |           64 |xxxxxxxxxxxxx |xxxxxxxxxxxxx |xxxxxxxxxxxxx |xxxxxxxxxxxxx |           64 |           64 |           64 |xxxxxxxxxxxxx |xxxxxxxxxxxxx |xxxxxxxxxxxxx |xxxxxxxxxxxxx |           64 |           64 |           64 |
bpred_bimod.ras_hits.PP                         64 |           64 |           64 |xxxxxxxxxxxxx |xxxxxxxxxxxxx |xxxxxxxxxxxxx |xxxxxxxxxxxxx |           64 |           64 |           64 |xxxxxxxxxxxxx |xxxxxxxxxxxxx |xxxxxxxxxxxxx |xxxxxxxxxxxxx |           64 |           64 |           64 |xxxxxxxxxxxxx |xxxxxxxxxxxxx |xxxxxxxxxxxxx |xxxxxxxxxxxxx |           64 |           64 |           64 |xxxxxxxxxxxxx |xxxxxxxxxxxxx |xxxxxxxxxxxxx |xxxxxxxxxxxxx |           64 |           64 |           64 |xxxxxxxxxxxxx |xxxxxxxxxxxxx |xxxxxxxxxxxxx |xxxxxxxxxxxxx |           64 |           64 |           64 |xxxxxxxxxxxxx |xxxxxxxxxxxxx |xxxxxxxxxxxxx |xxxxxxxxxxxxx |           64 |           64 |           64 |xxxxxxxxxxxxx |xxxxxxxxxxxxx |xxxxxxxxxxxxx |xxxxxxxxxxxxx |           64 |           64 |           64 |xxxxxxxxxxxxx |xxxxxxxxxxxxx |xxxxxxxxxxxxx |xxxxxxxxxxxxx |           64 |           64 |           64 |xxxxxxxxxxxxx |xxxxxxxxxxxxx |xxxxxxxxxxxxx |xxxxxxxxxxxxx |           64 |           64 |           64 |xxxxxxxxxxxxx |xxxxxxxxxxxxx |xxxxxxxxxxxxx |xxxxxxxxxxxxx |           64 |           64 |           64 |
bpred_bimod.ras_rate.PP                     1.0000 |       1.0000 |       1.0000 |xxxxxxxxxxxxx |xxxxxxxxxxxxx |xxxxxxxxxxxxx |xxxxxxxxxxxxx |       1.0000 |       1.0000 |       1.0000 |xxxxxxxxxxxxx |xxxxxxxxxxxxx |xxxxxxxxxxxxx |xxxxxxxxxxxxx |       1.0000 |       1.0000 |       1.0000 |xxxxxxxxxxxxx |xxxxxxxxxxxxx |xxxxxxxxxxxxx |xxxxxxxxxxxxx |       1.0000 |       1.0000 |       1.0000 |xxxxxxxxxxxxx |xxxxxxxxxxxxx |xxxxxxxxxxxxx |xxxxxxxxxxxxx |       1.0000 |       1.0000 |       1.0000 |xxxxxxxxxxxxx |xxxxxxxxxxxxx |xxxxxxxxxxxxx |xxxxxxxxxxxxx |       1.0000 |       1.0000 |       1.0000 |xxxxxxxxxxxxx |xxxxxxxxxxxxx |xxxxxxxxxxxxx |xxxxxxxxxxxxx |       1.0000 |       1.0000 |       1.0000 |xxxxxxxxxxxxx |xxxxxxxxxxxxx |xxxxxxxxxxxxx |xxxxxxxxxxxxx |       1.0000 |       1.0000 |       1.0000 |xxxxxxxxxxxxx |xxxxxxxxxxxxx |xxxxxxxxxxxxx |xxxxxxxxxxxxx |       1.0000 |       1.0000 |       1.0000 |xxxxxxxxxxxxx |xxxxxxxxxxxxx |xxxxxxxxxxxxx |xxxxxxxxxxxxx |       1.0000 |       1.0000 |       1.0000 |xxxxxxxxxxxxx |xxxxxxxxxxxxx |xxxxxxxxxxxxx |xxxxxxxxxxxxx |       1.0000 |       1.0000 |       1.0000 |
bpred_2lev.lookups                   xxxxxxxxxxxxx |xxxxxxxxxxxxx |xxxxxxxxxxxxx |        97076 |        97076 |        97076 |        97076 |xxxxxxxxxxxxx |xxxxxxxxxxxxx |xxxxxxxxxxxxx |       218658 |       218658 |       218658 |       218658 |xxxxxxxxxxxxx |xxxxxxxxxxxxx |xxxxxxxxxxxxx |       480462 |       480462 |       480462 |       480462 |xxxxxxxxxxxxx |xxxxxxxxxxxxx |xxxxxxxxxxxxx |      1019058 |      1019058 |      1019058 |      1019058 |xxxxxxxxxxxxx |xxxxxxxxxxxxx |xxxxxxxxxxxxx |      2163343 |      2163343 |      2163343 |      2163343 |xxxxxxxxxxxxx |xxxxxxxxxxxxx |xxxxxxxxxxxxx |      4727162 |      4727162 |      4727162 |      4727162 |xxxxxxxxxxxxx |xxxxxxxxxxxxx |xxxxxxxxxxxxx |     10154026 |     10154026 |     10154026 |     10154026 |xxxxxxxxxxxxx |xxxxxxxxxxxxx |xxxxxxxxxxxxx |     21114476 |     21114476 |     21114476 |     21114476 |xxxxxxxxxxxxx |xxxxxxxxxxxxx |xxxxxxxxxxxxx |     44331695 |     44331695 |     44331695 |     44331695 |xxxxxxxxxxxxx |xxxxxxxxxxxxx |xxxxxxxxxxxxx |     93332525 |     93332525 |     93332525 |     93332525 |xxxxxxxxxxxxx |xxxxxxxxxxxxx |xxxxxxxxxxxxx |    193227581 |    193227581 |    193227581 |    193227581 |
[...]
bpred_2lev.retstack_pushes           xxxxxxxxxxxxx |xxxxxxxxxxxxx |xxxxxxxxxxxxx |           66 |           66 |           66 |           66 |xxxxxxxxxxxxx |xxxxxxxxxxxxx |xxxxxxxxxxxxx |           66 |           66 |           66 |           66 |xxxxxxxxxxxxx |xxxxxxxxxxxxx |xxxxxxxxxxxxx |           66 |           66 |           66 |           66 |xxxxxxxxxxxxx |xxxxxxxxxxxxx |xxxxxxxxxxxxx |           66 |           66 |           66 |           66 |xxxxxxxxxxxxx |xxxxxxxxxxxxx |xxxxxxxxxxxxx |           66 |           66 |           66 |           66 |xxxxxxxxxxxxx |xxxxxxxxxxxxx |xxxxxxxxxxxxx |           66 |           66 |           66 |           66 |xxxxxxxxxxxxx |xxxxxxxxxxxxx |xxxxxxxxxxxxx |           66 |           66 |           66 |           66 |xxxxxxxxxxxxx |xxxxxxxxxxxxx |xxxxxxxxxxxxx |           66 |           66 |           66 |           66 |xxxxxxxxxxxxx |xxxxxxxxxxxxx |xxxxxxxxxxxxx |           66 |           66 |           66 |           66 |xxxxxxxxxxxxx |xxxxxxxxxxxxx |xxxxxxxxxxxxx |           66 |           66 |           66 |           66 |xxxxxxxxxxxxx |xxxxxxxxxxxxx |xxxxxxxxxxxxx |           66 |           66 |           66 |           66 |
bpred_2lev.retstack_pops             xxxxxxxxxxxxx |xxxxxxxxxxxxx |xxxxxxxxxxxxx |           64 |           64 |           64 |           64 |xxxxxxxxxxxxx |xxxxxxxxxxxxx |xxxxxxxxxxxxx |           64 |           64 |           64 |           64 |xxxxxxxxxxxxx |xxxxxxxxxxxxx |xxxxxxxxxxxxx |           64 |           64 |           64 |           64 |xxxxxxxxxxxxx |xxxxxxxxxxxxx |xxxxxxxxxxxxx |           64 |           64 |           64 |           64 |xxxxxxxxxxxxx |xxxxxxxxxxxxx |xxxxxxxxxxxxx |           64 |           64 |           64 |           64 |xxxxxxxxxxxxx |xxxxxxxxxxxxx |xxxxxxxxxxxxx |           64 |           64 |           64 |           64 |xxxxxxxxxxxxx |xxxxxxxxxxxxx |xxxxxxxxxxxxx |           64 |           64 |           64 |           64 |xxxxxxxxxxxxx |xxxxxxxxxxxxx |xxxxxxxxxxxxx |           64 |           64 |           64 |           64 |xxxxxxxxxxxxx |xxxxxxxxxxxxx |xxxxxxxxxxxxx |           64 |           64 |           64 |           64 |xxxxxxxxxxxxx |xxxxxxxxxxxxx |xxxxxxxxxxxxx |           64 |           64 |           64 |           64 |xxxxxxxxxxxxx |xxxxxxxxxxxxx |xxxxxxxxxxxxx |           64 |           64 |           64 |           64 |
bpred_2lev.used_ras.PP               xxxxxxxxxxxxx |xxxxxxxxxxxxx |xxxxxxxxxxxxx |           64 |           64 |           64 |           64 |xxxxxxxxxxxxx |xxxxxxxxxxxxx |xxxxxxxxxxxxx |           64 |           64 |           64 |           64 |xxxxxxxxxxxxx |xxxxxxxxxxxxx |xxxxxxxxxxxxx |           64 |           64 |           64 |           64 |xxxxxxxxxxxxx |xxxxxxxxxxxxx |xxxxxxxxxxxxx |           64 |           64 |           64 |           64 |xxxxxxxxxxxxx |xxxxxxxxxxxxx |xxxxxxxxxxxxx |           64 |           64 |           64 |           64 |xxxxxxxxxxxxx |xxxxxxxxxxxxx |xxxxxxxxxxxxx |           64 |           64 |           64 |           64 |xxxxxxxxxxxxx |xxxxxxxxxxxxx |xxxxxxxxxxxxx |           64 |           64 |           64 |           64 |xxxxxxxxxxxxx |xxxxxxxxxxxxx |xxxxxxxxxxxxx |           64 |           64 |           64 |           64 |xxxxxxxxxxxxx |xxxxxxxxxxxxx |xxxxxxxxxxxxx |           64 |           64 |           64 |           64 |xxxxxxxxxxxxx |xxxxxxxxxxxxx |xxxxxxxxxxxxx |           64 |           64 |           64 |           64 |xxxxxxxxxxxxx |xxxxxxxxxxxxx |xxxxxxxxxxxxx |           64 |           64 |           64 |           64 |
bpred_2lev.ras_hits.PP               xxxxxxxxxxxxx |xxxxxxxxxxxxx |xxxxxxxxxxxxx |           64 |           64 |           64 |           64 |xxxxxxxxxxxxx |xxxxxxxxxxxxx |xxxxxxxxxxxxx |           64 |           64 |           64 |           64 |xxxxxxxxxxxxx |xxxxxxxxxxxxx |xxxxxxxxxxxxx |           64 |           64 |           64 |           64 |xxxxxxxxxxxxx |xxxxxxxxxxxxx |xxxxxxxxxxxxx |           64 |           64 |           64 |           64 |xxxxxxxxxxxxx |xxxxxxxxxxxxx |xxxxxxxxxxxxx |           64 |           64 |           64 |           64 |xxxxxxxxxxxxx |xxxxxxxxxxxxx |xxxxxxxxxxxxx |           64 |           64 |           64 |           64 |xxxxxxxxxxxxx |xxxxxxxxxxxxx |xxxxxxxxxxxxx |           64 |           64 |           64 |           64 |xxxxxxxxxxxxx |xxxxxxxxxxxxx |xxxxxxxxxxxxx |           64 |           64 |           64 |           64 |xxxxxxxxxxxxx |xxxxxxxxxxxxx |xxxxxxxxxxxxx |           64 |           64 |           64 |           64 |xxxxxxxxxxxxx |xxxxxxxxxxxxx |xxxxxxxxxxxxx |           64 |           64 |           64 |           64 |xxxxxxxxxxxxx |xxxxxxxxxxxxx |xxxxxxxxxxxxx |           64 |           64 |           64 |           64 |
bpred_2lev.ras_rate.PP               xxxxxxxxxxxxx |xxxxxxxxxxxxx |xxxxxxxxxxxxx |       1.0000 |       1.0000 |       1.0000 |       1.0000 |xxxxxxxxxxxxx |xxxxxxxxxxxxx |xxxxxxxxxxxxx |       1.0000 |       1.0000 |       1.0000 |       1.0000 |xxxxxxxxxxxxx |xxxxxxxxxxxxx |xxxxxxxxxxxxx |       1.0000 |       1.0000 |       1.0000 |       1.0000 |xxxxxxxxxxxxx |xxxxxxxxxxxxx |xxxxxxxxxxxxx |       1.0000 |       1.0000 |       1.0000 |       1.0000 |xxxxxxxxxxxxx |xxxxxxxxxxxxx |xxxxxxxxxxxxx |       1.0000 |       1.0000 |       1.0000 |       1.0000 |xxxxxxxxxxxxx |xxxxxxxxxxxxx |xxxxxxxxxxxxx |       1.0000 |       1.0000 |       1.0000 |       1.0000 |xxxxxxxxxxxxx |xxxxxxxxxxxxx |xxxxxxxxxxxxx |       1.0000 |       1.0000 |       1.0000 |       1.0000 |xxxxxxxxxxxxx |xxxxxxxxxxxxx |xxxxxxxxxxxxx |       1.0000 |       1.0000 |       1.0000 |       1.0000 |xxxxxxxxxxxxx |xxxxxxxxxxxxx |xxxxxxxxxxxxx |       1.0000 |       1.0000 |       1.0000 |       1.0000 |xxxxxxxxxxxxx |xxxxxxxxxxxxx |xxxxxxxxxxxxx |       1.0000 |       1.0000 |       1.0000 |       1.0000 |xxxxxxxxxxxxx |xxxxxxxxxxxxx |xxxxxxxxxxxxx |       1.0000 |       1.0000 |       1.0000 |       1.0000 |

Command list: 
	sslittle-na-sstrix-gcc -Wall -O3 -funroll-loops -finline-functions  -DRANDOM_SIZE=4096 -DOFFSET=6 -DSORT=base_quicksort1 sorts/base_quicksort11246920443.c simpleMain.c -o base_quicksort11507291136
	sim-cache -cache:dl1 dl1:256:32:1:l -cache:dl2 dl2:131072:32:1:l -cache:il1 il1:256:32:1:l -cache:il2 dl2 base_quicksort11507291136
	sim-cache -cache:dl1 dl1:256:32:1:l -cache:dl2 dl2:65536:32:1:l -cache:il1 il1:256:32:1:l -cache:il2 dl2 base_quicksort11507291136
	sim-cache -cache:dl1 dl1:1:32:256:l -cache:dl2 dl2:1:32:131072:l -cache:il1 il1:1:32:256:l -cache:il2 dl2 base_quicksort11507291136
	sim-cache -cache:dl1 dl1:1:32:256:l -cache:dl2 dl2:1:32:65536:l -cache:il1 il1:1:32:256:l -cache:il2 dl2 base_quicksort11507291136
	sim-bpred -bpred bimod -bpred:bimod 512 base_quicksort11507291136
	sim-bpred -bpred bimod -bpred:bimod 1024 base_quicksort11507291136
	sim-bpred -bpred bimod -bpred:bimod 2048 base_quicksort11507291136
	sim-bpred -bpred 2lev -bpred:2lev 1 512 10 1 base_quicksort11507291136
	sim-bpred -bpred 2lev -bpred:2lev 1 1024 10 1 base_quicksort11507291136
	sim-bpred -bpred 2lev -bpred:2lev 1 2048 10 1 base_quicksort11507291136
	sim-bpred -bpred 2lev -bpred:2lev 1 4096 10 1 base_quicksort11507291136
	sslittle-na-sstrix-gcc -Wall -O3 -funroll-loops -finline-functions  -DRANDOM_SIZE=8192 -DOFFSET=6 -DSORT=base_quicksort1 sorts/base_quicksort11246920443.c simpleMain.c -o base_quicksort11507291136
	sim-cache -cache:dl1 dl1:256:32:1:l -cache:dl2 dl2:131072:32:1:l -cache:il1 il1:256:32:1:l -cache:il2 dl2 base_quicksort11507291136
	sim-cache -cache:dl1 dl1:256:32:1:l -cache:dl2 dl2:65536:32:1:l -cache:il1 il1:256:32:1:l -cache:il2 dl2 base_quicksort11507291136
	sim-cache -cache:dl1 dl1:1:32:256:l -cache:dl2 dl2:1:32:131072:l -cache:il1 il1:1:32:256:l -cache:il2 dl2 base_quicksort11507291136
	sim-cache -cache:dl1 dl1:1:32:256:l -cache:dl2 dl2:1:32:65536:l -cache:il1 il1:1:32:256:l -cache:il2 dl2 base_quicksort11507291136
	sim-bpred -bpred bimod -bpred:bimod 512 base_quicksort11507291136
	sim-bpred -bpred bimod -bpred:bimod 1024 base_quicksort11507291136
	sim-bpred -bpred bimod -bpred:bimod 2048 base_quicksort11507291136
	sim-bpred -bpred 2lev -bpred:2lev 1 512 10 1 base_quicksort11507291136
	sim-bpred -bpred 2lev -bpred:2lev 1 1024 10 1 base_quicksort11507291136
	sim-bpred -bpred 2lev -bpred:2lev 1 2048 10 1 base_quicksort11507291136
	sim-bpred -bpred 2lev -bpred:2lev 1 4096 10 1 base_quicksort11507291136
	sslittle-na-sstrix-gcc -Wall -O3 -funroll-loops -finline-functions  -DRANDOM_SIZE=16384 -DOFFSET=6 -DSORT=base_quicksort1 sorts/base_quicksort11246920443.c simpleMain.c -o base_quicksort11507291136
	sim-cache -cache:dl1 dl1:256:32:1:l -cache:dl2 dl2:131072:32:1:l -cache:il1 il1:256:32:1:l -cache:il2 dl2 base_quicksort11507291136
	sim-cache -cache:dl1 dl1:256:32:1:l -cache:dl2 dl2:65536:32:1:l -cache:il1 il1:256:32:1:l -cache:il2 dl2 base_quicksort11507291136
	sim-cache -cache:dl1 dl1:1:32:256:l -cache:dl2 dl2:1:32:131072:l -cache:il1 il1:1:32:256:l -cache:il2 dl2 base_quicksort11507291136
	sim-cache -cache:dl1 dl1:1:32:256:l -cache:dl2 dl2:1:32:65536:l -cache:il1 il1:1:32:256:l -cache:il2 dl2 base_quicksort11507291136
	sim-bpred -bpred bimod -bpred:bimod 512 base_quicksort11507291136
	sim-bpred -bpred bimod -bpred:bimod 1024 base_quicksort11507291136
	sim-bpred -bpred bimod -bpred:bimod 2048 base_quicksort11507291136
	sim-bpred -bpred 2lev -bpred:2lev 1 512 10 1 base_quicksort11507291136
	sim-bpred -bpred 2lev -bpred:2lev 1 1024 10 1 base_quicksort11507291136
	sim-bpred -bpred 2lev -bpred:2lev 1 2048 10 1 base_quicksort11507291136
	sim-bpred -bpred 2lev -bpred:2lev 1 4096 10 1 base_quicksort11507291136
	sslittle-na-sstrix-gcc -Wall -O3 -funroll-loops -finline-functions  -DRANDOM_SIZE=32768 -DOFFSET=6 -DSORT=base_quicksort1 sorts/base_quicksort11246920443.c simpleMain.c -o base_quicksort11507291136
	sim-cache -cache:dl1 dl1:256:32:1:l -cache:dl2 dl2:131072:32:1:l -cache:il1 il1:256:32:1:l -cache:il2 dl2 base_quicksort11507291136
	sim-cache -cache:dl1 dl1:256:32:1:l -cache:dl2 dl2:65536:32:1:l -cache:il1 il1:256:32:1:l -cache:il2 dl2 base_quicksort11507291136
	sim-cache -cache:dl1 dl1:1:32:256:l -cache:dl2 dl2:1:32:131072:l -cache:il1 il1:1:32:256:l -cache:il2 dl2 base_quicksort11507291136
	sim-cache -cache:dl1 dl1:1:32:256:l -cache:dl2 dl2:1:32:65536:l -cache:il1 il1:1:32:256:l -cache:il2 dl2 base_quicksort11507291136
	sim-bpred -bpred bimod -bpred:bimod 512 base_quicksort11507291136
	sim-bpred -bpred bimod -bpred:bimod 1024 base_quicksort11507291136
	sim-bpred -bpred bimod -bpred:bimod 2048 base_quicksort11507291136
	sim-bpred -bpred 2lev -bpred:2lev 1 512 10 1 base_quicksort11507291136
	sim-bpred -bpred 2lev -bpred:2lev 1 1024 10 1 base_quicksort11507291136
	sim-bpred -bpred 2lev -bpred:2lev 1 2048 10 1 base_quicksort11507291136
	sim-bpred -bpred 2lev -bpred:2lev 1 4096 10 1 base_quicksort11507291136
	sslittle-na-sstrix-gcc -Wall -O3 -funroll-loops -finline-functions  -DRANDOM_SIZE=65536 -DOFFSET=6 -DSORT=base_quicksort1 sorts/base_quicksort11246920443.c simpleMain.c -o base_quicksort11507291136
	sim-cache -cache:dl1 dl1:256:32:1:l -cache:dl2 dl2:131072:32:1:l -cache:il1 il1:256:32:1:l -cache:il2 dl2 base_quicksort11507291136
	sim-cache -cache:dl1 dl1:256:32:1:l -cache:dl2 dl2:65536:32:1:l -cache:il1 il1:256:32:1:l -cache:il2 dl2 base_quicksort11507291136
	sim-cache -cache:dl1 dl1:1:32:256:l -cache:dl2 dl2:1:32:131072:l -cache:il1 il1:1:32:256:l -cache:il2 dl2 base_quicksort11507291136
	sim-cache -cache:dl1 dl1:1:32:256:l -cache:dl2 dl2:1:32:65536:l -cache:il1 il1:1:32:256:l -cache:il2 dl2 base_quicksort11507291136
	sim-bpred -bpred bimod -bpred:bimod 512 base_quicksort11507291136
	sim-bpred -bpred bimod -bpred:bimod 1024 base_quicksort11507291136
	sim-bpred -bpred bimod -bpred:bimod 2048 base_quicksort11507291136
	sim-bpred -bpred 2lev -bpred:2lev 1 512 10 1 base_quicksort11507291136
	sim-bpred -bpred 2lev -bpred:2lev 1 1024 10 1 base_quicksort11507291136
	sim-bpred -bpred 2lev -bpred:2lev 1 2048 10 1 base_quicksort11507291136
	sim-bpred -bpred 2lev -bpred:2lev 1 4096 10 1 base_quicksort11507291136
	sslittle-na-sstrix-gcc -Wall -O3 -funroll-loops -finline-functions  -DRANDOM_SIZE=131072 -DOFFSET=6 -DSORT=base_quicksort1 sorts/base_quicksort11246920443.c simpleMain.c -o base_quicksort11507291136
	sim-cache -cache:dl1 dl1:256:32:1:l -cache:dl2 dl2:131072:32:1:l -cache:il1 il1:256:32:1:l -cache:il2 dl2 base_quicksort11507291136
	sim-cache -cache:dl1 dl1:256:32:1:l -cache:dl2 dl2:65536:32:1:l -cache:il1 il1:256:32:1:l -cache:il2 dl2 base_quicksort11507291136
	sim-cache -cache:dl1 dl1:1:32:256:l -cache:dl2 dl2:1:32:131072:l -cache:il1 il1:1:32:256:l -cache:il2 dl2 base_quicksort11507291136
	sim-cache -cache:dl1 dl1:1:32:256:l -cache:dl2 dl2:1:32:65536:l -cache:il1 il1:1:32:256:l -cache:il2 dl2 base_quicksort11507291136
	sim-bpred -bpred bimod -bpred:bimod 512 base_quicksort11507291136
	sim-bpred -bpred bimod -bpred:bimod 1024 base_quicksort11507291136
	sim-bpred -bpred bimod -bpred:bimod 2048 base_quicksort11507291136
	sim-bpred -bpred 2lev -bpred:2lev 1 512 10 1 base_quicksort11507291136
	sim-bpred -bpred 2lev -bpred:2lev 1 1024 10 1 base_quicksort11507291136
	sim-bpred -bpred 2lev -bpred:2lev 1 2048 10 1 base_quicksort11507291136
	sim-bpred -bpred 2lev -bpred:2lev 1 4096 10 1 base_quicksort11507291136
	sslittle-na-sstrix-gcc -Wall -O3 -funroll-loops -finline-functions  -DRANDOM_SIZE=262144 -DOFFSET=6 -DSORT=base_quicksort1 sorts/base_quicksort11246920443.c simpleMain.c -o base_quicksort11507291136
	sim-cache -cache:dl1 dl1:256:32:1:l -cache:dl2 dl2:131072:32:1:l -cache:il1 il1:256:32:1:l -cache:il2 dl2 base_quicksort11507291136
	sim-cache -cache:dl1 dl1:256:32:1:l -cache:dl2 dl2:65536:32:1:l -cache:il1 il1:256:32:1:l -cache:il2 dl2 base_quicksort11507291136
	sim-cache -cache:dl1 dl1:1:32:256:l -cache:dl2 dl2:1:32:131072:l -cache:il1 il1:1:32:256:l -cache:il2 dl2 base_quicksort11507291136
	sim-cache -cache:dl1 dl1:1:32:256:l -cache:dl2 dl2:1:32:65536:l -cache:il1 il1:1:32:256:l -cache:il2 dl2 base_quicksort11507291136
	sim-bpred -bpred bimod -bpred:bimod 512 base_quicksort11507291136
	sim-bpred -bpred bimod -bpred:bimod 1024 base_quicksort11507291136
	sim-bpred -bpred bimod -bpred:bimod 2048 base_quicksort11507291136
	sim-bpred -bpred 2lev -bpred:2lev 1 512 10 1 base_quicksort11507291136
	sim-bpred -bpred 2lev -bpred:2lev 1 1024 10 1 base_quicksort11507291136
	sim-bpred -bpred 2lev -bpred:2lev 1 2048 10 1 base_quicksort11507291136
	sim-bpred -bpred 2lev -bpred:2lev 1 4096 10 1 base_quicksort11507291136
	sslittle-na-sstrix-gcc -Wall -O3 -funroll-loops -finline-functions  -DRANDOM_SIZE=524288 -DOFFSET=6 -DSORT=base_quicksort1 sorts/base_quicksort11246920443.c simpleMain.c -o base_quicksort11507291136
	sim-cache -cache:dl1 dl1:256:32:1:l -cache:dl2 dl2:131072:32:1:l -cache:il1 il1:256:32:1:l -cache:il2 dl2 base_quicksort11507291136
	sim-cache -cache:dl1 dl1:256:32:1:l -cache:dl2 dl2:65536:32:1:l -cache:il1 il1:256:32:1:l -cache:il2 dl2 base_quicksort11507291136
	sim-cache -cache:dl1 dl1:1:32:256:l -cache:dl2 dl2:1:32:131072:l -cache:il1 il1:1:32:256:l -cache:il2 dl2 base_quicksort11507291136
	sim-cache -cache:dl1 dl1:1:32:256:l -cache:dl2 dl2:1:32:65536:l -cache:il1 il1:1:32:256:l -cache:il2 dl2 base_quicksort11507291136
	sim-bpred -bpred bimod -bpred:bimod 512 base_quicksort11507291136
	sim-bpred -bpred bimod -bpred:bimod 1024 base_quicksort11507291136
	sim-bpred -bpred bimod -bpred:bimod 2048 base_quicksort11507291136
	sim-bpred -bpred 2lev -bpred:2lev 1 512 10 1 base_quicksort11507291136
	sim-bpred -bpred 2lev -bpred:2lev 1 1024 10 1 base_quicksort11507291136
	sim-bpred -bpred 2lev -bpred:2lev 1 2048 10 1 base_quicksort11507291136
	sim-bpred -bpred 2lev -bpred:2lev 1 4096 10 1 base_quicksort11507291136
	sslittle-na-sstrix-gcc -Wall -O3 -funroll-loops -finline-functions  -DRANDOM_SIZE=1048576 -DOFFSET=6 -DSORT=base_quicksort1 sorts/base_quicksort11246920443.c simpleMain.c -o base_quicksort11507291136
	sim-cache -cache:dl1 dl1:256:32:1:l -cache:dl2 dl2:131072:32:1:l -cache:il1 il1:256:32:1:l -cache:il2 dl2 base_quicksort11507291136
	sim-cache -cache:dl1 dl1:256:32:1:l -cache:dl2 dl2:65536:32:1:l -cache:il1 il1:256:32:1:l -cache:il2 dl2 base_quicksort11507291136
	sim-cache -cache:dl1 dl1:1:32:256:l -cache:dl2 dl2:1:32:131072:l -cache:il1 il1:1:32:256:l -cache:il2 dl2 base_quicksort11507291136
	sim-cache -cache:dl1 dl1:1:32:256:l -cache:dl2 dl2:1:32:65536:l -cache:il1 il1:1:32:256:l -cache:il2 dl2 base_quicksort11507291136
	sim-bpred -bpred bimod -bpred:bimod 512 base_quicksort11507291136
	sim-bpred -bpred bimod -bpred:bimod 1024 base_quicksort11507291136
	sim-bpred -bpred bimod -bpred:bimod 2048 base_quicksort11507291136
	sim-bpred -bpred 2lev -bpred:2lev 1 512 10 1 base_quicksort11507291136
	sim-bpred -bpred 2lev -bpred:2lev 1 1024 10 1 base_quicksort11507291136
	sim-bpred -bpred 2lev -bpred:2lev 1 2048 10 1 base_quicksort11507291136
	sim-bpred -bpred 2lev -bpred:2lev 1 4096 10 1 base_quicksort11507291136
	sslittle-na-sstrix-gcc -Wall -O3 -funroll-loops -finline-functions  -DRANDOM_SIZE=2097152 -DOFFSET=6 -DSORT=base_quicksort1 sorts/base_quicksort11246920443.c simpleMain.c -o base_quicksort11507291136
	sim-cache -cache:dl1 dl1:256:32:1:l -cache:dl2 dl2:131072:32:1:l -cache:il1 il1:256:32:1:l -cache:il2 dl2 base_quicksort11507291136
	sim-cache -cache:dl1 dl1:256:32:1:l -cache:dl2 dl2:65536:32:1:l -cache:il1 il1:256:32:1:l -cache:il2 dl2 base_quicksort11507291136
	sim-cache -cache:dl1 dl1:1:32:256:l -cache:dl2 dl2:1:32:131072:l -cache:il1 il1:1:32:256:l -cache:il2 dl2 base_quicksort11507291136
	sim-cache -cache:dl1 dl1:1:32:256:l -cache:dl2 dl2:1:32:65536:l -cache:il1 il1:1:32:256:l -cache:il2 dl2 base_quicksort11507291136
	sim-bpred -bpred bimod -bpred:bimod 512 base_quicksort11507291136
	sim-bpred -bpred bimod -bpred:bimod 1024 base_quicksort11507291136
	sim-bpred -bpred bimod -bpred:bimod 2048 base_quicksort11507291136
	sim-bpred -bpred 2lev -bpred:2lev 1 512 10 1 base_quicksort11507291136
	sim-bpred -bpred 2lev -bpred:2lev 1 1024 10 1 base_quicksort11507291136
	sim-bpred -bpred 2lev -bpred:2lev 1 2048 10 1 base_quicksort11507291136
	sim-bpred -bpred 2lev -bpred:2lev 1 4096 10 1 base_quicksort11507291136
	sslittle-na-sstrix-gcc -Wall -O3 -funroll-loops -finline-functions  -DRANDOM_SIZE=4194304 -DOFFSET=6 -DSORT=base_quicksort1 sorts/base_quicksort11246920443.c simpleMain.c -o base_quicksort11507291136
	sim-cache -cache:dl1 dl1:256:32:1:l -cache:dl2 dl2:131072:32:1:l -cache:il1 il1:256:32:1:l -cache:il2 dl2 base_quicksort11507291136
	sim-cache -cache:dl1 dl1:256:32:1:l -cache:dl2 dl2:65536:32:1:l -cache:il1 il1:256:32:1:l -cache:il2 dl2 base_quicksort11507291136
	sim-cache -cache:dl1 dl1:1:32:256:l -cache:dl2 dl2:1:32:131072:l -cache:il1 il1:1:32:256:l -cache:il2 dl2 base_quicksort11507291136
	sim-cache -cache:dl1 dl1:1:32:256:l -cache:dl2 dl2:1:32:65536:l -cache:il1 il1:1:32:256:l -cache:il2 dl2 base_quicksort11507291136
	sim-bpred -bpred bimod -bpred:bimod 512 base_quicksort11507291136
	sim-bpred -bpred bimod -bpred:bimod 1024 base_quicksort11507291136
	sim-bpred -bpred bimod -bpred:bimod 2048 base_quicksort11507291136
	sim-bpred -bpred 2lev -bpred:2lev 1 512 10 1 base_quicksort11507291136
	sim-bpred -bpred 2lev -bpred:2lev 1 1024 10 1 base_quicksort11507291136
	sim-bpred -bpred 2lev -bpred:2lev 1 2048 10 1 base_quicksort11507291136
	sim-bpred -bpred 2lev -bpred:2lev 1 4096 10 1 base_quicksort11507291136
