Thu Jul  7 07:21:08 2005
Run as: "./do_simple -c random.org4 -o 4 base_quicksort9"
-------------------------------------------------------------------------------------------------
sim-cache                                     4096 |         4096 |         4096 |         4096 |         8192 |         8192 |         8192 |         8192 |        16384 |        16384 |        16384 |        16384 |        32768 |        32768 |        32768 |        32768 |        65536 |        65536 |        65536 |        65536 |       131072 |       131072 |       131072 |       131072 |       262144 |       262144 |       262144 |       262144 |       524288 |       524288 |       524288 |       524288 |      1048576 |      1048576 |      1048576 |      1048576 |      2097152 |      2097152 |      2097152 |      2097152 |      4194304 |      4194304 |      4194304 |      4194304 |
-cache:dl1 dl1:256:32:1:l -cache:dl2 dl2:131072:32:1:l -cache:il1 il1:256:32:1:l -cache:il2 dl2
-cache:dl1 dl1:256:32:1:l -cache:dl2 dl2:65536:32:1:l -cache:il1 il1:256:32:1:l -cache:il2 dl2
-cache:dl1 dl1:1:32:256:l -cache:dl2 dl2:1:32:131072:l -cache:il1 il1:1:32:256:l -cache:il2 dl2
-cache:dl1 dl1:1:32:256:l -cache:dl2 dl2:1:32:65536:l -cache:il1 il1:1:32:256:l -cache:il2 dl2
-------------------------------------------------------------------------------------------------
sim_num_insn                                470025 |       470025 |       470025 |       470025 |       996767 |       996767 |       996767 |       996767 |      2134343 |      2134343 |      2134343 |      2134343 |      4557926 |      4557926 |      4557926 |      4557926 |      9713918 |      9713918 |      9713918 |      9713918 |     20481109 |     20481109 |     20481109 |     20481109 |     43198727 |     43198727 |     43198727 |     43198727 |     90451054 |     90451054 |     90451054 |     90451054 |    191250335 |    191250335 |    191250335 |    191250335 |    398171165 |    398171165 |    398171165 |    398171165 |    835790439 |    835790439 |    835790439 |    835790439 |
sim_num_refs                                126363 |       126363 |       126363 |       126363 |       265276 |       265276 |       265276 |       265276 |       559903 |       559903 |       559903 |       559903 |      1186273 |      1186273 |      1186273 |      1186273 |      2507694 |      2507694 |      2507694 |      2507694 |      5270333 |      5270333 |      5270333 |      5270333 |     11070010 |     11070010 |     11070010 |     11070010 |     23153818 |     23153818 |     23153818 |     23153818 |     48627774 |     48627774 |     48627774 |     48627774 |    101230926 |    101230926 |    101230926 |    101230926 |    211527679 |    211527679 |    211527679 |    211527679 |
sim_elapsed_time                                 1 |            1 |            8 |            4 |            1 |            1 |           10 |            6 |            1 |            1 |           16 |            8 |            1 |            1 |           27 |           14 |            3 |            3 |           49 |           25 |            6 |            5 |           91 |           46 |           12 |           11 |          168 |           78 |           25 |           24 |          288 |          111 |           52 |           52 |          400 |          140 |          108 |          109 |          459 |          201 |          227 |          228 |          589 |          330 |
sim_inst_rate                          470025.0000 |  470025.0000 |   58753.1250 |  117506.2500 |  996767.0000 |  996767.0000 |   99676.7000 |  166127.8333 | 2134343.0000 | 2134343.0000 |  133396.4375 |  266792.8750 | 4557926.0000 | 4557926.0000 |  168812.0741 |  325566.1429 | 3237972.6667 | 3237972.6667 |  198243.2245 |  388556.7200 | 3413518.1667 | 4096221.8000 |  225067.1319 |  445241.5000 | 3599893.9167 | 3927157.0000 |  257135.2798 |  553829.8333 | 3618042.1600 | 3768793.9167 |  314066.1597 |  814874.3604 | 3677891.0577 | 3677891.0577 |  478125.8375 | 1366073.8214 | 3686770.0463 | 3652946.4679 |  867475.3050 | 1980951.0697 | 3681896.2070 | 3665747.5395 | 1418999.0475 | 2532698.3000 |
il1.accesses                                470025 |       470025 |       470025 |       470025 |       996767 |       996767 |       996767 |       996767 |      2134343 |      2134343 |      2134343 |      2134343 |      4557926 |      4557926 |      4557926 |      4557926 |      9713918 |      9713918 |      9713918 |      9713918 |     20481109 |     20481109 |     20481109 |     20481109 |     43198727 |     43198727 |     43198727 |     43198727 |     90451054 |     90451054 |     90451054 |     90451054 |    191250335 |    191250335 |    191250335 |    191250335 |    398171165 |    398171165 |    398171165 |    398171165 |    835790439 |    835790439 |    835790439 |    835790439 |
il1.hits                                    469554 |       469554 |       469583 |       469583 |       996294 |       996294 |       996323 |       996323 |      2133857 |      2133857 |      2133895 |      2133895 |      4557451 |      4557451 |      4557481 |      4557481 |      9713443 |      9713443 |      9713473 |      9713473 |     20480635 |     20480635 |     20480665 |     20480665 |     43198253 |     43198253 |     43198283 |     43198283 |     90450580 |     90450580 |     90450610 |     90450610 |    191249861 |    191249861 |    191249891 |    191249891 |    398170691 |    398170691 |    398170721 |    398170721 |    835789965 |    835789965 |    835789995 |    835789995 |
il1.misses                                     471 |          471 |          442 |          442 |          473 |          473 |          444 |          444 |          486 |          486 |          448 |          448 |          475 |          475 |          445 |          445 |          475 |          475 |          445 |          445 |          474 |          474 |          444 |          444 |          474 |          474 |          444 |          444 |          474 |          474 |          444 |          444 |          474 |          474 |          444 |          444 |          474 |          474 |          444 |          444 |          474 |          474 |          444 |          444 |
il1.replacements                               229 |          229 |          186 |          186 |          231 |          231 |          188 |          188 |          246 |          246 |          192 |          192 |          234 |          234 |          189 |          189 |          234 |          234 |          189 |          189 |          234 |          234 |          188 |          188 |          234 |          234 |          188 |          188 |          234 |          234 |          188 |          188 |          234 |          234 |          188 |          188 |          234 |          234 |          188 |          188 |          234 |          234 |          188 |          188 |
il1.writebacks                                   0 |            0 |            0 |            0 |            0 |            0 |            0 |            0 |            0 |            0 |            0 |            0 |            0 |            0 |            0 |            0 |            0 |            0 |            0 |            0 |            0 |            0 |            0 |            0 |            0 |            0 |            0 |            0 |            0 |            0 |            0 |            0 |            0 |            0 |            0 |            0 |            0 |            0 |            0 |            0 |            0 |            0 |            0 |            0 |
il1.invalidations                                0 |            0 |            0 |            0 |            0 |            0 |            0 |            0 |            0 |            0 |            0 |            0 |            0 |            0 |            0 |            0 |            0 |            0 |            0 |            0 |            0 |            0 |            0 |            0 |            0 |            0 |            0 |            0 |            0 |            0 |            0 |            0 |            0 |            0 |            0 |            0 |            0 |            0 |            0 |            0 |            0 |            0 |            0 |            0 |
il1.miss_rate                               0.0010 |       0.0010 |       0.0009 |       0.0009 |       0.0005 |       0.0005 |       0.0004 |       0.0004 |       0.0002 |       0.0002 |       0.0002 |       0.0002 |       0.0001 |       0.0001 |       0.0001 |       0.0001 |       0.0000 |       0.0000 |       0.0000 |       0.0000 |       0.0000 |       0.0000 |       0.0000 |       0.0000 |       0.0000 |       0.0000 |       0.0000 |       0.0000 |       0.0000 |       0.0000 |       0.0000 |       0.0000 |       0.0000 |       0.0000 |       0.0000 |       0.0000 |       0.0000 |       0.0000 |       0.0000 |       0.0000 |       0.0000 |       0.0000 |       0.0000 |       0.0000 |
il1.repl_rate                               0.0005 |       0.0005 |       0.0004 |       0.0004 |       0.0002 |       0.0002 |       0.0002 |       0.0002 |       0.0001 |       0.0001 |       0.0001 |       0.0001 |       0.0001 |       0.0001 |       0.0000 |       0.0000 |       0.0000 |       0.0000 |       0.0000 |       0.0000 |       0.0000 |       0.0000 |       0.0000 |       0.0000 |       0.0000 |       0.0000 |       0.0000 |       0.0000 |       0.0000 |       0.0000 |       0.0000 |       0.0000 |       0.0000 |       0.0000 |       0.0000 |       0.0000 |       0.0000 |       0.0000 |       0.0000 |       0.0000 |       0.0000 |       0.0000 |       0.0000 |       0.0000 |
il1.wb_rate                                 0.0000 |       0.0000 |       0.0000 |       0.0000 |       0.0000 |       0.0000 |       0.0000 |       0.0000 |       0.0000 |       0.0000 |       0.0000 |       0.0000 |       0.0000 |       0.0000 |       0.0000 |       0.0000 |       0.0000 |       0.0000 |       0.0000 |       0.0000 |       0.0000 |       0.0000 |       0.0000 |       0.0000 |       0.0000 |       0.0000 |       0.0000 |       0.0000 |       0.0000 |       0.0000 |       0.0000 |       0.0000 |       0.0000 |       0.0000 |       0.0000 |       0.0000 |       0.0000 |       0.0000 |       0.0000 |       0.0000 |       0.0000 |       0.0000 |       0.0000 |       0.0000 |
il1.inv_rate                                0.0000 |       0.0000 |       0.0000 |       0.0000 |       0.0000 |       0.0000 |       0.0000 |       0.0000 |       0.0000 |       0.0000 |       0.0000 |       0.0000 |       0.0000 |       0.0000 |       0.0000 |       0.0000 |       0.0000 |       0.0000 |       0.0000 |       0.0000 |       0.0000 |       0.0000 |       0.0000 |       0.0000 |       0.0000 |       0.0000 |       0.0000 |       0.0000 |       0.0000 |       0.0000 |       0.0000 |       0.0000 |       0.0000 |       0.0000 |       0.0000 |       0.0000 |       0.0000 |       0.0000 |       0.0000 |       0.0000 |       0.0000 |       0.0000 |       0.0000 |       0.0000 |
dl1.accesses                                142829 |       142829 |       142829 |       142829 |       298126 |       298126 |       298126 |       298126 |       625521 |       625521 |       625521 |       625521 |      1317427 |      1317427 |      1317427 |      1317427 |      2769920 |      2769920 |      2769920 |      2769920 |      5794703 |      5794703 |      5794703 |      5794703 |     12118668 |     12118668 |     12118668 |     12118668 |     25251052 |     25251052 |     25251052 |     25251052 |     52822160 |     52822160 |     52822160 |     52822160 |    109619616 |    109619616 |    109619616 |    109619616 |    228304977 |    228304977 |    228304977 |    228304977 |
dl1.hits                                    140371 |       140371 |       140292 |       140292 |       292447 |       292447 |       292417 |       292417 |       612308 |       612308 |       612233 |       612233 |      1286821 |      1286821 |      1286888 |      1286888 |      2699053 |      2699053 |      2699277 |      2699277 |      5637121 |      5637121 |      5637734 |      5637734 |     11768864 |     11768864 |     11769956 |     11769956 |     24489167 |     24489167 |     24495827 |     24495827 |     51125465 |     51125465 |     51143103 |     51143103 |    105989989 |    105989989 |    106034486 |    106034486 |    220390419 |    220390419 |    220494208 |    220494208 |
dl1.misses                                    2458 |         2458 |         2537 |         2537 |         5679 |         5679 |         5709 |         5709 |        13213 |        13213 |        13288 |        13288 |        30606 |        30606 |        30539 |        30539 |        70867 |        70867 |        70643 |        70643 |       157582 |       157582 |       156969 |       156969 |       349804 |       349804 |       348712 |       348712 |       761885 |       761885 |       755225 |       755225 |      1696695 |      1696695 |      1679057 |      1679057 |      3629627 |      3629627 |      3585130 |      3585130 |      7914558 |      7914558 |      7810769 |      7810769 |
dl1.replacements                              2202 |         2202 |         2281 |         2281 |         5423 |         5423 |         5453 |         5453 |        12957 |        12957 |        13032 |        13032 |        30350 |        30350 |        30283 |        30283 |        70611 |        70611 |        70387 |        70387 |       157326 |       157326 |       156713 |       156713 |       349548 |       349548 |       348456 |       348456 |       761629 |       761629 |       754969 |       754969 |      1696439 |      1696439 |      1678801 |      1678801 |      3629371 |      3629371 |      3584874 |      3584874 |      7914302 |      7914302 |      7810513 |      7810513 |
dl1.writebacks                                2133 |         2133 |         2236 |         2236 |         5307 |         5307 |         5397 |         5397 |        12669 |        12669 |        12846 |        12846 |        29326 |        29326 |        29519 |        29519 |        67504 |        67504 |        67866 |        67866 |       151998 |       151998 |       152881 |       152881 |       337944 |       337944 |       340375 |       340375 |       738361 |       738361 |       740112 |       740112 |      1628817 |      1628817 |      1630122 |      1630122 |      3511089 |      3511089 |      3509331 |      3509331 |      7604073 |      7604073 |      7594616 |      7594616 |
dl1.invalidations                                0 |            0 |            0 |            0 |            0 |            0 |            0 |            0 |            0 |            0 |            0 |            0 |            0 |            0 |            0 |            0 |            0 |            0 |            0 |            0 |            0 |            0 |            0 |            0 |            0 |            0 |            0 |            0 |            0 |            0 |            0 |            0 |            0 |            0 |            0 |            0 |            0 |            0 |            0 |            0 |            0 |            0 |            0 |            0 |
dl1.miss_rate                               0.0172 |       0.0172 |       0.0178 |       0.0178 |       0.0190 |       0.0190 |       0.0191 |       0.0191 |       0.0211 |       0.0211 |       0.0212 |       0.0212 |       0.0232 |       0.0232 |       0.0232 |       0.0232 |       0.0256 |       0.0256 |       0.0255 |       0.0255 |       0.0272 |       0.0272 |       0.0271 |       0.0271 |       0.0289 |       0.0289 |       0.0288 |       0.0288 |       0.0302 |       0.0302 |       0.0299 |       0.0299 |       0.0321 |       0.0321 |       0.0318 |       0.0318 |       0.0331 |       0.0331 |       0.0327 |       0.0327 |       0.0347 |       0.0347 |       0.0342 |       0.0342 |
dl1.repl_rate                               0.0154 |       0.0154 |       0.0160 |       0.0160 |       0.0182 |       0.0182 |       0.0183 |       0.0183 |       0.0207 |       0.0207 |       0.0208 |       0.0208 |       0.0230 |       0.0230 |       0.0230 |       0.0230 |       0.0255 |       0.0255 |       0.0254 |       0.0254 |       0.0271 |       0.0271 |       0.0270 |       0.0270 |       0.0288 |       0.0288 |       0.0288 |       0.0288 |       0.0302 |       0.0302 |       0.0299 |       0.0299 |       0.0321 |       0.0321 |       0.0318 |       0.0318 |       0.0331 |       0.0331 |       0.0327 |       0.0327 |       0.0347 |       0.0347 |       0.0342 |       0.0342 |
dl1.wb_rate                                 0.0149 |       0.0149 |       0.0157 |       0.0157 |       0.0178 |       0.0178 |       0.0181 |       0.0181 |       0.0203 |       0.0203 |       0.0205 |       0.0205 |       0.0223 |       0.0223 |       0.0224 |       0.0224 |       0.0244 |       0.0244 |       0.0245 |       0.0245 |       0.0262 |       0.0262 |       0.0264 |       0.0264 |       0.0279 |       0.0279 |       0.0281 |       0.0281 |       0.0292 |       0.0292 |       0.0293 |       0.0293 |       0.0308 |       0.0308 |       0.0309 |       0.0309 |       0.0320 |       0.0320 |       0.0320 |       0.0320 |       0.0333 |       0.0333 |       0.0333 |       0.0333 |
dl1.inv_rate                                0.0000 |       0.0000 |       0.0000 |       0.0000 |       0.0000 |       0.0000 |       0.0000 |       0.0000 |       0.0000 |       0.0000 |       0.0000 |       0.0000 |       0.0000 |       0.0000 |       0.0000 |       0.0000 |       0.0000 |       0.0000 |       0.0000 |       0.0000 |       0.0000 |       0.0000 |       0.0000 |       0.0000 |       0.0000 |       0.0000 |       0.0000 |       0.0000 |       0.0000 |       0.0000 |       0.0000 |       0.0000 |       0.0000 |       0.0000 |       0.0000 |       0.0000 |       0.0000 |       0.0000 |       0.0000 |       0.0000 |       0.0000 |       0.0000 |       0.0000 |       0.0000 |
dl2.accesses                                  5062 |         5062 |         5215 |         5215 |        11459 |        11459 |        11550 |        11550 |        26368 |        26368 |        26582 |        26582 |        60407 |        60407 |        60503 |        60503 |       138846 |       138846 |       138954 |       138954 |       310054 |       310054 |       310294 |       310294 |       688222 |       688222 |       689531 |       689531 |      1500720 |      1500720 |      1495781 |      1495781 |      3325986 |      3325986 |      3309623 |      3309623 |      7141190 |      7141190 |      7094905 |      7094905 |     15519105 |     15519105 |     15405829 |     15405829 |
dl2.hits                                      3672 |         3672 |         3840 |         3840 |         9554 |         9554 |         9661 |         9661 |        23440 |        23440 |        23675 |        23675 |        55437 |        55437 |        55548 |        55548 |       129780 |       129780 |       129903 |       129903 |       292797 |       292797 |       293052 |       293052 |       654581 |       654581 |       655905 |       655905 |      1434311 |      1433542 |      1429387 |      1375898 |      3193280 |      2870355 |      3095745 |      2818751 |      6209580 |      5919281 |      6101978 |      5776304 |     13132110 |     12453345 |     12919210 |     12194662 |
dl2.misses                                    1390 |         1390 |         1375 |         1375 |         1905 |         1905 |         1889 |         1889 |         2928 |         2928 |         2907 |         2907 |         4970 |         4970 |         4955 |         4955 |         9066 |         9066 |         9051 |         9051 |        17257 |        17257 |        17242 |        17242 |        33641 |        33641 |        33626 |        33626 |        66409 |        67178 |        66394 |       119883 |       132706 |       455631 |       213878 |       490872 |       931610 |      1221909 |       992927 |      1318601 |      2386995 |      3065760 |      2486619 |      3211167 |
dl2.replacements                               171 |          171 |            0 |            0 |          173 |          173 |            0 |            0 |          178 |          178 |            0 |            0 |          173 |          173 |            0 |            0 |          173 |          173 |            0 |            0 |          173 |          173 |            0 |            0 |          173 |          173 |            0 |            0 |          173 |         1642 |            0 |        54347 |         1634 |       390095 |        82806 |       425336 |       800538 |      1156373 |       861855 |      1253065 |      2255923 |      3000224 |      2355547 |      3145631 |
dl2.writebacks                                 105 |          105 |            0 |            0 |          107 |          107 |            0 |            0 |          108 |          108 |            0 |            0 |          107 |          107 |            0 |            0 |          107 |          107 |            0 |            0 |          107 |          107 |            0 |            0 |          107 |          107 |            0 |            0 |          107 |         1315 |            0 |        54034 |         1308 |       389220 |        82494 |       421098 |       799522 |      1152492 |       860644 |      1248671 |      2247315 |      2963272 |      2341430 |      3099173 |
dl2.invalidations                                0 |            0 |            0 |            0 |            0 |            0 |            0 |            0 |            0 |            0 |            0 |            0 |            0 |            0 |            0 |            0 |            0 |            0 |            0 |            0 |            0 |            0 |            0 |            0 |            0 |            0 |            0 |            0 |            0 |            0 |            0 |            0 |            0 |            0 |            0 |            0 |            0 |            0 |            0 |            0 |            0 |            0 |            0 |            0 |
dl2.miss_rate                               0.2746 |       0.2746 |       0.2637 |       0.2637 |       0.1662 |       0.1662 |       0.1635 |       0.1635 |       0.1110 |       0.1110 |       0.1094 |       0.1094 |       0.0823 |       0.0823 |       0.0819 |       0.0819 |       0.0653 |       0.0653 |       0.0651 |       0.0651 |       0.0557 |       0.0557 |       0.0556 |       0.0556 |       0.0489 |       0.0489 |       0.0488 |       0.0488 |       0.0443 |       0.0448 |       0.0444 |       0.0801 |       0.0399 |       0.1370 |       0.0646 |       0.1483 |       0.1305 |       0.1711 |       0.1399 |       0.1859 |       0.1538 |       0.1975 |       0.1614 |       0.2084 |
dl2.repl_rate                               0.0338 |       0.0338 |       0.0000 |       0.0000 |       0.0151 |       0.0151 |       0.0000 |       0.0000 |       0.0068 |       0.0068 |       0.0000 |       0.0000 |       0.0029 |       0.0029 |       0.0000 |       0.0000 |       0.0012 |       0.0012 |       0.0000 |       0.0000 |       0.0006 |       0.0006 |       0.0000 |       0.0000 |       0.0003 |       0.0003 |       0.0000 |       0.0000 |       0.0001 |       0.0011 |       0.0000 |       0.0363 |       0.0005 |       0.1173 |       0.0250 |       0.1285 |       0.1121 |       0.1619 |       0.1215 |       0.1766 |       0.1454 |       0.1933 |       0.1529 |       0.2042 |
dl2.wb_rate                                 0.0207 |       0.0207 |       0.0000 |       0.0000 |       0.0093 |       0.0093 |       0.0000 |       0.0000 |       0.0041 |       0.0041 |       0.0000 |       0.0000 |       0.0018 |       0.0018 |       0.0000 |       0.0000 |       0.0008 |       0.0008 |       0.0000 |       0.0000 |       0.0003 |       0.0003 |       0.0000 |       0.0000 |       0.0002 |       0.0002 |       0.0000 |       0.0000 |       0.0001 |       0.0009 |       0.0000 |       0.0361 |       0.0004 |       0.1170 |       0.0249 |       0.1272 |       0.1120 |       0.1614 |       0.1213 |       0.1760 |       0.1448 |       0.1909 |       0.1520 |       0.2012 |
dl2.inv_rate                                0.0000 |       0.0000 |       0.0000 |       0.0000 |       0.0000 |       0.0000 |       0.0000 |       0.0000 |       0.0000 |       0.0000 |       0.0000 |       0.0000 |       0.0000 |       0.0000 |       0.0000 |       0.0000 |       0.0000 |       0.0000 |       0.0000 |       0.0000 |       0.0000 |       0.0000 |       0.0000 |       0.0000 |       0.0000 |       0.0000 |       0.0000 |       0.0000 |       0.0000 |       0.0000 |       0.0000 |       0.0000 |       0.0000 |       0.0000 |       0.0000 |       0.0000 |       0.0000 |       0.0000 |       0.0000 |       0.0000 |       0.0000 |       0.0000 |       0.0000 |       0.0000 |
itlb.accesses                               470025 |       470025 |       470025 |       470025 |       996767 |       996767 |       996767 |       996767 |      2134343 |      2134343 |      2134343 |      2134343 |      4557926 |      4557926 |      4557926 |      4557926 |      9713918 |      9713918 |      9713918 |      9713918 |     20481109 |     20481109 |     20481109 |     20481109 |     43198727 |     43198727 |     43198727 |     43198727 |     90451054 |     90451054 |     90451054 |     90451054 |    191250335 |    191250335 |    191250335 |    191250335 |    398171165 |    398171165 |    398171165 |    398171165 |    835790439 |    835790439 |    835790439 |    835790439 |
itlb.hits                                   470015 |       470015 |       470015 |       470015 |       996757 |       996757 |       996757 |       996757 |      2134333 |      2134333 |      2134333 |      2134333 |      4557916 |      4557916 |      4557916 |      4557916 |      9713908 |      9713908 |      9713908 |      9713908 |     20481099 |     20481099 |     20481099 |     20481099 |     43198717 |     43198717 |     43198717 |     43198717 |     90451044 |     90451044 |     90451044 |     90451044 |    191250325 |    191250325 |    191250325 |    191250325 |    398171155 |    398171155 |    398171155 |    398171155 |    835790429 |    835790429 |    835790429 |    835790429 |
itlb.misses                                     10 |           10 |           10 |           10 |           10 |           10 |           10 |           10 |           10 |           10 |           10 |           10 |           10 |           10 |           10 |           10 |           10 |           10 |           10 |           10 |           10 |           10 |           10 |           10 |           10 |           10 |           10 |           10 |           10 |           10 |           10 |           10 |           10 |           10 |           10 |           10 |           10 |           10 |           10 |           10 |           10 |           10 |           10 |           10 |
itlb.replacements                                0 |            0 |            0 |            0 |            0 |            0 |            0 |            0 |            0 |            0 |            0 |            0 |            0 |            0 |            0 |            0 |            0 |            0 |            0 |            0 |            0 |            0 |            0 |            0 |            0 |            0 |            0 |            0 |            0 |            0 |            0 |            0 |            0 |            0 |            0 |            0 |            0 |            0 |            0 |            0 |            0 |            0 |            0 |            0 |
itlb.writebacks                                  0 |            0 |            0 |            0 |            0 |            0 |            0 |            0 |            0 |            0 |            0 |            0 |            0 |            0 |            0 |            0 |            0 |            0 |            0 |            0 |            0 |            0 |            0 |            0 |            0 |            0 |            0 |            0 |            0 |            0 |            0 |            0 |            0 |            0 |            0 |            0 |            0 |            0 |            0 |            0 |            0 |            0 |            0 |            0 |
itlb.invalidations                               0 |            0 |            0 |            0 |            0 |            0 |            0 |            0 |            0 |            0 |            0 |            0 |            0 |            0 |            0 |            0 |            0 |            0 |            0 |            0 |            0 |            0 |            0 |            0 |            0 |            0 |            0 |            0 |            0 |            0 |            0 |            0 |            0 |            0 |            0 |            0 |            0 |            0 |            0 |            0 |            0 |            0 |            0 |            0 |
itlb.miss_rate                              0.0000 |       0.0000 |       0.0000 |       0.0000 |       0.0000 |       0.0000 |       0.0000 |       0.0000 |       0.0000 |       0.0000 |       0.0000 |       0.0000 |       0.0000 |       0.0000 |       0.0000 |       0.0000 |       0.0000 |       0.0000 |       0.0000 |       0.0000 |       0.0000 |       0.0000 |       0.0000 |       0.0000 |       0.0000 |       0.0000 |       0.0000 |       0.0000 |       0.0000 |       0.0000 |       0.0000 |       0.0000 |       0.0000 |       0.0000 |       0.0000 |       0.0000 |       0.0000 |       0.0000 |       0.0000 |       0.0000 |       0.0000 |       0.0000 |       0.0000 |       0.0000 |
itlb.repl_rate                              0.0000 |       0.0000 |       0.0000 |       0.0000 |       0.0000 |       0.0000 |       0.0000 |       0.0000 |       0.0000 |       0.0000 |       0.0000 |       0.0000 |       0.0000 |       0.0000 |       0.0000 |       0.0000 |       0.0000 |       0.0000 |       0.0000 |       0.0000 |       0.0000 |       0.0000 |       0.0000 |       0.0000 |       0.0000 |       0.0000 |       0.0000 |       0.0000 |       0.0000 |       0.0000 |       0.0000 |       0.0000 |       0.0000 |       0.0000 |       0.0000 |       0.0000 |       0.0000 |       0.0000 |       0.0000 |       0.0000 |       0.0000 |       0.0000 |       0.0000 |       0.0000 |
itlb.wb_rate                                0.0000 |       0.0000 |       0.0000 |       0.0000 |       0.0000 |       0.0000 |       0.0000 |       0.0000 |       0.0000 |       0.0000 |       0.0000 |       0.0000 |       0.0000 |       0.0000 |       0.0000 |       0.0000 |       0.0000 |       0.0000 |       0.0000 |       0.0000 |       0.0000 |       0.0000 |       0.0000 |       0.0000 |       0.0000 |       0.0000 |       0.0000 |       0.0000 |       0.0000 |       0.0000 |       0.0000 |       0.0000 |       0.0000 |       0.0000 |       0.0000 |       0.0000 |       0.0000 |       0.0000 |       0.0000 |       0.0000 |       0.0000 |       0.0000 |       0.0000 |       0.0000 |
itlb.inv_rate                               0.0000 |       0.0000 |       0.0000 |       0.0000 |       0.0000 |       0.0000 |       0.0000 |       0.0000 |       0.0000 |       0.0000 |       0.0000 |       0.0000 |       0.0000 |       0.0000 |       0.0000 |       0.0000 |       0.0000 |       0.0000 |       0.0000 |       0.0000 |       0.0000 |       0.0000 |       0.0000 |       0.0000 |       0.0000 |       0.0000 |       0.0000 |       0.0000 |       0.0000 |       0.0000 |       0.0000 |       0.0000 |       0.0000 |       0.0000 |       0.0000 |       0.0000 |       0.0000 |       0.0000 |       0.0000 |       0.0000 |       0.0000 |       0.0000 |       0.0000 |       0.0000 |
dtlb.accesses                               142829 |       142829 |       142829 |       142829 |       298126 |       298126 |       298126 |       298126 |       625521 |       625521 |       625521 |       625521 |      1317427 |      1317427 |      1317427 |      1317427 |      2769920 |      2769920 |      2769920 |      2769920 |      5794703 |      5794703 |      5794703 |      5794703 |     12118668 |     12118668 |     12118668 |     12118668 |     25251052 |     25251052 |     25251052 |     25251052 |     52822160 |     52822160 |     52822160 |     52822160 |    109619616 |    109619616 |    109619616 |    109619616 |    228304977 |    228304977 |    228304977 |    228304977 |
dtlb.hits                                   142817 |       142817 |       142817 |       142817 |       298110 |       298110 |       298110 |       298110 |       625497 |       625497 |       625497 |       625497 |      1317387 |      1317387 |      1317387 |      1317387 |      2769848 |      2769848 |      2769848 |      2769848 |      5794525 |      5794525 |      5794525 |      5794525 |     12117607 |     12117607 |     12117607 |     12117607 |     25248543 |     25248543 |     25248543 |     25248543 |     52815747 |     52815747 |     52815747 |     52815747 |    109605039 |    109605039 |    109605039 |    109605039 |    228270811 |    228270811 |    228270811 |    228270811 |
dtlb.misses                                     12 |           12 |           12 |           12 |           16 |           16 |           16 |           16 |           24 |           24 |           24 |           24 |           40 |           40 |           40 |           40 |           72 |           72 |           72 |           72 |          178 |          178 |          178 |          178 |         1061 |         1061 |         1061 |         1061 |         2509 |         2509 |         2509 |         2509 |         6413 |         6413 |         6413 |         6413 |        14577 |        14577 |        14577 |        14577 |        34166 |        34166 |        34166 |        34166 |
dtlb.replacements                                0 |            0 |            0 |            0 |            0 |            0 |            0 |            0 |            0 |            0 |            0 |            0 |            0 |            0 |            0 |            0 |            0 |            0 |            0 |            0 |           50 |           50 |           50 |           50 |          933 |          933 |          933 |          933 |         2381 |         2381 |         2381 |         2381 |         6285 |         6285 |         6285 |         6285 |        14449 |        14449 |        14449 |        14449 |        34038 |        34038 |        34038 |        34038 |
dtlb.writebacks                                  0 |            0 |            0 |            0 |            0 |            0 |            0 |            0 |            0 |            0 |            0 |            0 |            0 |            0 |            0 |            0 |            0 |            0 |            0 |            0 |           46 |           46 |           46 |           46 |          923 |          923 |          923 |          923 |         2363 |         2363 |         2363 |         2363 |         6252 |         6252 |         6252 |         6252 |        14381 |        14381 |        14381 |        14381 |        33898 |        33898 |        33898 |        33898 |
dtlb.invalidations                               0 |            0 |            0 |            0 |            0 |            0 |            0 |            0 |            0 |            0 |            0 |            0 |            0 |            0 |            0 |            0 |            0 |            0 |            0 |            0 |            0 |            0 |            0 |            0 |            0 |            0 |            0 |            0 |            0 |            0 |            0 |            0 |            0 |            0 |            0 |            0 |            0 |            0 |            0 |            0 |            0 |            0 |            0 |            0 |
dtlb.miss_rate                              0.0001 |       0.0001 |       0.0001 |       0.0001 |       0.0001 |       0.0001 |       0.0001 |       0.0001 |       0.0000 |       0.0000 |       0.0000 |       0.0000 |       0.0000 |       0.0000 |       0.0000 |       0.0000 |       0.0000 |       0.0000 |       0.0000 |       0.0000 |       0.0000 |       0.0000 |       0.0000 |       0.0000 |       0.0001 |       0.0001 |       0.0001 |       0.0001 |       0.0001 |       0.0001 |       0.0001 |       0.0001 |       0.0001 |       0.0001 |       0.0001 |       0.0001 |       0.0001 |       0.0001 |       0.0001 |       0.0001 |       0.0001 |       0.0001 |       0.0001 |       0.0001 |
dtlb.repl_rate                              0.0000 |       0.0000 |       0.0000 |       0.0000 |       0.0000 |       0.0000 |       0.0000 |       0.0000 |       0.0000 |       0.0000 |       0.0000 |       0.0000 |       0.0000 |       0.0000 |       0.0000 |       0.0000 |       0.0000 |       0.0000 |       0.0000 |       0.0000 |       0.0000 |       0.0000 |       0.0000 |       0.0000 |       0.0001 |       0.0001 |       0.0001 |       0.0001 |       0.0001 |       0.0001 |       0.0001 |       0.0001 |       0.0001 |       0.0001 |       0.0001 |       0.0001 |       0.0001 |       0.0001 |       0.0001 |       0.0001 |       0.0001 |       0.0001 |       0.0001 |       0.0001 |
dtlb.wb_rate                                0.0000 |       0.0000 |       0.0000 |       0.0000 |       0.0000 |       0.0000 |       0.0000 |       0.0000 |       0.0000 |       0.0000 |       0.0000 |       0.0000 |       0.0000 |       0.0000 |       0.0000 |       0.0000 |       0.0000 |       0.0000 |       0.0000 |       0.0000 |       0.0000 |       0.0000 |       0.0000 |       0.0000 |       0.0001 |       0.0001 |       0.0001 |       0.0001 |       0.0001 |       0.0001 |       0.0001 |       0.0001 |       0.0001 |       0.0001 |       0.0001 |       0.0001 |       0.0001 |       0.0001 |       0.0001 |       0.0001 |       0.0001 |       0.0001 |       0.0001 |       0.0001 |
dtlb.inv_rate                               0.0000 |       0.0000 |       0.0000 |       0.0000 |       0.0000 |       0.0000 |       0.0000 |       0.0000 |       0.0000 |       0.0000 |       0.0000 |       0.0000 |       0.0000 |       0.0000 |       0.0000 |       0.0000 |       0.0000 |       0.0000 |       0.0000 |       0.0000 |       0.0000 |       0.0000 |       0.0000 |       0.0000 |       0.0000 |       0.0000 |       0.0000 |       0.0000 |       0.0000 |       0.0000 |       0.0000 |       0.0000 |       0.0000 |       0.0000 |       0.0000 |       0.0000 |       0.0000 |       0.0000 |       0.0000 |       0.0000 |       0.0000 |       0.0000 |       0.0000 |       0.0000 |
ld_text_base                            0x00400000 |   0x00400000 |   0x00400000 |   0x00400000 |   0x00400000 |   0x00400000 |   0x00400000 |   0x00400000 |   0x00400000 |   0x00400000 |   0x00400000 |   0x00400000 |   0x00400000 |   0x00400000 |   0x00400000 |   0x00400000 |   0x00400000 |   0x00400000 |   0x00400000 |   0x00400000 |   0x00400000 |   0x00400000 |   0x00400000 |   0x00400000 |   0x00400000 |   0x00400000 |   0x00400000 |   0x00400000 |   0x00400000 |   0x00400000 |   0x00400000 |   0x00400000 |   0x00400000 |   0x00400000 |   0x00400000 |   0x00400000 |   0x00400000 |   0x00400000 |   0x00400000 |   0x00400000 |   0x00400000 |   0x00400000 |   0x00400000 |   0x00400000 |
ld_text_size                                 74192 |        74192 |        74192 |        74192 |        74224 |        74224 |        74224 |        74224 |        74240 |        74240 |        74240 |        74240 |        74256 |        74256 |        74256 |        74256 |        74256 |        74256 |        74256 |        74256 |        74256 |        74256 |        74256 |        74256 |        74256 |        74256 |        74256 |        74256 |        74256 |        74256 |        74256 |        74256 |        74256 |        74256 |        74256 |        74256 |        74256 |        74256 |        74256 |        74256 |        74256 |        74256 |        74256 |        74256 |
ld_data_base                            0x10000000 |   0x10000000 |   0x10000000 |   0x10000000 |   0x10000000 |   0x10000000 |   0x10000000 |   0x10000000 |   0x10000000 |   0x10000000 |   0x10000000 |   0x10000000 |   0x10000000 |   0x10000000 |   0x10000000 |   0x10000000 |   0x10000000 |   0x10000000 |   0x10000000 |   0x10000000 |   0x10000000 |   0x10000000 |   0x10000000 |   0x10000000 |   0x10000000 |   0x10000000 |   0x10000000 |   0x10000000 |   0x10000000 |   0x10000000 |   0x10000000 |   0x10000000 |   0x10000000 |   0x10000000 |   0x10000000 |   0x10000000 |   0x10000000 |   0x10000000 |   0x10000000 |   0x10000000 |   0x10000000 |   0x10000000 |   0x10000000 |   0x10000000 |
ld_data_size                                  8192 |         8192 |         8192 |         8192 |         8192 |         8192 |         8192 |         8192 |         8192 |         8192 |         8192 |         8192 |         8192 |         8192 |         8192 |         8192 |         8192 |         8192 |         8192 |         8192 |         8192 |         8192 |         8192 |         8192 |         8192 |         8192 |         8192 |         8192 |         8192 |         8192 |         8192 |         8192 |         8192 |         8192 |         8192 |         8192 |         8192 |         8192 |         8192 |         8192 |         8192 |         8192 |         8192 |         8192 |
ld_stack_base                           0x7fffc000 |   0x7fffc000 |   0x7fffc000 |   0x7fffc000 |   0x7fffc000 |   0x7fffc000 |   0x7fffc000 |   0x7fffc000 |   0x7fffc000 |   0x7fffc000 |   0x7fffc000 |   0x7fffc000 |   0x7fffc000 |   0x7fffc000 |   0x7fffc000 |   0x7fffc000 |   0x7fffc000 |   0x7fffc000 |   0x7fffc000 |   0x7fffc000 |   0x7fffc000 |   0x7fffc000 |   0x7fffc000 |   0x7fffc000 |   0x7fffc000 |   0x7fffc000 |   0x7fffc000 |   0x7fffc000 |   0x7fffc000 |   0x7fffc000 |   0x7fffc000 |   0x7fffc000 |   0x7fffc000 |   0x7fffc000 |   0x7fffc000 |   0x7fffc000 |   0x7fffc000 |   0x7fffc000 |   0x7fffc000 |   0x7fffc000 |   0x7fffc000 |   0x7fffc000 |   0x7fffc000 |   0x7fffc000 |
ld_stack_size                                16384 |        16384 |        16384 |        16384 |        16384 |        16384 |        16384 |        16384 |        16384 |        16384 |        16384 |        16384 |        16384 |        16384 |        16384 |        16384 |        16384 |        16384 |        16384 |        16384 |        16384 |        16384 |        16384 |        16384 |        16384 |        16384 |        16384 |        16384 |        16384 |        16384 |        16384 |        16384 |        16384 |        16384 |        16384 |        16384 |        16384 |        16384 |        16384 |        16384 |        16384 |        16384 |        16384 |        16384 |
ld_prog_entry                           0x00400140 |   0x00400140 |   0x00400140 |   0x00400140 |   0x00400140 |   0x00400140 |   0x00400140 |   0x00400140 |   0x00400140 |   0x00400140 |   0x00400140 |   0x00400140 |   0x00400140 |   0x00400140 |   0x00400140 |   0x00400140 |   0x00400140 |   0x00400140 |   0x00400140 |   0x00400140 |   0x00400140 |   0x00400140 |   0x00400140 |   0x00400140 |   0x00400140 |   0x00400140 |   0x00400140 |   0x00400140 |   0x00400140 |   0x00400140 |   0x00400140 |   0x00400140 |   0x00400140 |   0x00400140 |   0x00400140 |   0x00400140 |   0x00400140 |   0x00400140 |   0x00400140 |   0x00400140 |   0x00400140 |   0x00400140 |   0x00400140 |   0x00400140 |
ld_environ_base                         0x7fff8000 |   0x7fff8000 |   0x7fff8000 |   0x7fff8000 |   0x7fff8000 |   0x7fff8000 |   0x7fff8000 |   0x7fff8000 |   0x7fff8000 |   0x7fff8000 |   0x7fff8000 |   0x7fff8000 |   0x7fff8000 |   0x7fff8000 |   0x7fff8000 |   0x7fff8000 |   0x7fff8000 |   0x7fff8000 |   0x7fff8000 |   0x7fff8000 |   0x7fff8000 |   0x7fff8000 |   0x7fff8000 |   0x7fff8000 |   0x7fff8000 |   0x7fff8000 |   0x7fff8000 |   0x7fff8000 |   0x7fff8000 |   0x7fff8000 |   0x7fff8000 |   0x7fff8000 |   0x7fff8000 |   0x7fff8000 |   0x7fff8000 |   0x7fff8000 |   0x7fff8000 |   0x7fff8000 |   0x7fff8000 |   0x7fff8000 |   0x7fff8000 |   0x7fff8000 |   0x7fff8000 |   0x7fff8000 |
ld_target_big_endian                             0 |            0 |            0 |            0 |            0 |            0 |            0 |            0 |            0 |            0 |            0 |            0 |            0 |            0 |            0 |            0 |            0 |            0 |            0 |            0 |            0 |            0 |            0 |            0 |            0 |            0 |            0 |            0 |            0 |            0 |            0 |            0 |            0 |            0 |            0 |            0 |            0 |            0 |            0 |            0 |            0 |            0 |            0 |            0 |
mem.page_count                                  31 |           31 |           31 |           31 |           35 |           35 |           35 |           35 |           43 |           43 |           43 |           43 |           59 |           59 |           59 |           59 |           91 |           91 |           91 |           91 |          155 |          155 |          155 |          155 |          283 |          283 |          283 |          283 |          539 |          539 |          539 |          539 |         1051 |         1051 |         1051 |         1051 |         2075 |         2075 |         2075 |         2075 |         4123 |         4123 |         4123 |         4123 |
mem.page_mem                                  124k |         124k |         124k |         124k |         140k |         140k |         140k |         140k |         172k |         172k |         172k |         172k |         236k |         236k |         236k |         236k |         364k |         364k |         364k |         364k |         620k |         620k |         620k |         620k |        1132k |        1132k |        1132k |        1132k |        2156k |        2156k |        2156k |        2156k |        4204k |        4204k |        4204k |        4204k |        8300k |        8300k |        8300k |        8300k |       16492k |       16492k |       16492k |       16492k |
mem.ptab_misses                                 31 |           31 |           31 |           31 |           35 |           35 |           35 |           35 |           43 |           43 |           43 |           43 |           59 |           59 |           59 |           59 |           91 |           91 |           91 |           91 |          155 |          155 |          155 |          155 |          283 |          283 |          283 |          283 |          539 |          539 |          539 |          539 |         1051 |         1051 |         1051 |         1051 |         2075 |         2075 |         2075 |         2075 |         4123 |         4123 |         4123 |         4123 |
mem.ptab_accesses                          2625534 |      2625534 |      2625534 |      2625534 |      5043288 |      5043288 |      5043288 |      5043288 |     10248478 |     10248478 |     10248478 |     10248478 |     21326718 |     21326718 |     21326718 |     21326718 |     44855672 |     44855672 |     44855672 |     44855672 |     93974002 |     93974002 |     93974002 |     93974002 |    197492404 |    197492404 |    197492404 |    197492404 |    412766480 |    412766480 |    412766480 |    412766480 |    871105820 |    871105820 |    871105820 |    871105820 |   1812384052 |   1812384052 |   1812384052 |   1812384052 |   3800231870 |   3800231870 |   3800231870 |   3800231870 |
mem.ptab_miss_rate                          0.0000 |       0.0000 |       0.0000 |       0.0000 |       0.0000 |       0.0000 |       0.0000 |       0.0000 |       0.0000 |       0.0000 |       0.0000 |       0.0000 |       0.0000 |       0.0000 |       0.0000 |       0.0000 |       0.0000 |       0.0000 |       0.0000 |       0.0000 |       0.0000 |       0.0000 |       0.0000 |       0.0000 |       0.0000 |       0.0000 |       0.0000 |       0.0000 |       0.0000 |       0.0000 |       0.0000 |       0.0000 |       0.0000 |       0.0000 |       0.0000 |       0.0000 |       0.0000 |       0.0000 |       0.0000 |       0.0000 |       0.0000 |       0.0000 |       0.0000 |       0.0000 |
-------------------------------------------------------------------------------------------------
sim-bpred                                     4096 |         4096 |         4096 |         4096 |         4096 |         4096 |         4096 |         8192 |         8192 |         8192 |         8192 |         8192 |         8192 |         8192 |        16384 |        16384 |        16384 |        16384 |        16384 |        16384 |        16384 |        32768 |        32768 |        32768 |        32768 |        32768 |        32768 |        32768 |        65536 |        65536 |        65536 |        65536 |        65536 |        65536 |        65536 |       131072 |       131072 |       131072 |       131072 |       131072 |       131072 |       131072 |       262144 |       262144 |       262144 |       262144 |       262144 |       262144 |       262144 |       524288 |       524288 |       524288 |       524288 |       524288 |       524288 |       524288 |      1048576 |      1048576 |      1048576 |      1048576 |      1048576 |      1048576 |      1048576 |      2097152 |      2097152 |      2097152 |      2097152 |      2097152 |      2097152 |      2097152 |      4194304 |      4194304 |      4194304 |      4194304 |      4194304 |      4194304 |      4194304 |
-bpred bimod -bpred:bimod 512
-bpred bimod -bpred:bimod 1024
-bpred bimod -bpred:bimod 2048
-bpred 2lev -bpred:2lev 1 512 10 1
-bpred 2lev -bpred:2lev 1 1024 10 1
-bpred 2lev -bpred:2lev 1 2048 10 1
-bpred 2lev -bpred:2lev 1 4096 10 1
-------------------------------------------------------------------------------------------------
sim_num_insn                                470025 |       470025 |       470025 |       470025 |       470025 |       470025 |       470025 |       996767 |       996767 |       996767 |       996767 |       996767 |       996767 |       996767 |      2134343 |      2134343 |      2134343 |      2134343 |      2134343 |      2134343 |      2134343 |      4557926 |      4557926 |      4557926 |      4557926 |      4557926 |      4557926 |      4557926 |      9713918 |      9713918 |      9713918 |      9713918 |      9713918 |      9713918 |      9713918 |     20481109 |     20481109 |     20481109 |     20481109 |     20481109 |     20481109 |     20481109 |     43198727 |     43198727 |     43198727 |     43198727 |     43198727 |     43198727 |     43198727 |     90451054 |     90451054 |     90451054 |     90451054 |     90451054 |     90451054 |     90451054 |    191250335 |    191250335 |    191250335 |    191250335 |    191250335 |    191250335 |    191250335 |    398171165 |    398171165 |    398171165 |    398171165 |    398171165 |    398171165 |    398171165 |    835790439 |    835790439 |    835790439 |    835790439 |    835790439 |    835790439 |    835790439 |
sim_num_refs                                126363 |       126363 |       126363 |       126363 |       126363 |       126363 |       126363 |       265276 |       265276 |       265276 |       265276 |       265276 |       265276 |       265276 |       559903 |       559903 |       559903 |       559903 |       559903 |       559903 |       559903 |      1186273 |      1186273 |      1186273 |      1186273 |      1186273 |      1186273 |      1186273 |      2507694 |      2507694 |      2507694 |      2507694 |      2507694 |      2507694 |      2507694 |      5270333 |      5270333 |      5270333 |      5270333 |      5270333 |      5270333 |      5270333 |     11070010 |     11070010 |     11070010 |     11070010 |     11070010 |     11070010 |     11070010 |     23153818 |     23153818 |     23153818 |     23153818 |     23153818 |     23153818 |     23153818 |     48627774 |     48627774 |     48627774 |     48627774 |     48627774 |     48627774 |     48627774 |    101230926 |    101230926 |    101230926 |    101230926 |    101230926 |    101230926 |    101230926 |    211527679 |    211527679 |    211527679 |    211527679 |    211527679 |    211527679 |    211527679 |
sim_elapsed_time                                 1 |            1 |            1 |            1 |            1 |            1 |            1 |            1 |            1 |            1 |            1 |            1 |            1 |            1 |            1 |            1 |            1 |            1 |            1 |            1 |            1 |            1 |            1 |            1 |            1 |            1 |            1 |            1 |            1 |            1 |            2 |            1 |            2 |            2 |            1 |            2 |            3 |            4 |            2 |            3 |            4 |            3 |            6 |            5 |            8 |            5 |            6 |            8 |            6 |           12 |           11 |           17 |           11 |           11 |           18 |           11 |           24 |           24 |           35 |           23 |           24 |           37 |           24 |           50 |           49 |           73 |           50 |           50 |           77 |           51 |          103 |          103 |          153 |          104 |          105 |          162 |          106 |
sim_inst_rate                          470025.0000 |  470025.0000 |  470025.0000 |  470025.0000 |  470025.0000 |  470025.0000 |  470025.0000 |  996767.0000 |  996767.0000 |  996767.0000 |  996767.0000 |  996767.0000 |  996767.0000 |  996767.0000 | 2134343.0000 | 2134343.0000 | 2134343.0000 | 2134343.0000 | 2134343.0000 | 2134343.0000 | 2134343.0000 | 4557926.0000 | 4557926.0000 | 4557926.0000 | 4557926.0000 | 4557926.0000 | 4557926.0000 | 4557926.0000 | 9713918.0000 | 9713918.0000 | 4856959.0000 | 9713918.0000 | 4856959.0000 | 4856959.0000 | 9713918.0000 |10240554.5000 | 6827036.3333 | 5120277.2500 |10240554.5000 | 6827036.3333 | 5120277.2500 | 6827036.3333 | 7199787.8333 | 8639745.4000 | 5399840.8750 | 8639745.4000 | 7199787.8333 | 5399840.8750 | 7199787.8333 | 7537587.8333 | 8222823.0909 | 5320650.2353 | 8222823.0909 | 8222823.0909 | 5025058.5556 | 8222823.0909 | 7968763.9583 | 7968763.9583 | 5464295.2857 | 8315231.9565 | 7968763.9583 | 5168927.9730 | 7968763.9583 | 7963423.3000 | 8125942.1429 | 5454399.5205 | 7963423.3000 | 7963423.3000 | 5171054.0909 | 7807277.7451 | 8114470.2816 | 8114470.2816 | 5462682.6078 | 8036446.5288 | 7959908.9429 | 5159200.2407 | 7884815.4623 |
sim_num_branches                             77318 |        77318 |        77318 |        77318 |        77318 |        77318 |        77318 |       165270 |       165270 |       165270 |       165270 |       165270 |       165270 |       165270 |       356708 |       356708 |       356708 |       356708 |       356708 |       356708 |       356708 |       764627 |       764627 |       764627 |       764627 |       764627 |       764627 |       764627 |      1638332 |      1638332 |      1638332 |      1638332 |      1638332 |      1638332 |      1638332 |      3468053 |      3468053 |      3468053 |      3468053 |      3468053 |      3468053 |      3468053 |      7342221 |      7342221 |      7342221 |      7342221 |      7342221 |      7342221 |      7342221 |     15424703 |     15424703 |     15424703 |     15424703 |     15424703 |     15424703 |     15424703 |     32697998 |     32697998 |     32697998 |     32697998 |     32697998 |     32697998 |     32697998 |     68274524 |     68274524 |     68274524 |     68274524 |     68274524 |     68274524 |     68274524 |    143654137 |    143654137 |    143654137 |    143654137 |    143654137 |    143654137 |    143654137 |
sim_IPB                                     6.0791 |       6.0791 |       6.0791 |       6.0791 |       6.0791 |       6.0791 |       6.0791 |       6.0311 |       6.0311 |       6.0311 |       6.0311 |       6.0311 |       6.0311 |       6.0311 |       5.9834 |       5.9834 |       5.9834 |       5.9834 |       5.9834 |       5.9834 |       5.9834 |       5.9610 |       5.9610 |       5.9610 |       5.9610 |       5.9610 |       5.9610 |       5.9610 |       5.9292 |       5.9292 |       5.9292 |       5.9292 |       5.9292 |       5.9292 |       5.9292 |       5.9057 |       5.9057 |       5.9057 |       5.9057 |       5.9057 |       5.9057 |       5.9057 |       5.8836 |       5.8836 |       5.8836 |       5.8836 |       5.8836 |       5.8836 |       5.8836 |       5.8640 |       5.8640 |       5.8640 |       5.8640 |       5.8640 |       5.8640 |       5.8640 |       5.8490 |       5.8490 |       5.8490 |       5.8490 |       5.8490 |       5.8490 |       5.8490 |       5.8319 |       5.8319 |       5.8319 |       5.8319 |       5.8319 |       5.8319 |       5.8319 |       5.8181 |       5.8181 |       5.8181 |       5.8181 |       5.8181 |       5.8181 |       5.8181 |
bpred_bimod.lookups                          77318 |        77318 |        77318 |xxxxxxxxxxxxx |xxxxxxxxxxxxx |xxxxxxxxxxxxx |xxxxxxxxxxxxx |       165270 |       165270 |       165270 |xxxxxxxxxxxxx |xxxxxxxxxxxxx |xxxxxxxxxxxxx |xxxxxxxxxxxxx |       356708 |       356708 |       356708 |xxxxxxxxxxxxx |xxxxxxxxxxxxx |xxxxxxxxxxxxx |xxxxxxxxxxxxx |       764627 |       764627 |       764627 |xxxxxxxxxxxxx |xxxxxxxxxxxxx |xxxxxxxxxxxxx |xxxxxxxxxxxxx |      1638332 |      1638332 |      1638332 |xxxxxxxxxxxxx |xxxxxxxxxxxxx |xxxxxxxxxxxxx |xxxxxxxxxxxxx |      3468053 |      3468053 |      3468053 |xxxxxxxxxxxxx |xxxxxxxxxxxxx |xxxxxxxxxxxxx |xxxxxxxxxxxxx |      7342221 |      7342221 |      7342221 |xxxxxxxxxxxxx |xxxxxxxxxxxxx |xxxxxxxxxxxxx |xxxxxxxxxxxxx |     15424703 |     15424703 |     15424703 |xxxxxxxxxxxxx |xxxxxxxxxxxxx |xxxxxxxxxxxxx |xxxxxxxxxxxxx |     32697998 |     32697998 |     32697998 |xxxxxxxxxxxxx |xxxxxxxxxxxxx |xxxxxxxxxxxxx |xxxxxxxxxxxxx |     68274524 |     68274524 |     68274524 |xxxxxxxxxxxxx |xxxxxxxxxxxxx |xxxxxxxxxxxxx |xxxxxxxxxxxxx |    143654137 |    143654137 |    143654137 |
bpred_bimod.updates                          77318 |        77318 |        77318 |xxxxxxxxxxxxx |xxxxxxxxxxxxx |xxxxxxxxxxxxx |xxxxxxxxxxxxx |       165270 |       165270 |       165270 |xxxxxxxxxxxxx |xxxxxxxxxxxxx |xxxxxxxxxxxxx |xxxxxxxxxxxxx |       356708 |       356708 |       356708 |xxxxxxxxxxxxx |xxxxxxxxxxxxx |xxxxxxxxxxxxx |xxxxxxxxxxxxx |       764627 |       764627 |       764627 |xxxxxxxxxxxxx |xxxxxxxxxxxxx |xxxxxxxxxxxxx |xxxxxxxxxxxxx |      1638332 |      1638332 |      1638332 |xxxxxxxxxxxxx |xxxxxxxxxxxxx |xxxxxxxxxxxxx |xxxxxxxxxxxxx |      3468053 |      3468053 |      3468053 |xxxxxxxxxxxxx |xxxxxxxxxxxxx |xxxxxxxxxxxxx |xxxxxxxxxxxxx |      7342221 |      7342221 |      7342221 |xxxxxxxxxxxxx |xxxxxxxxxxxxx |xxxxxxxxxxxxx |xxxxxxxxxxxxx |     15424703 |     15424703 |     15424703 |xxxxxxxxxxxxx |xxxxxxxxxxxxx |xxxxxxxxxxxxx |xxxxxxxxxxxxx |     32697998 |     32697998 |     32697998 |xxxxxxxxxxxxx |xxxxxxxxxxxxx |xxxxxxxxxxxxx |xxxxxxxxxxxxx |     68274524 |     68274524 |     68274524 |xxxxxxxxxxxxx |xxxxxxxxxxxxx |xxxxxxxxxxxxx |xxxxxxxxxxxxx |    143654137 |    143654137 |    143654137 |
bpred_bimod.addr_hits                        53791 |        53790 |        53790 |xxxxxxxxxxxxx |xxxxxxxxxxxxx |xxxxxxxxxxxxx |xxxxxxxxxxxxx |       114053 |       114052 |       114053 |xxxxxxxxxxxxx |xxxxxxxxxxxxx |xxxxxxxxxxxxx |xxxxxxxxxxxxx |       248822 |       248820 |       248820 |xxxxxxxxxxxxx |xxxxxxxxxxxxx |xxxxxxxxxxxxx |xxxxxxxxxxxxx |       532730 |       532729 |       532731 |xxxxxxxxxxxxx |xxxxxxxxxxxxx |xxxxxxxxxxxxx |xxxxxxxxxxxxx |      1148305 |      1148304 |      1148303 |xxxxxxxxxxxxx |xxxxxxxxxxxxx |xxxxxxxxxxxxx |xxxxxxxxxxxxx |      2427654 |      2427652 |      2427652 |xxxxxxxxxxxxx |xxxxxxxxxxxxx |xxxxxxxxxxxxx |xxxxxxxxxxxxx |      5145895 |      5145900 |      5145901 |xxxxxxxxxxxxx |xxxxxxxxxxxxx |xxxxxxxxxxxxx |xxxxxxxxxxxxx |     10736381 |     10736384 |     10736385 |xxxxxxxxxxxxx |xxxxxxxxxxxxx |xxxxxxxxxxxxx |xxxxxxxxxxxxx |     22944157 |     22944160 |     22944162 |xxxxxxxxxxxxx |xxxxxxxxxxxxx |xxxxxxxxxxxxx |xxxxxxxxxxxxx |     47627259 |     47627257 |     47627260 |xxxxxxxxxxxxx |xxxxxxxxxxxxx |xxxxxxxxxxxxx |xxxxxxxxxxxxx |    100641822 |    100641822 |    100641823 |
bpred_bimod.dir_hits                         53912 |        53909 |        53908 |xxxxxxxxxxxxx |xxxxxxxxxxxxx |xxxxxxxxxxxxx |xxxxxxxxxxxxx |       114173 |       114170 |       114172 |xxxxxxxxxxxxx |xxxxxxxxxxxxx |xxxxxxxxxxxxx |xxxxxxxxxxxxx |       248948 |       248942 |       248942 |xxxxxxxxxxxxx |xxxxxxxxxxxxx |xxxxxxxxxxxxx |xxxxxxxxxxxxx |       532852 |       532849 |       532851 |xxxxxxxxxxxxx |xxxxxxxxxxxxx |xxxxxxxxxxxxx |xxxxxxxxxxxxx |      1148432 |      1148429 |      1148427 |xxxxxxxxxxxxx |xxxxxxxxxxxxx |xxxxxxxxxxxxx |xxxxxxxxxxxxx |      2427779 |      2427775 |      2427774 |xxxxxxxxxxxxx |xxxxxxxxxxxxx |xxxxxxxxxxxxx |xxxxxxxxxxxxx |      5146020 |      5146022 |      5146022 |xxxxxxxxxxxxx |xxxxxxxxxxxxx |xxxxxxxxxxxxx |xxxxxxxxxxxxx |     10736503 |     10736504 |     10736504 |xxxxxxxxxxxxx |xxxxxxxxxxxxx |xxxxxxxxxxxxx |xxxxxxxxxxxxx |     22944279 |     22944280 |     22944282 |xxxxxxxxxxxxx |xxxxxxxxxxxxx |xxxxxxxxxxxxx |xxxxxxxxxxxxx |     47627384 |     47627380 |     47627383 |xxxxxxxxxxxxx |xxxxxxxxxxxxx |xxxxxxxxxxxxx |xxxxxxxxxxxxx |    100641947 |    100641945 |    100641946 |
bpred_bimod.misses                           23406 |        23409 |        23410 |xxxxxxxxxxxxx |xxxxxxxxxxxxx |xxxxxxxxxxxxx |xxxxxxxxxxxxx |        51097 |        51100 |        51098 |xxxxxxxxxxxxx |xxxxxxxxxxxxx |xxxxxxxxxxxxx |xxxxxxxxxxxxx |       107760 |       107766 |       107766 |xxxxxxxxxxxxx |xxxxxxxxxxxxx |xxxxxxxxxxxxx |xxxxxxxxxxxxx |       231775 |       231778 |       231776 |xxxxxxxxxxxxx |xxxxxxxxxxxxx |xxxxxxxxxxxxx |xxxxxxxxxxxxx |       489900 |       489903 |       489905 |xxxxxxxxxxxxx |xxxxxxxxxxxxx |xxxxxxxxxxxxx |xxxxxxxxxxxxx |      1040274 |      1040278 |      1040279 |xxxxxxxxxxxxx |xxxxxxxxxxxxx |xxxxxxxxxxxxx |xxxxxxxxxxxxx |      2196201 |      2196199 |      2196199 |xxxxxxxxxxxxx |xxxxxxxxxxxxx |xxxxxxxxxxxxx |xxxxxxxxxxxxx |      4688200 |      4688199 |      4688199 |xxxxxxxxxxxxx |xxxxxxxxxxxxx |xxxxxxxxxxxxx |xxxxxxxxxxxxx |      9753719 |      9753718 |      9753716 |xxxxxxxxxxxxx |xxxxxxxxxxxxx |xxxxxxxxxxxxx |xxxxxxxxxxxxx |     20647140 |     20647144 |     20647141 |xxxxxxxxxxxxx |xxxxxxxxxxxxx |xxxxxxxxxxxxx |xxxxxxxxxxxxx |     43012190 |     43012192 |     43012191 |
bpred_bimod.jr_hits                             64 |           64 |           64 |xxxxxxxxxxxxx |xxxxxxxxxxxxx |xxxxxxxxxxxxx |xxxxxxxxxxxxx |           64 |           64 |           64 |xxxxxxxxxxxxx |xxxxxxxxxxxxx |xxxxxxxxxxxxx |xxxxxxxxxxxxx |           64 |           64 |           64 |xxxxxxxxxxxxx |xxxxxxxxxxxxx |xxxxxxxxxxxxx |xxxxxxxxxxxxx |           64 |           64 |           64 |xxxxxxxxxxxxx |xxxxxxxxxxxxx |xxxxxxxxxxxxx |xxxxxxxxxxxxx |           64 |           64 |           64 |xxxxxxxxxxxxx |xxxxxxxxxxxxx |xxxxxxxxxxxxx |xxxxxxxxxxxxx |           64 |           64 |           64 |xxxxxxxxxxxxx |xxxxxxxxxxxxx |xxxxxxxxxxxxx |xxxxxxxxxxxxx |           64 |           64 |           64 |xxxxxxxxxxxxx |xxxxxxxxxxxxx |xxxxxxxxxxxxx |xxxxxxxxxxxxx |           64 |           64 |           64 |xxxxxxxxxxxxx |xxxxxxxxxxxxx |xxxxxxxxxxxxx |xxxxxxxxxxxxx |           64 |           64 |           64 |xxxxxxxxxxxxx |xxxxxxxxxxxxx |xxxxxxxxxxxxx |xxxxxxxxxxxxx |           64 |           64 |           64 |xxxxxxxxxxxxx |xxxxxxxxxxxxx |xxxxxxxxxxxxx |xxxxxxxxxxxxx |           64 |           64 |           64 |
bpred_bimod.jr_seen                             64 |           64 |           64 |xxxxxxxxxxxxx |xxxxxxxxxxxxx |xxxxxxxxxxxxx |xxxxxxxxxxxxx |           64 |           64 |           64 |xxxxxxxxxxxxx |xxxxxxxxxxxxx |xxxxxxxxxxxxx |xxxxxxxxxxxxx |           64 |           64 |           64 |xxxxxxxxxxxxx |xxxxxxxxxxxxx |xxxxxxxxxxxxx |xxxxxxxxxxxxx |           64 |           64 |           64 |xxxxxxxxxxxxx |xxxxxxxxxxxxx |xxxxxxxxxxxxx |xxxxxxxxxxxxx |           64 |           64 |           64 |xxxxxxxxxxxxx |xxxxxxxxxxxxx |xxxxxxxxxxxxx |xxxxxxxxxxxxx |           64 |           64 |           64 |xxxxxxxxxxxxx |xxxxxxxxxxxxx |xxxxxxxxxxxxx |xxxxxxxxxxxxx |           64 |           64 |           64 |xxxxxxxxxxxxx |xxxxxxxxxxxxx |xxxxxxxxxxxxx |xxxxxxxxxxxxx |           64 |           64 |           64 |xxxxxxxxxxxxx |xxxxxxxxxxxxx |xxxxxxxxxxxxx |xxxxxxxxxxxxx |           64 |           64 |           64 |xxxxxxxxxxxxx |xxxxxxxxxxxxx |xxxxxxxxxxxxx |xxxxxxxxxxxxx |           64 |           64 |           64 |xxxxxxxxxxxxx |xxxxxxxxxxxxx |xxxxxxxxxxxxx |xxxxxxxxxxxxx |           64 |           64 |           64 |
bpred_bimod.jr_non_ras_hits.PP                   0 |            0 |            0 |xxxxxxxxxxxxx |xxxxxxxxxxxxx |xxxxxxxxxxxxx |xxxxxxxxxxxxx |            0 |            0 |            0 |xxxxxxxxxxxxx |xxxxxxxxxxxxx |xxxxxxxxxxxxx |xxxxxxxxxxxxx |            0 |            0 |            0 |xxxxxxxxxxxxx |xxxxxxxxxxxxx |xxxxxxxxxxxxx |xxxxxxxxxxxxx |            0 |            0 |            0 |xxxxxxxxxxxxx |xxxxxxxxxxxxx |xxxxxxxxxxxxx |xxxxxxxxxxxxx |            0 |            0 |            0 |xxxxxxxxxxxxx |xxxxxxxxxxxxx |xxxxxxxxxxxxx |xxxxxxxxxxxxx |            0 |            0 |            0 |xxxxxxxxxxxxx |xxxxxxxxxxxxx |xxxxxxxxxxxxx |xxxxxxxxxxxxx |            0 |            0 |            0 |xxxxxxxxxxxxx |xxxxxxxxxxxxx |xxxxxxxxxxxxx |xxxxxxxxxxxxx |            0 |            0 |            0 |xxxxxxxxxxxxx |xxxxxxxxxxxxx |xxxxxxxxxxxxx |xxxxxxxxxxxxx |            0 |            0 |            0 |xxxxxxxxxxxxx |xxxxxxxxxxxxx |xxxxxxxxxxxxx |xxxxxxxxxxxxx |            0 |            0 |            0 |xxxxxxxxxxxxx |xxxxxxxxxxxxx |xxxxxxxxxxxxx |xxxxxxxxxxxxx |            0 |            0 |            0 |
bpred_bimod.jr_non_ras_seen.PP                   0 |            0 |            0 |xxxxxxxxxxxxx |xxxxxxxxxxxxx |xxxxxxxxxxxxx |xxxxxxxxxxxxx |            0 |            0 |            0 |xxxxxxxxxxxxx |xxxxxxxxxxxxx |xxxxxxxxxxxxx |xxxxxxxxxxxxx |            0 |            0 |            0 |xxxxxxxxxxxxx |xxxxxxxxxxxxx |xxxxxxxxxxxxx |xxxxxxxxxxxxx |            0 |            0 |            0 |xxxxxxxxxxxxx |xxxxxxxxxxxxx |xxxxxxxxxxxxx |xxxxxxxxxxxxx |            0 |            0 |            0 |xxxxxxxxxxxxx |xxxxxxxxxxxxx |xxxxxxxxxxxxx |xxxxxxxxxxxxx |            0 |            0 |            0 |xxxxxxxxxxxxx |xxxxxxxxxxxxx |xxxxxxxxxxxxx |xxxxxxxxxxxxx |            0 |            0 |            0 |xxxxxxxxxxxxx |xxxxxxxxxxxxx |xxxxxxxxxxxxx |xxxxxxxxxxxxx |            0 |            0 |            0 |xxxxxxxxxxxxx |xxxxxxxxxxxxx |xxxxxxxxxxxxx |xxxxxxxxxxxxx |            0 |            0 |            0 |xxxxxxxxxxxxx |xxxxxxxxxxxxx |xxxxxxxxxxxxx |xxxxxxxxxxxxx |            0 |            0 |            0 |xxxxxxxxxxxxx |xxxxxxxxxxxxx |xxxxxxxxxxxxx |xxxxxxxxxxxxx |            0 |            0 |            0 |
bpred_bimod.bpred_addr_rate                 0.6957 |       0.6957 |       0.6957 |xxxxxxxxxxxxx |xxxxxxxxxxxxx |xxxxxxxxxxxxx |xxxxxxxxxxxxx |       0.6901 |       0.6901 |       0.6901 |xxxxxxxxxxxxx |xxxxxxxxxxxxx |xxxxxxxxxxxxx |xxxxxxxxxxxxx |       0.6976 |       0.6975 |       0.6975 |xxxxxxxxxxxxx |xxxxxxxxxxxxx |xxxxxxxxxxxxx |xxxxxxxxxxxxx |       0.6967 |       0.6967 |       0.6967 |xxxxxxxxxxxxx |xxxxxxxxxxxxx |xxxxxxxxxxxxx |xxxxxxxxxxxxx |       0.7009 |       0.7009 |       0.7009 |xxxxxxxxxxxxx |xxxxxxxxxxxxx |xxxxxxxxxxxxx |xxxxxxxxxxxxx |       0.7000 |       0.7000 |       0.7000 |xxxxxxxxxxxxx |xxxxxxxxxxxxx |xxxxxxxxxxxxx |xxxxxxxxxxxxx |       0.7009 |       0.7009 |       0.7009 |xxxxxxxxxxxxx |xxxxxxxxxxxxx |xxxxxxxxxxxxx |xxxxxxxxxxxxx |       0.6961 |       0.6961 |       0.6961 |xxxxxxxxxxxxx |xxxxxxxxxxxxx |xxxxxxxxxxxxx |xxxxxxxxxxxxx |       0.7017 |       0.7017 |       0.7017 |xxxxxxxxxxxxx |xxxxxxxxxxxxx |xxxxxxxxxxxxx |xxxxxxxxxxxxx |       0.6976 |       0.6976 |       0.6976 |xxxxxxxxxxxxx |xxxxxxxxxxxxx |xxxxxxxxxxxxx |xxxxxxxxxxxxx |       0.7006 |       0.7006 |       0.7006 |
bpred_bimod.bpred_dir_rate                  0.6973 |       0.6972 |       0.6972 |xxxxxxxxxxxxx |xxxxxxxxxxxxx |xxxxxxxxxxxxx |xxxxxxxxxxxxx |       0.6908 |       0.6908 |       0.6908 |xxxxxxxxxxxxx |xxxxxxxxxxxxx |xxxxxxxxxxxxx |xxxxxxxxxxxxx |       0.6979 |       0.6979 |       0.6979 |xxxxxxxxxxxxx |xxxxxxxxxxxxx |xxxxxxxxxxxxx |xxxxxxxxxxxxx |       0.6969 |       0.6969 |       0.6969 |xxxxxxxxxxxxx |xxxxxxxxxxxxx |xxxxxxxxxxxxx |xxxxxxxxxxxxx |       0.7010 |       0.7010 |       0.7010 |xxxxxxxxxxxxx |xxxxxxxxxxxxx |xxxxxxxxxxxxx |xxxxxxxxxxxxx |       0.7000 |       0.7000 |       0.7000 |xxxxxxxxxxxxx |xxxxxxxxxxxxx |xxxxxxxxxxxxx |xxxxxxxxxxxxx |       0.7009 |       0.7009 |       0.7009 |xxxxxxxxxxxxx |xxxxxxxxxxxxx |xxxxxxxxxxxxx |xxxxxxxxxxxxx |       0.6961 |       0.6961 |       0.6961 |xxxxxxxxxxxxx |xxxxxxxxxxxxx |xxxxxxxxxxxxx |xxxxxxxxxxxxx |       0.7017 |       0.7017 |       0.7017 |xxxxxxxxxxxxx |xxxxxxxxxxxxx |xxxxxxxxxxxxx |xxxxxxxxxxxxx |       0.6976 |       0.6976 |       0.6976 |xxxxxxxxxxxxx |xxxxxxxxxxxxx |xxxxxxxxxxxxx |xxxxxxxxxxxxx |       0.7006 |       0.7006 |       0.7006 |
bpred_bimod.bpred_jr_rate                   1.0000 |       1.0000 |       1.0000 |xxxxxxxxxxxxx |xxxxxxxxxxxxx |xxxxxxxxxxxxx |xxxxxxxxxxxxx |       1.0000 |       1.0000 |       1.0000 |xxxxxxxxxxxxx |xxxxxxxxxxxxx |xxxxxxxxxxxxx |xxxxxxxxxxxxx |       1.0000 |       1.0000 |       1.0000 |xxxxxxxxxxxxx |xxxxxxxxxxxxx |xxxxxxxxxxxxx |xxxxxxxxxxxxx |       1.0000 |       1.0000 |       1.0000 |xxxxxxxxxxxxx |xxxxxxxxxxxxx |xxxxxxxxxxxxx |xxxxxxxxxxxxx |       1.0000 |       1.0000 |       1.0000 |xxxxxxxxxxxxx |xxxxxxxxxxxxx |xxxxxxxxxxxxx |xxxxxxxxxxxxx |       1.0000 |       1.0000 |       1.0000 |xxxxxxxxxxxxx |xxxxxxxxxxxxx |xxxxxxxxxxxxx |xxxxxxxxxxxxx |       1.0000 |       1.0000 |       1.0000 |xxxxxxxxxxxxx |xxxxxxxxxxxxx |xxxxxxxxxxxxx |xxxxxxxxxxxxx |       1.0000 |       1.0000 |       1.0000 |xxxxxxxxxxxxx |xxxxxxxxxxxxx |xxxxxxxxxxxxx |xxxxxxxxxxxxx |       1.0000 |       1.0000 |       1.0000 |xxxxxxxxxxxxx |xxxxxxxxxxxxx |xxxxxxxxxxxxx |xxxxxxxxxxxxx |       1.0000 |       1.0000 |       1.0000 |xxxxxxxxxxxxx |xxxxxxxxxxxxx |xxxxxxxxxxxxx |xxxxxxxxxxxxx |       1.0000 |       1.0000 |       1.0000 |
bpred_bimod.bpred_jr_non_ras_rate.PP       <error: |      <error: |      <error: |xxxxxxxxxxxxx |xxxxxxxxxxxxx |xxxxxxxxxxxxx |xxxxxxxxxxxxx |      <error: |      <error: |      <error: |xxxxxxxxxxxxx |xxxxxxxxxxxxx |xxxxxxxxxxxxx |xxxxxxxxxxxxx |      <error: |      <error: |      <error: |xxxxxxxxxxxxx |xxxxxxxxxxxxx |xxxxxxxxxxxxx |xxxxxxxxxxxxx |      <error: |      <error: |      <error: |xxxxxxxxxxxxx |xxxxxxxxxxxxx |xxxxxxxxxxxxx |xxxxxxxxxxxxx |      <error: |      <error: |      <error: |xxxxxxxxxxxxx |xxxxxxxxxxxxx |xxxxxxxxxxxxx |xxxxxxxxxxxxx |      <error: |      <error: |      <error: |xxxxxxxxxxxxx |xxxxxxxxxxxxx |xxxxxxxxxxxxx |xxxxxxxxxxxxx |      <error: |      <error: |      <error: |xxxxxxxxxxxxx |xxxxxxxxxxxxx |xxxxxxxxxxxxx |xxxxxxxxxxxxx |      <error: |      <error: |      <error: |xxxxxxxxxxxxx |xxxxxxxxxxxxx |xxxxxxxxxxxxx |xxxxxxxxxxxxx |      <error: |      <error: |      <error: |xxxxxxxxxxxxx |xxxxxxxxxxxxx |xxxxxxxxxxxxx |xxxxxxxxxxxxx |      <error: |      <error: |      <error: |xxxxxxxxxxxxx |xxxxxxxxxxxxx |xxxxxxxxxxxxx |xxxxxxxxxxxxx |      <error: |      <error: |      <error: |
bpred_bimod.retstack_pushes                     66 |           66 |           66 |xxxxxxxxxxxxx |xxxxxxxxxxxxx |xxxxxxxxxxxxx |xxxxxxxxxxxxx |           66 |           66 |           66 |xxxxxxxxxxxxx |xxxxxxxxxxxxx |xxxxxxxxxxxxx |xxxxxxxxxxxxx |           66 |           66 |           66 |xxxxxxxxxxxxx |xxxxxxxxxxxxx |xxxxxxxxxxxxx |xxxxxxxxxxxxx |           66 |           66 |           66 |xxxxxxxxxxxxx |xxxxxxxxxxxxx |xxxxxxxxxxxxx |xxxxxxxxxxxxx |           66 |           66 |           66 |xxxxxxxxxxxxx |xxxxxxxxxxxxx |xxxxxxxxxxxxx |xxxxxxxxxxxxx |           66 |           66 |           66 |xxxxxxxxxxxxx |xxxxxxxxxxxxx |xxxxxxxxxxxxx |xxxxxxxxxxxxx |           66 |           66 |           66 |xxxxxxxxxxxxx |xxxxxxxxxxxxx |xxxxxxxxxxxxx |xxxxxxxxxxxxx |           66 |           66 |           66 |xxxxxxxxxxxxx |xxxxxxxxxxxxx |xxxxxxxxxxxxx |xxxxxxxxxxxxx |           66 |           66 |           66 |xxxxxxxxxxxxx |xxxxxxxxxxxxx |xxxxxxxxxxxxx |xxxxxxxxxxxxx |           66 |           66 |           66 |xxxxxxxxxxxxx |xxxxxxxxxxxxx |xxxxxxxxxxxxx |xxxxxxxxxxxxx |           66 |           66 |           66 |
bpred_bimod.retstack_pops                       64 |           64 |           64 |xxxxxxxxxxxxx |xxxxxxxxxxxxx |xxxxxxxxxxxxx |xxxxxxxxxxxxx |           64 |           64 |           64 |xxxxxxxxxxxxx |xxxxxxxxxxxxx |xxxxxxxxxxxxx |xxxxxxxxxxxxx |           64 |           64 |           64 |xxxxxxxxxxxxx |xxxxxxxxxxxxx |xxxxxxxxxxxxx |xxxxxxxxxxxxx |           64 |           64 |           64 |xxxxxxxxxxxxx |xxxxxxxxxxxxx |xxxxxxxxxxxxx |xxxxxxxxxxxxx |           64 |           64 |           64 |xxxxxxxxxxxxx |xxxxxxxxxxxxx |xxxxxxxxxxxxx |xxxxxxxxxxxxx |           64 |           64 |           64 |xxxxxxxxxxxxx |xxxxxxxxxxxxx |xxxxxxxxxxxxx |xxxxxxxxxxxxx |           64 |           64 |           64 |xxxxxxxxxxxxx |xxxxxxxxxxxxx |xxxxxxxxxxxxx |xxxxxxxxxxxxx |           64 |           64 |           64 |xxxxxxxxxxxxx |xxxxxxxxxxxxx |xxxxxxxxxxxxx |xxxxxxxxxxxxx |           64 |           64 |           64 |xxxxxxxxxxxxx |xxxxxxxxxxxxx |xxxxxxxxxxxxx |xxxxxxxxxxxxx |           64 |           64 |           64 |xxxxxxxxxxxxx |xxxxxxxxxxxxx |xxxxxxxxxxxxx |xxxxxxxxxxxxx |           64 |           64 |           64 |
bpred_bimod.used_ras.PP                         64 |           64 |           64 |xxxxxxxxxxxxx |xxxxxxxxxxxxx |xxxxxxxxxxxxx |xxxxxxxxxxxxx |           64 |           64 |           64 |xxxxxxxxxxxxx |xxxxxxxxxxxxx |xxxxxxxxxxxxx |xxxxxxxxxxxxx |           64 |           64 |           64 |xxxxxxxxxxxxx |xxxxxxxxxxxxx |xxxxxxxxxxxxx |xxxxxxxxxxxxx |           64 |           64 |           64 |xxxxxxxxxxxxx |xxxxxxxxxxxxx |xxxxxxxxxxxxx |xxxxxxxxxxxxx |           64 |           64 |           64 |xxxxxxxxxxxxx |xxxxxxxxxxxxx |xxxxxxxxxxxxx |xxxxxxxxxxxxx |           64 |           64 |           64 |xxxxxxxxxxxxx |xxxxxxxxxxxxx |xxxxxxxxxxxxx |xxxxxxxxxxxxx |           64 |           64 |           64 |xxxxxxxxxxxxx |xxxxxxxxxxxxx |xxxxxxxxxxxxx |xxxxxxxxxxxxx |           64 |           64 |           64 |xxxxxxxxxxxxx |xxxxxxxxxxxxx |xxxxxxxxxxxxx |xxxxxxxxxxxxx |           64 |           64 |           64 |xxxxxxxxxxxxx |xxxxxxxxxxxxx |xxxxxxxxxxxxx |xxxxxxxxxxxxx |           64 |           64 |           64 |xxxxxxxxxxxxx |xxxxxxxxxxxxx |xxxxxxxxxxxxx |xxxxxxxxxxxxx |           64 |           64 |           64 |
bpred_bimod.ras_hits.PP                         64 |           64 |           64 |xxxxxxxxxxxxx |xxxxxxxxxxxxx |xxxxxxxxxxxxx |xxxxxxxxxxxxx |           64 |           64 |           64 |xxxxxxxxxxxxx |xxxxxxxxxxxxx |xxxxxxxxxxxxx |xxxxxxxxxxxxx |           64 |           64 |           64 |xxxxxxxxxxxxx |xxxxxxxxxxxxx |xxxxxxxxxxxxx |xxxxxxxxxxxxx |           64 |           64 |           64 |xxxxxxxxxxxxx |xxxxxxxxxxxxx |xxxxxxxxxxxxx |xxxxxxxxxxxxx |           64 |           64 |           64 |xxxxxxxxxxxxx |xxxxxxxxxxxxx |xxxxxxxxxxxxx |xxxxxxxxxxxxx |           64 |           64 |           64 |xxxxxxxxxxxxx |xxxxxxxxxxxxx |xxxxxxxxxxxxx |xxxxxxxxxxxxx |           64 |           64 |           64 |xxxxxxxxxxxxx |xxxxxxxxxxxxx |xxxxxxxxxxxxx |xxxxxxxxxxxxx |           64 |           64 |           64 |xxxxxxxxxxxxx |xxxxxxxxxxxxx |xxxxxxxxxxxxx |xxxxxxxxxxxxx |           64 |           64 |           64 |xxxxxxxxxxxxx |xxxxxxxxxxxxx |xxxxxxxxxxxxx |xxxxxxxxxxxxx |           64 |           64 |           64 |xxxxxxxxxxxxx |xxxxxxxxxxxxx |xxxxxxxxxxxxx |xxxxxxxxxxxxx |           64 |           64 |           64 |
bpred_bimod.ras_rate.PP                     1.0000 |       1.0000 |       1.0000 |xxxxxxxxxxxxx |xxxxxxxxxxxxx |xxxxxxxxxxxxx |xxxxxxxxxxxxx |       1.0000 |       1.0000 |       1.0000 |xxxxxxxxxxxxx |xxxxxxxxxxxxx |xxxxxxxxxxxxx |xxxxxxxxxxxxx |       1.0000 |       1.0000 |       1.0000 |xxxxxxxxxxxxx |xxxxxxxxxxxxx |xxxxxxxxxxxxx |xxxxxxxxxxxxx |       1.0000 |       1.0000 |       1.0000 |xxxxxxxxxxxxx |xxxxxxxxxxxxx |xxxxxxxxxxxxx |xxxxxxxxxxxxx |       1.0000 |       1.0000 |       1.0000 |xxxxxxxxxxxxx |xxxxxxxxxxxxx |xxxxxxxxxxxxx |xxxxxxxxxxxxx |       1.0000 |       1.0000 |       1.0000 |xxxxxxxxxxxxx |xxxxxxxxxxxxx |xxxxxxxxxxxxx |xxxxxxxxxxxxx |       1.0000 |       1.0000 |       1.0000 |xxxxxxxxxxxxx |xxxxxxxxxxxxx |xxxxxxxxxxxxx |xxxxxxxxxxxxx |       1.0000 |       1.0000 |       1.0000 |xxxxxxxxxxxxx |xxxxxxxxxxxxx |xxxxxxxxxxxxx |xxxxxxxxxxxxx |       1.0000 |       1.0000 |       1.0000 |xxxxxxxxxxxxx |xxxxxxxxxxxxx |xxxxxxxxxxxxx |xxxxxxxxxxxxx |       1.0000 |       1.0000 |       1.0000 |xxxxxxxxxxxxx |xxxxxxxxxxxxx |xxxxxxxxxxxxx |xxxxxxxxxxxxx |       1.0000 |       1.0000 |       1.0000 |
bpred_2lev.lookups                   xxxxxxxxxxxxx |xxxxxxxxxxxxx |xxxxxxxxxxxxx |        77318 |        77318 |        77318 |        77318 |xxxxxxxxxxxxx |xxxxxxxxxxxxx |xxxxxxxxxxxxx |       165270 |       165270 |       165270 |       165270 |xxxxxxxxxxxxx |xxxxxxxxxxxxx |xxxxxxxxxxxxx |       356708 |       356708 |       356708 |       356708 |xxxxxxxxxxxxx |xxxxxxxxxxxxx |xxxxxxxxxxxxx |       764627 |       764627 |       764627 |       764627 |xxxxxxxxxxxxx |xxxxxxxxxxxxx |xxxxxxxxxxxxx |      1638332 |      1638332 |      1638332 |      1638332 |xxxxxxxxxxxxx |xxxxxxxxxxxxx |xxxxxxxxxxxxx |      3468053 |      3468053 |      3468053 |      3468053 |xxxxxxxxxxxxx |xxxxxxxxxxxxx |xxxxxxxxxxxxx |      7342221 |      7342221 |      7342221 |      7342221 |xxxxxxxxxxxxx |xxxxxxxxxxxxx |xxxxxxxxxxxxx |     15424703 |     15424703 |     15424703 |     15424703 |xxxxxxxxxxxxx |xxxxxxxxxxxxx |xxxxxxxxxxxxx |     32697998 |     32697998 |     32697998 |     32697998 |xxxxxxxxxxxxx |xxxxxxxxxxxxx |xxxxxxxxxxxxx |     68274524 |     68274524 |     68274524 |     68274524 |xxxxxxxxxxxxx |xxxxxxxxxxxxx |xxxxxxxxxxxxx |    143654137 |    143654137 |    143654137 |    143654137 |
[...]
bpred_2lev.retstack_pushes           xxxxxxxxxxxxx |xxxxxxxxxxxxx |xxxxxxxxxxxxx |           66 |           66 |           66 |           66 |xxxxxxxxxxxxx |xxxxxxxxxxxxx |xxxxxxxxxxxxx |           66 |           66 |           66 |           66 |xxxxxxxxxxxxx |xxxxxxxxxxxxx |xxxxxxxxxxxxx |           66 |           66 |           66 |           66 |xxxxxxxxxxxxx |xxxxxxxxxxxxx |xxxxxxxxxxxxx |           66 |           66 |           66 |           66 |xxxxxxxxxxxxx |xxxxxxxxxxxxx |xxxxxxxxxxxxx |           66 |           66 |           66 |           66 |xxxxxxxxxxxxx |xxxxxxxxxxxxx |xxxxxxxxxxxxx |           66 |           66 |           66 |           66 |xxxxxxxxxxxxx |xxxxxxxxxxxxx |xxxxxxxxxxxxx |           66 |           66 |           66 |           66 |xxxxxxxxxxxxx |xxxxxxxxxxxxx |xxxxxxxxxxxxx |           66 |           66 |           66 |           66 |xxxxxxxxxxxxx |xxxxxxxxxxxxx |xxxxxxxxxxxxx |           66 |           66 |           66 |           66 |xxxxxxxxxxxxx |xxxxxxxxxxxxx |xxxxxxxxxxxxx |           66 |           66 |           66 |           66 |xxxxxxxxxxxxx |xxxxxxxxxxxxx |xxxxxxxxxxxxx |           66 |           66 |           66 |           66 |
bpred_2lev.retstack_pops             xxxxxxxxxxxxx |xxxxxxxxxxxxx |xxxxxxxxxxxxx |           64 |           64 |           64 |           64 |xxxxxxxxxxxxx |xxxxxxxxxxxxx |xxxxxxxxxxxxx |           64 |           64 |           64 |           64 |xxxxxxxxxxxxx |xxxxxxxxxxxxx |xxxxxxxxxxxxx |           64 |           64 |           64 |           64 |xxxxxxxxxxxxx |xxxxxxxxxxxxx |xxxxxxxxxxxxx |           64 |           64 |           64 |           64 |xxxxxxxxxxxxx |xxxxxxxxxxxxx |xxxxxxxxxxxxx |           64 |           64 |           64 |           64 |xxxxxxxxxxxxx |xxxxxxxxxxxxx |xxxxxxxxxxxxx |           64 |           64 |           64 |           64 |xxxxxxxxxxxxx |xxxxxxxxxxxxx |xxxxxxxxxxxxx |           64 |           64 |           64 |           64 |xxxxxxxxxxxxx |xxxxxxxxxxxxx |xxxxxxxxxxxxx |           64 |           64 |           64 |           64 |xxxxxxxxxxxxx |xxxxxxxxxxxxx |xxxxxxxxxxxxx |           64 |           64 |           64 |           64 |xxxxxxxxxxxxx |xxxxxxxxxxxxx |xxxxxxxxxxxxx |           64 |           64 |           64 |           64 |xxxxxxxxxxxxx |xxxxxxxxxxxxx |xxxxxxxxxxxxx |           64 |           64 |           64 |           64 |
bpred_2lev.used_ras.PP               xxxxxxxxxxxxx |xxxxxxxxxxxxx |xxxxxxxxxxxxx |           64 |           64 |           64 |           64 |xxxxxxxxxxxxx |xxxxxxxxxxxxx |xxxxxxxxxxxxx |           64 |           64 |           64 |           64 |xxxxxxxxxxxxx |xxxxxxxxxxxxx |xxxxxxxxxxxxx |           64 |           64 |           64 |           64 |xxxxxxxxxxxxx |xxxxxxxxxxxxx |xxxxxxxxxxxxx |           64 |           64 |           64 |           64 |xxxxxxxxxxxxx |xxxxxxxxxxxxx |xxxxxxxxxxxxx |           64 |           64 |           64 |           64 |xxxxxxxxxxxxx |xxxxxxxxxxxxx |xxxxxxxxxxxxx |           64 |           64 |           64 |           64 |xxxxxxxxxxxxx |xxxxxxxxxxxxx |xxxxxxxxxxxxx |           64 |           64 |           64 |           64 |xxxxxxxxxxxxx |xxxxxxxxxxxxx |xxxxxxxxxxxxx |           64 |           64 |           64 |           64 |xxxxxxxxxxxxx |xxxxxxxxxxxxx |xxxxxxxxxxxxx |           64 |           64 |           64 |           64 |xxxxxxxxxxxxx |xxxxxxxxxxxxx |xxxxxxxxxxxxx |           64 |           64 |           64 |           64 |xxxxxxxxxxxxx |xxxxxxxxxxxxx |xxxxxxxxxxxxx |           64 |           64 |           64 |           64 |
bpred_2lev.ras_hits.PP               xxxxxxxxxxxxx |xxxxxxxxxxxxx |xxxxxxxxxxxxx |           64 |           64 |           64 |           64 |xxxxxxxxxxxxx |xxxxxxxxxxxxx |xxxxxxxxxxxxx |           64 |           64 |           64 |           64 |xxxxxxxxxxxxx |xxxxxxxxxxxxx |xxxxxxxxxxxxx |           64 |           64 |           64 |           64 |xxxxxxxxxxxxx |xxxxxxxxxxxxx |xxxxxxxxxxxxx |           64 |           64 |           64 |           64 |xxxxxxxxxxxxx |xxxxxxxxxxxxx |xxxxxxxxxxxxx |           64 |           64 |           64 |           64 |xxxxxxxxxxxxx |xxxxxxxxxxxxx |xxxxxxxxxxxxx |           64 |           64 |           64 |           64 |xxxxxxxxxxxxx |xxxxxxxxxxxxx |xxxxxxxxxxxxx |           64 |           64 |           64 |           64 |xxxxxxxxxxxxx |xxxxxxxxxxxxx |xxxxxxxxxxxxx |           64 |           64 |           64 |           64 |xxxxxxxxxxxxx |xxxxxxxxxxxxx |xxxxxxxxxxxxx |           64 |           64 |           64 |           64 |xxxxxxxxxxxxx |xxxxxxxxxxxxx |xxxxxxxxxxxxx |           64 |           64 |           64 |           64 |xxxxxxxxxxxxx |xxxxxxxxxxxxx |xxxxxxxxxxxxx |           64 |           64 |           64 |           64 |
bpred_2lev.ras_rate.PP               xxxxxxxxxxxxx |xxxxxxxxxxxxx |xxxxxxxxxxxxx |       1.0000 |       1.0000 |       1.0000 |       1.0000 |xxxxxxxxxxxxx |xxxxxxxxxxxxx |xxxxxxxxxxxxx |       1.0000 |       1.0000 |       1.0000 |       1.0000 |xxxxxxxxxxxxx |xxxxxxxxxxxxx |xxxxxxxxxxxxx |       1.0000 |       1.0000 |       1.0000 |       1.0000 |xxxxxxxxxxxxx |xxxxxxxxxxxxx |xxxxxxxxxxxxx |       1.0000 |       1.0000 |       1.0000 |       1.0000 |xxxxxxxxxxxxx |xxxxxxxxxxxxx |xxxxxxxxxxxxx |       1.0000 |       1.0000 |       1.0000 |       1.0000 |xxxxxxxxxxxxx |xxxxxxxxxxxxx |xxxxxxxxxxxxx |       1.0000 |       1.0000 |       1.0000 |       1.0000 |xxxxxxxxxxxxx |xxxxxxxxxxxxx |xxxxxxxxxxxxx |       1.0000 |       1.0000 |       1.0000 |       1.0000 |xxxxxxxxxxxxx |xxxxxxxxxxxxx |xxxxxxxxxxxxx |       1.0000 |       1.0000 |       1.0000 |       1.0000 |xxxxxxxxxxxxx |xxxxxxxxxxxxx |xxxxxxxxxxxxx |       1.0000 |       1.0000 |       1.0000 |       1.0000 |xxxxxxxxxxxxx |xxxxxxxxxxxxx |xxxxxxxxxxxxx |       1.0000 |       1.0000 |       1.0000 |       1.0000 |xxxxxxxxxxxxx |xxxxxxxxxxxxx |xxxxxxxxxxxxx |       1.0000 |       1.0000 |       1.0000 |       1.0000 |

Command list: 
	sslittle-na-sstrix-gcc -Wall -O3 -funroll-loops -finline-functions  -DRANDOM_SIZE=4096 -DOFFSET=4 -DSORT=base_quicksort9 sorts/base_quicksort91393421409.c simpleMain.c -o base_quicksort91140238446
	sim-cache -cache:dl1 dl1:256:32:1:l -cache:dl2 dl2:131072:32:1:l -cache:il1 il1:256:32:1:l -cache:il2 dl2 base_quicksort91140238446
	sim-cache -cache:dl1 dl1:256:32:1:l -cache:dl2 dl2:65536:32:1:l -cache:il1 il1:256:32:1:l -cache:il2 dl2 base_quicksort91140238446
	sim-cache -cache:dl1 dl1:1:32:256:l -cache:dl2 dl2:1:32:131072:l -cache:il1 il1:1:32:256:l -cache:il2 dl2 base_quicksort91140238446
	sim-cache -cache:dl1 dl1:1:32:256:l -cache:dl2 dl2:1:32:65536:l -cache:il1 il1:1:32:256:l -cache:il2 dl2 base_quicksort91140238446
	sim-bpred -bpred bimod -bpred:bimod 512 base_quicksort91140238446
	sim-bpred -bpred bimod -bpred:bimod 1024 base_quicksort91140238446
	sim-bpred -bpred bimod -bpred:bimod 2048 base_quicksort91140238446
	sim-bpred -bpred 2lev -bpred:2lev 1 512 10 1 base_quicksort91140238446
	sim-bpred -bpred 2lev -bpred:2lev 1 1024 10 1 base_quicksort91140238446
	sim-bpred -bpred 2lev -bpred:2lev 1 2048 10 1 base_quicksort91140238446
	sim-bpred -bpred 2lev -bpred:2lev 1 4096 10 1 base_quicksort91140238446
	sslittle-na-sstrix-gcc -Wall -O3 -funroll-loops -finline-functions  -DRANDOM_SIZE=8192 -DOFFSET=4 -DSORT=base_quicksort9 sorts/base_quicksort91393421409.c simpleMain.c -o base_quicksort91140238446
	sim-cache -cache:dl1 dl1:256:32:1:l -cache:dl2 dl2:131072:32:1:l -cache:il1 il1:256:32:1:l -cache:il2 dl2 base_quicksort91140238446
	sim-cache -cache:dl1 dl1:256:32:1:l -cache:dl2 dl2:65536:32:1:l -cache:il1 il1:256:32:1:l -cache:il2 dl2 base_quicksort91140238446
	sim-cache -cache:dl1 dl1:1:32:256:l -cache:dl2 dl2:1:32:131072:l -cache:il1 il1:1:32:256:l -cache:il2 dl2 base_quicksort91140238446
	sim-cache -cache:dl1 dl1:1:32:256:l -cache:dl2 dl2:1:32:65536:l -cache:il1 il1:1:32:256:l -cache:il2 dl2 base_quicksort91140238446
	sim-bpred -bpred bimod -bpred:bimod 512 base_quicksort91140238446
	sim-bpred -bpred bimod -bpred:bimod 1024 base_quicksort91140238446
	sim-bpred -bpred bimod -bpred:bimod 2048 base_quicksort91140238446
	sim-bpred -bpred 2lev -bpred:2lev 1 512 10 1 base_quicksort91140238446
	sim-bpred -bpred 2lev -bpred:2lev 1 1024 10 1 base_quicksort91140238446
	sim-bpred -bpred 2lev -bpred:2lev 1 2048 10 1 base_quicksort91140238446
	sim-bpred -bpred 2lev -bpred:2lev 1 4096 10 1 base_quicksort91140238446
	sslittle-na-sstrix-gcc -Wall -O3 -funroll-loops -finline-functions  -DRANDOM_SIZE=16384 -DOFFSET=4 -DSORT=base_quicksort9 sorts/base_quicksort91393421409.c simpleMain.c -o base_quicksort91140238446
	sim-cache -cache:dl1 dl1:256:32:1:l -cache:dl2 dl2:131072:32:1:l -cache:il1 il1:256:32:1:l -cache:il2 dl2 base_quicksort91140238446
	sim-cache -cache:dl1 dl1:256:32:1:l -cache:dl2 dl2:65536:32:1:l -cache:il1 il1:256:32:1:l -cache:il2 dl2 base_quicksort91140238446
	sim-cache -cache:dl1 dl1:1:32:256:l -cache:dl2 dl2:1:32:131072:l -cache:il1 il1:1:32:256:l -cache:il2 dl2 base_quicksort91140238446
	sim-cache -cache:dl1 dl1:1:32:256:l -cache:dl2 dl2:1:32:65536:l -cache:il1 il1:1:32:256:l -cache:il2 dl2 base_quicksort91140238446
	sim-bpred -bpred bimod -bpred:bimod 512 base_quicksort91140238446
	sim-bpred -bpred bimod -bpred:bimod 1024 base_quicksort91140238446
	sim-bpred -bpred bimod -bpred:bimod 2048 base_quicksort91140238446
	sim-bpred -bpred 2lev -bpred:2lev 1 512 10 1 base_quicksort91140238446
	sim-bpred -bpred 2lev -bpred:2lev 1 1024 10 1 base_quicksort91140238446
	sim-bpred -bpred 2lev -bpred:2lev 1 2048 10 1 base_quicksort91140238446
	sim-bpred -bpred 2lev -bpred:2lev 1 4096 10 1 base_quicksort91140238446
	sslittle-na-sstrix-gcc -Wall -O3 -funroll-loops -finline-functions  -DRANDOM_SIZE=32768 -DOFFSET=4 -DSORT=base_quicksort9 sorts/base_quicksort91393421409.c simpleMain.c -o base_quicksort91140238446
	sim-cache -cache:dl1 dl1:256:32:1:l -cache:dl2 dl2:131072:32:1:l -cache:il1 il1:256:32:1:l -cache:il2 dl2 base_quicksort91140238446
	sim-cache -cache:dl1 dl1:256:32:1:l -cache:dl2 dl2:65536:32:1:l -cache:il1 il1:256:32:1:l -cache:il2 dl2 base_quicksort91140238446
	sim-cache -cache:dl1 dl1:1:32:256:l -cache:dl2 dl2:1:32:131072:l -cache:il1 il1:1:32:256:l -cache:il2 dl2 base_quicksort91140238446
	sim-cache -cache:dl1 dl1:1:32:256:l -cache:dl2 dl2:1:32:65536:l -cache:il1 il1:1:32:256:l -cache:il2 dl2 base_quicksort91140238446
	sim-bpred -bpred bimod -bpred:bimod 512 base_quicksort91140238446
	sim-bpred -bpred bimod -bpred:bimod 1024 base_quicksort91140238446
	sim-bpred -bpred bimod -bpred:bimod 2048 base_quicksort91140238446
	sim-bpred -bpred 2lev -bpred:2lev 1 512 10 1 base_quicksort91140238446
	sim-bpred -bpred 2lev -bpred:2lev 1 1024 10 1 base_quicksort91140238446
	sim-bpred -bpred 2lev -bpred:2lev 1 2048 10 1 base_quicksort91140238446
	sim-bpred -bpred 2lev -bpred:2lev 1 4096 10 1 base_quicksort91140238446
	sslittle-na-sstrix-gcc -Wall -O3 -funroll-loops -finline-functions  -DRANDOM_SIZE=65536 -DOFFSET=4 -DSORT=base_quicksort9 sorts/base_quicksort91393421409.c simpleMain.c -o base_quicksort91140238446
	sim-cache -cache:dl1 dl1:256:32:1:l -cache:dl2 dl2:131072:32:1:l -cache:il1 il1:256:32:1:l -cache:il2 dl2 base_quicksort91140238446
	sim-cache -cache:dl1 dl1:256:32:1:l -cache:dl2 dl2:65536:32:1:l -cache:il1 il1:256:32:1:l -cache:il2 dl2 base_quicksort91140238446
	sim-cache -cache:dl1 dl1:1:32:256:l -cache:dl2 dl2:1:32:131072:l -cache:il1 il1:1:32:256:l -cache:il2 dl2 base_quicksort91140238446
	sim-cache -cache:dl1 dl1:1:32:256:l -cache:dl2 dl2:1:32:65536:l -cache:il1 il1:1:32:256:l -cache:il2 dl2 base_quicksort91140238446
	sim-bpred -bpred bimod -bpred:bimod 512 base_quicksort91140238446
	sim-bpred -bpred bimod -bpred:bimod 1024 base_quicksort91140238446
	sim-bpred -bpred bimod -bpred:bimod 2048 base_quicksort91140238446
	sim-bpred -bpred 2lev -bpred:2lev 1 512 10 1 base_quicksort91140238446
	sim-bpred -bpred 2lev -bpred:2lev 1 1024 10 1 base_quicksort91140238446
	sim-bpred -bpred 2lev -bpred:2lev 1 2048 10 1 base_quicksort91140238446
	sim-bpred -bpred 2lev -bpred:2lev 1 4096 10 1 base_quicksort91140238446
	sslittle-na-sstrix-gcc -Wall -O3 -funroll-loops -finline-functions  -DRANDOM_SIZE=131072 -DOFFSET=4 -DSORT=base_quicksort9 sorts/base_quicksort91393421409.c simpleMain.c -o base_quicksort91140238446
	sim-cache -cache:dl1 dl1:256:32:1:l -cache:dl2 dl2:131072:32:1:l -cache:il1 il1:256:32:1:l -cache:il2 dl2 base_quicksort91140238446
	sim-cache -cache:dl1 dl1:256:32:1:l -cache:dl2 dl2:65536:32:1:l -cache:il1 il1:256:32:1:l -cache:il2 dl2 base_quicksort91140238446
	sim-cache -cache:dl1 dl1:1:32:256:l -cache:dl2 dl2:1:32:131072:l -cache:il1 il1:1:32:256:l -cache:il2 dl2 base_quicksort91140238446
	sim-cache -cache:dl1 dl1:1:32:256:l -cache:dl2 dl2:1:32:65536:l -cache:il1 il1:1:32:256:l -cache:il2 dl2 base_quicksort91140238446
	sim-bpred -bpred bimod -bpred:bimod 512 base_quicksort91140238446
	sim-bpred -bpred bimod -bpred:bimod 1024 base_quicksort91140238446
	sim-bpred -bpred bimod -bpred:bimod 2048 base_quicksort91140238446
	sim-bpred -bpred 2lev -bpred:2lev 1 512 10 1 base_quicksort91140238446
	sim-bpred -bpred 2lev -bpred:2lev 1 1024 10 1 base_quicksort91140238446
	sim-bpred -bpred 2lev -bpred:2lev 1 2048 10 1 base_quicksort91140238446
	sim-bpred -bpred 2lev -bpred:2lev 1 4096 10 1 base_quicksort91140238446
	sslittle-na-sstrix-gcc -Wall -O3 -funroll-loops -finline-functions  -DRANDOM_SIZE=262144 -DOFFSET=4 -DSORT=base_quicksort9 sorts/base_quicksort91393421409.c simpleMain.c -o base_quicksort91140238446
	sim-cache -cache:dl1 dl1:256:32:1:l -cache:dl2 dl2:131072:32:1:l -cache:il1 il1:256:32:1:l -cache:il2 dl2 base_quicksort91140238446
	sim-cache -cache:dl1 dl1:256:32:1:l -cache:dl2 dl2:65536:32:1:l -cache:il1 il1:256:32:1:l -cache:il2 dl2 base_quicksort91140238446
	sim-cache -cache:dl1 dl1:1:32:256:l -cache:dl2 dl2:1:32:131072:l -cache:il1 il1:1:32:256:l -cache:il2 dl2 base_quicksort91140238446
	sim-cache -cache:dl1 dl1:1:32:256:l -cache:dl2 dl2:1:32:65536:l -cache:il1 il1:1:32:256:l -cache:il2 dl2 base_quicksort91140238446
	sim-bpred -bpred bimod -bpred:bimod 512 base_quicksort91140238446
	sim-bpred -bpred bimod -bpred:bimod 1024 base_quicksort91140238446
	sim-bpred -bpred bimod -bpred:bimod 2048 base_quicksort91140238446
	sim-bpred -bpred 2lev -bpred:2lev 1 512 10 1 base_quicksort91140238446
	sim-bpred -bpred 2lev -bpred:2lev 1 1024 10 1 base_quicksort91140238446
	sim-bpred -bpred 2lev -bpred:2lev 1 2048 10 1 base_quicksort91140238446
	sim-bpred -bpred 2lev -bpred:2lev 1 4096 10 1 base_quicksort91140238446
	sslittle-na-sstrix-gcc -Wall -O3 -funroll-loops -finline-functions  -DRANDOM_SIZE=524288 -DOFFSET=4 -DSORT=base_quicksort9 sorts/base_quicksort91393421409.c simpleMain.c -o base_quicksort91140238446
	sim-cache -cache:dl1 dl1:256:32:1:l -cache:dl2 dl2:131072:32:1:l -cache:il1 il1:256:32:1:l -cache:il2 dl2 base_quicksort91140238446
	sim-cache -cache:dl1 dl1:256:32:1:l -cache:dl2 dl2:65536:32:1:l -cache:il1 il1:256:32:1:l -cache:il2 dl2 base_quicksort91140238446
	sim-cache -cache:dl1 dl1:1:32:256:l -cache:dl2 dl2:1:32:131072:l -cache:il1 il1:1:32:256:l -cache:il2 dl2 base_quicksort91140238446
	sim-cache -cache:dl1 dl1:1:32:256:l -cache:dl2 dl2:1:32:65536:l -cache:il1 il1:1:32:256:l -cache:il2 dl2 base_quicksort91140238446
	sim-bpred -bpred bimod -bpred:bimod 512 base_quicksort91140238446
	sim-bpred -bpred bimod -bpred:bimod 1024 base_quicksort91140238446
	sim-bpred -bpred bimod -bpred:bimod 2048 base_quicksort91140238446
	sim-bpred -bpred 2lev -bpred:2lev 1 512 10 1 base_quicksort91140238446
	sim-bpred -bpred 2lev -bpred:2lev 1 1024 10 1 base_quicksort91140238446
	sim-bpred -bpred 2lev -bpred:2lev 1 2048 10 1 base_quicksort91140238446
	sim-bpred -bpred 2lev -bpred:2lev 1 4096 10 1 base_quicksort91140238446
	sslittle-na-sstrix-gcc -Wall -O3 -funroll-loops -finline-functions  -DRANDOM_SIZE=1048576 -DOFFSET=4 -DSORT=base_quicksort9 sorts/base_quicksort91393421409.c simpleMain.c -o base_quicksort91140238446
	sim-cache -cache:dl1 dl1:256:32:1:l -cache:dl2 dl2:131072:32:1:l -cache:il1 il1:256:32:1:l -cache:il2 dl2 base_quicksort91140238446
	sim-cache -cache:dl1 dl1:256:32:1:l -cache:dl2 dl2:65536:32:1:l -cache:il1 il1:256:32:1:l -cache:il2 dl2 base_quicksort91140238446
	sim-cache -cache:dl1 dl1:1:32:256:l -cache:dl2 dl2:1:32:131072:l -cache:il1 il1:1:32:256:l -cache:il2 dl2 base_quicksort91140238446
	sim-cache -cache:dl1 dl1:1:32:256:l -cache:dl2 dl2:1:32:65536:l -cache:il1 il1:1:32:256:l -cache:il2 dl2 base_quicksort91140238446
	sim-bpred -bpred bimod -bpred:bimod 512 base_quicksort91140238446
	sim-bpred -bpred bimod -bpred:bimod 1024 base_quicksort91140238446
	sim-bpred -bpred bimod -bpred:bimod 2048 base_quicksort91140238446
	sim-bpred -bpred 2lev -bpred:2lev 1 512 10 1 base_quicksort91140238446
	sim-bpred -bpred 2lev -bpred:2lev 1 1024 10 1 base_quicksort91140238446
	sim-bpred -bpred 2lev -bpred:2lev 1 2048 10 1 base_quicksort91140238446
	sim-bpred -bpred 2lev -bpred:2lev 1 4096 10 1 base_quicksort91140238446
	sslittle-na-sstrix-gcc -Wall -O3 -funroll-loops -finline-functions  -DRANDOM_SIZE=2097152 -DOFFSET=4 -DSORT=base_quicksort9 sorts/base_quicksort91393421409.c simpleMain.c -o base_quicksort91140238446
	sim-cache -cache:dl1 dl1:256:32:1:l -cache:dl2 dl2:131072:32:1:l -cache:il1 il1:256:32:1:l -cache:il2 dl2 base_quicksort91140238446
	sim-cache -cache:dl1 dl1:256:32:1:l -cache:dl2 dl2:65536:32:1:l -cache:il1 il1:256:32:1:l -cache:il2 dl2 base_quicksort91140238446
	sim-cache -cache:dl1 dl1:1:32:256:l -cache:dl2 dl2:1:32:131072:l -cache:il1 il1:1:32:256:l -cache:il2 dl2 base_quicksort91140238446
	sim-cache -cache:dl1 dl1:1:32:256:l -cache:dl2 dl2:1:32:65536:l -cache:il1 il1:1:32:256:l -cache:il2 dl2 base_quicksort91140238446
	sim-bpred -bpred bimod -bpred:bimod 512 base_quicksort91140238446
	sim-bpred -bpred bimod -bpred:bimod 1024 base_quicksort91140238446
	sim-bpred -bpred bimod -bpred:bimod 2048 base_quicksort91140238446
	sim-bpred -bpred 2lev -bpred:2lev 1 512 10 1 base_quicksort91140238446
	sim-bpred -bpred 2lev -bpred:2lev 1 1024 10 1 base_quicksort91140238446
	sim-bpred -bpred 2lev -bpred:2lev 1 2048 10 1 base_quicksort91140238446
	sim-bpred -bpred 2lev -bpred:2lev 1 4096 10 1 base_quicksort91140238446
	sslittle-na-sstrix-gcc -Wall -O3 -funroll-loops -finline-functions  -DRANDOM_SIZE=4194304 -DOFFSET=4 -DSORT=base_quicksort9 sorts/base_quicksort91393421409.c simpleMain.c -o base_quicksort91140238446
	sim-cache -cache:dl1 dl1:256:32:1:l -cache:dl2 dl2:131072:32:1:l -cache:il1 il1:256:32:1:l -cache:il2 dl2 base_quicksort91140238446
	sim-cache -cache:dl1 dl1:256:32:1:l -cache:dl2 dl2:65536:32:1:l -cache:il1 il1:256:32:1:l -cache:il2 dl2 base_quicksort91140238446
	sim-cache -cache:dl1 dl1:1:32:256:l -cache:dl2 dl2:1:32:131072:l -cache:il1 il1:1:32:256:l -cache:il2 dl2 base_quicksort91140238446
	sim-cache -cache:dl1 dl1:1:32:256:l -cache:dl2 dl2:1:32:65536:l -cache:il1 il1:1:32:256:l -cache:il2 dl2 base_quicksort91140238446
	sim-bpred -bpred bimod -bpred:bimod 512 base_quicksort91140238446
	sim-bpred -bpred bimod -bpred:bimod 1024 base_quicksort91140238446
	sim-bpred -bpred bimod -bpred:bimod 2048 base_quicksort91140238446
	sim-bpred -bpred 2lev -bpred:2lev 1 512 10 1 base_quicksort91140238446
	sim-bpred -bpred 2lev -bpred:2lev 1 1024 10 1 base_quicksort91140238446
	sim-bpred -bpred 2lev -bpred:2lev 1 2048 10 1 base_quicksort91140238446
	sim-bpred -bpred 2lev -bpred:2lev 1 4096 10 1 base_quicksort91140238446
