Tue Jun 21 19:30:11 2005
Run as: "./do_simple -c random.org1 -o 1 base_quicksort7"
-------------------------------------------------------------------------------------------------
sim-cache                                     4096 |         4096 |         4096 |         4096 |         8192 |         8192 |         8192 |         8192 |        16384 |        16384 |        16384 |        16384 |        32768 |        32768 |        32768 |        32768 |        65536 |        65536 |        65536 |        65536 |       131072 |       131072 |       131072 |       131072 |       262144 |       262144 |       262144 |       262144 |       524288 |       524288 |       524288 |       524288 |      1048576 |      1048576 |      1048576 |      1048576 |      2097152 |      2097152 |      2097152 |      2097152 |      4194304 |      4194304 |      4194304 |      4194304 |
-cache:dl1 dl1:256:32:1:l -cache:dl2 dl2:131072:32:1:l -cache:il1 il1:256:32:1:l -cache:il2 dl2
-cache:dl1 dl1:256:32:1:l -cache:dl2 dl2:65536:32:1:l -cache:il1 il1:256:32:1:l -cache:il2 dl2
-cache:dl1 dl1:1:32:256:l -cache:dl2 dl2:1:32:131072:l -cache:il1 il1:1:32:256:l -cache:il2 dl2
-cache:dl1 dl1:1:32:256:l -cache:dl2 dl2:1:32:65536:l -cache:il1 il1:1:32:256:l -cache:il2 dl2
-------------------------------------------------------------------------------------------------
sim_num_insn                                475766 |       475766 |       475766 |       475766 |      1022526 |      1022526 |      1022526 |      1022526 |      2195182 |      2195182 |      2195182 |      2195182 |      4616059 |      4616059 |      4616059 |      4616059 |      9836555 |      9836555 |      9836555 |      9836555 |     20918276 |     20918276 |     20918276 |     20918276 |     43818101 |     43818101 |     43818101 |     43818101 |     92301096 |     92301096 |     92301096 |     92301096 |    193789982 |    193789982 |    193789982 |    193789982 |    413162511 |    413162511 |    413162511 |    413162511 |    855276431 |    855276431 |    855276431 |    855276431 |
sim_num_refs                                125755 |       125755 |       125755 |       125755 |       266269 |       266269 |       266269 |       266269 |       564140 |       564140 |       564140 |       564140 |      1183499 |      1183499 |      1183499 |      1183499 |      2502099 |      2502099 |      2502099 |      2502099 |      5288374 |      5288374 |      5288374 |      5288374 |     11079552 |     11079552 |     11079552 |     11079552 |     23235141 |     23235141 |     23235141 |     23235141 |     48616386 |     48616386 |     48616386 |     48616386 |    102477493 |    102477493 |    102477493 |    102477493 |    212726806 |    212726806 |    212726806 |    212726806 |
sim_elapsed_time                                 1 |            1 |            6 |            4 |            1 |            1 |           10 |            5 |            1 |            1 |           15 |            7 |            2 |            1 |           25 |           13 |            2 |            3 |           45 |           23 |            5 |            6 |           84 |           42 |           11 |           11 |          155 |           72 |           23 |           24 |          266 |          104 |           49 |           49 |          370 |          131 |          105 |          105 |          428 |          190 |          218 |          217 |          548 |          309 |
sim_inst_rate                          475766.0000 |  475766.0000 |   79294.3333 |  118941.5000 | 1022526.0000 | 1022526.0000 |  102252.6000 |  204505.2000 | 2195182.0000 | 2195182.0000 |  146345.4667 |  313597.4286 | 2308029.5000 | 4616059.0000 |  184642.3600 |  355081.4615 | 4918277.5000 | 3278851.6667 |  218590.1111 |  427676.3043 | 4183655.2000 | 3486379.3333 |  249027.0952 |  498054.1905 | 3983463.7273 | 3983463.7273 |  282697.4258 |  608584.7361 | 4013091.1304 | 3845879.0000 |  346996.6015 |  887510.5385 | 3954897.5918 | 3954897.5918 |  523756.7081 | 1479312.8397 | 3934881.0571 | 3934881.0571 |  965332.9696 | 2174539.5316 | 3923286.3807 | 3941366.0415 | 1560723.4142 | 2767884.8900 |
il1.accesses                                475766 |       475766 |       475766 |       475766 |      1022526 |      1022526 |      1022526 |      1022526 |      2195182 |      2195182 |      2195182 |      2195182 |      4616059 |      4616059 |      4616059 |      4616059 |      9836555 |      9836555 |      9836555 |      9836555 |     20918276 |     20918276 |     20918276 |     20918276 |     43818101 |     43818101 |     43818101 |     43818101 |     92301096 |     92301096 |     92301096 |     92301096 |    193789982 |    193789982 |    193789982 |    193789982 |    413162511 |    413162511 |    413162511 |    413162511 |    855276431 |    855276431 |    855276431 |    855276431 |
il1.hits                                    475299 |       475299 |       475328 |       475328 |      1022058 |      1022058 |      1022086 |      1022086 |      2194702 |      2194702 |      2194738 |      2194738 |      4615590 |      4615590 |      4615618 |      4615618 |      9836086 |      9836086 |      9836114 |      9836114 |     20917808 |     20917808 |     20917836 |     20917836 |     43817633 |     43817633 |     43817661 |     43817661 |     92300628 |     92300628 |     92300656 |     92300656 |    193789514 |    193789514 |    193789542 |    193789542 |    413162043 |    413162043 |    413162071 |    413162071 |    855275963 |    855275963 |    855275991 |    855275991 |
il1.misses                                     467 |          467 |          438 |          438 |          468 |          468 |          440 |          440 |          480 |          480 |          444 |          444 |          469 |          469 |          441 |          441 |          469 |          469 |          441 |          441 |          468 |          468 |          440 |          440 |          468 |          468 |          440 |          440 |          468 |          468 |          440 |          440 |          468 |          468 |          440 |          440 |          468 |          468 |          440 |          440 |          468 |          468 |          440 |          440 |
il1.replacements                               225 |          225 |          182 |          182 |          226 |          226 |          184 |          184 |          240 |          240 |          188 |          188 |          228 |          228 |          185 |          185 |          228 |          228 |          185 |          185 |          228 |          228 |          184 |          184 |          228 |          228 |          184 |          184 |          228 |          228 |          184 |          184 |          228 |          228 |          184 |          184 |          228 |          228 |          184 |          184 |          228 |          228 |          184 |          184 |
il1.writebacks                                   0 |            0 |            0 |            0 |            0 |            0 |            0 |            0 |            0 |            0 |            0 |            0 |            0 |            0 |            0 |            0 |            0 |            0 |            0 |            0 |            0 |            0 |            0 |            0 |            0 |            0 |            0 |            0 |            0 |            0 |            0 |            0 |            0 |            0 |            0 |            0 |            0 |            0 |            0 |            0 |            0 |            0 |            0 |            0 |
il1.invalidations                                0 |            0 |            0 |            0 |            0 |            0 |            0 |            0 |            0 |            0 |            0 |            0 |            0 |            0 |            0 |            0 |            0 |            0 |            0 |            0 |            0 |            0 |            0 |            0 |            0 |            0 |            0 |            0 |            0 |            0 |            0 |            0 |            0 |            0 |            0 |            0 |            0 |            0 |            0 |            0 |            0 |            0 |            0 |            0 |
il1.miss_rate                               0.0010 |       0.0010 |       0.0009 |       0.0009 |       0.0005 |       0.0005 |       0.0004 |       0.0004 |       0.0002 |       0.0002 |       0.0002 |       0.0002 |       0.0001 |       0.0001 |       0.0001 |       0.0001 |       0.0000 |       0.0000 |       0.0000 |       0.0000 |       0.0000 |       0.0000 |       0.0000 |       0.0000 |       0.0000 |       0.0000 |       0.0000 |       0.0000 |       0.0000 |       0.0000 |       0.0000 |       0.0000 |       0.0000 |       0.0000 |       0.0000 |       0.0000 |       0.0000 |       0.0000 |       0.0000 |       0.0000 |       0.0000 |       0.0000 |       0.0000 |       0.0000 |
il1.repl_rate                               0.0005 |       0.0005 |       0.0004 |       0.0004 |       0.0002 |       0.0002 |       0.0002 |       0.0002 |       0.0001 |       0.0001 |       0.0001 |       0.0001 |       0.0000 |       0.0000 |       0.0000 |       0.0000 |       0.0000 |       0.0000 |       0.0000 |       0.0000 |       0.0000 |       0.0000 |       0.0000 |       0.0000 |       0.0000 |       0.0000 |       0.0000 |       0.0000 |       0.0000 |       0.0000 |       0.0000 |       0.0000 |       0.0000 |       0.0000 |       0.0000 |       0.0000 |       0.0000 |       0.0000 |       0.0000 |       0.0000 |       0.0000 |       0.0000 |       0.0000 |       0.0000 |
il1.wb_rate                                 0.0000 |       0.0000 |       0.0000 |       0.0000 |       0.0000 |       0.0000 |       0.0000 |       0.0000 |       0.0000 |       0.0000 |       0.0000 |       0.0000 |       0.0000 |       0.0000 |       0.0000 |       0.0000 |       0.0000 |       0.0000 |       0.0000 |       0.0000 |       0.0000 |       0.0000 |       0.0000 |       0.0000 |       0.0000 |       0.0000 |       0.0000 |       0.0000 |       0.0000 |       0.0000 |       0.0000 |       0.0000 |       0.0000 |       0.0000 |       0.0000 |       0.0000 |       0.0000 |       0.0000 |       0.0000 |       0.0000 |       0.0000 |       0.0000 |       0.0000 |       0.0000 |
il1.inv_rate                                0.0000 |       0.0000 |       0.0000 |       0.0000 |       0.0000 |       0.0000 |       0.0000 |       0.0000 |       0.0000 |       0.0000 |       0.0000 |       0.0000 |       0.0000 |       0.0000 |       0.0000 |       0.0000 |       0.0000 |       0.0000 |       0.0000 |       0.0000 |       0.0000 |       0.0000 |       0.0000 |       0.0000 |       0.0000 |       0.0000 |       0.0000 |       0.0000 |       0.0000 |       0.0000 |       0.0000 |       0.0000 |       0.0000 |       0.0000 |       0.0000 |       0.0000 |       0.0000 |       0.0000 |       0.0000 |       0.0000 |       0.0000 |       0.0000 |       0.0000 |       0.0000 |
dl1.accesses                                142221 |       142221 |       142221 |       142221 |       299119 |       299119 |       299119 |       299119 |       629758 |       629758 |       629758 |       629758 |      1314653 |      1314653 |      1314653 |      1314653 |      2764325 |      2764325 |      2764325 |      2764325 |      5812744 |      5812744 |      5812744 |      5812744 |     12128210 |     12128210 |     12128210 |     12128210 |     25332375 |     25332375 |     25332375 |     25332375 |     52810772 |     52810772 |     52810772 |     52810772 |    110866183 |    110866183 |    110866183 |    110866183 |    229504104 |    229504104 |    229504104 |    229504104 |
dl1.hits                                    139679 |       139679 |       139637 |       139637 |       293496 |       293496 |       293353 |       293353 |       615754 |       615754 |       615861 |       615861 |      1284324 |      1284324 |      1284294 |      1284294 |      2693670 |      2693670 |      2693668 |      2693668 |      5651844 |      5651844 |      5652080 |      5652080 |     11775624 |     11775624 |     11777666 |     11777666 |     24555939 |     24555939 |     24561807 |     24561807 |     51105483 |     51105483 |     51123585 |     51123585 |    107008406 |    107008406 |    107049850 |    107049850 |    221376090 |    221376090 |    221472476 |    221472476 |
dl1.misses                                    2542 |         2542 |         2584 |         2584 |         5623 |         5623 |         5766 |         5766 |        14004 |        14004 |        13897 |        13897 |        30329 |        30329 |        30359 |        30359 |        70655 |        70655 |        70657 |        70657 |       160900 |       160900 |       160664 |       160664 |       352586 |       352586 |       350544 |       350544 |       776436 |       776436 |       770568 |       770568 |      1705289 |      1705289 |      1687187 |      1687187 |      3857777 |      3857777 |      3816333 |      3816333 |      8128014 |      8128014 |      8031628 |      8031628 |
dl1.replacements                              2286 |         2286 |         2328 |         2328 |         5367 |         5367 |         5510 |         5510 |        13748 |        13748 |        13641 |        13641 |        30073 |        30073 |        30103 |        30103 |        70399 |        70399 |        70401 |        70401 |       160644 |       160644 |       160408 |       160408 |       352330 |       352330 |       350288 |       350288 |       776180 |       776180 |       770312 |       770312 |      1705033 |      1705033 |      1686931 |      1686931 |      3857521 |      3857521 |      3816077 |      3816077 |      8127758 |      8127758 |      8031372 |      8031372 |
dl1.writebacks                                2238 |         2238 |         2300 |         2300 |         5165 |         5165 |         5338 |         5338 |        13087 |        13087 |        13076 |        13076 |        29315 |        29315 |        29600 |        29600 |        67976 |        67976 |        68634 |        68634 |       153736 |       153736 |       155030 |       155030 |       339973 |       339973 |       341478 |       341478 |       746000 |       746000 |       748424 |       748424 |      1635201 |      1635201 |      1636173 |      1636173 |      3632676 |      3632676 |      3633449 |      3633449 |      7685406 |      7685406 |      7680735 |      7680735 |
dl1.invalidations                                0 |            0 |            0 |            0 |            0 |            0 |            0 |            0 |            0 |            0 |            0 |            0 |            0 |            0 |            0 |            0 |            0 |            0 |            0 |            0 |            0 |            0 |            0 |            0 |            0 |            0 |            0 |            0 |            0 |            0 |            0 |            0 |            0 |            0 |            0 |            0 |            0 |            0 |            0 |            0 |            0 |            0 |            0 |            0 |
dl1.miss_rate                               0.0179 |       0.0179 |       0.0182 |       0.0182 |       0.0188 |       0.0188 |       0.0193 |       0.0193 |       0.0222 |       0.0222 |       0.0221 |       0.0221 |       0.0231 |       0.0231 |       0.0231 |       0.0231 |       0.0256 |       0.0256 |       0.0256 |       0.0256 |       0.0277 |       0.0277 |       0.0276 |       0.0276 |       0.0291 |       0.0291 |       0.0289 |       0.0289 |       0.0306 |       0.0306 |       0.0304 |       0.0304 |       0.0323 |       0.0323 |       0.0319 |       0.0319 |       0.0348 |       0.0348 |       0.0344 |       0.0344 |       0.0354 |       0.0354 |       0.0350 |       0.0350 |
dl1.repl_rate                               0.0161 |       0.0161 |       0.0164 |       0.0164 |       0.0179 |       0.0179 |       0.0184 |       0.0184 |       0.0218 |       0.0218 |       0.0217 |       0.0217 |       0.0229 |       0.0229 |       0.0229 |       0.0229 |       0.0255 |       0.0255 |       0.0255 |       0.0255 |       0.0276 |       0.0276 |       0.0276 |       0.0276 |       0.0291 |       0.0291 |       0.0289 |       0.0289 |       0.0306 |       0.0306 |       0.0304 |       0.0304 |       0.0323 |       0.0323 |       0.0319 |       0.0319 |       0.0348 |       0.0348 |       0.0344 |       0.0344 |       0.0354 |       0.0354 |       0.0350 |       0.0350 |
dl1.wb_rate                                 0.0157 |       0.0157 |       0.0162 |       0.0162 |       0.0173 |       0.0173 |       0.0178 |       0.0178 |       0.0208 |       0.0208 |       0.0208 |       0.0208 |       0.0223 |       0.0223 |       0.0225 |       0.0225 |       0.0246 |       0.0246 |       0.0248 |       0.0248 |       0.0264 |       0.0264 |       0.0267 |       0.0267 |       0.0280 |       0.0280 |       0.0282 |       0.0282 |       0.0294 |       0.0294 |       0.0295 |       0.0295 |       0.0310 |       0.0310 |       0.0310 |       0.0310 |       0.0328 |       0.0328 |       0.0328 |       0.0328 |       0.0335 |       0.0335 |       0.0335 |       0.0335 |
dl1.inv_rate                                0.0000 |       0.0000 |       0.0000 |       0.0000 |       0.0000 |       0.0000 |       0.0000 |       0.0000 |       0.0000 |       0.0000 |       0.0000 |       0.0000 |       0.0000 |       0.0000 |       0.0000 |       0.0000 |       0.0000 |       0.0000 |       0.0000 |       0.0000 |       0.0000 |       0.0000 |       0.0000 |       0.0000 |       0.0000 |       0.0000 |       0.0000 |       0.0000 |       0.0000 |       0.0000 |       0.0000 |       0.0000 |       0.0000 |       0.0000 |       0.0000 |       0.0000 |       0.0000 |       0.0000 |       0.0000 |       0.0000 |       0.0000 |       0.0000 |       0.0000 |       0.0000 |
dl2.accesses                                  5247 |         5247 |         5322 |         5322 |        11256 |        11256 |        11544 |        11544 |        27571 |        27571 |        27417 |        27417 |        60113 |        60113 |        60400 |        60400 |       139100 |       139100 |       139732 |       139732 |       315104 |       315104 |       316134 |       316134 |       693027 |       693027 |       692462 |       692462 |      1522904 |      1522904 |      1519432 |      1519432 |      3340958 |      3340958 |      3323800 |      3323800 |      7490921 |      7490921 |      7450222 |      7450222 |     15813888 |     15813888 |     15712803 |     15712803 |
dl2.hits                                      3862 |         3862 |         3951 |         3951 |         9357 |         9357 |         9659 |         9659 |        24651 |        24651 |        24514 |        24514 |        55148 |        55148 |        55449 |        55449 |       130039 |       130039 |       130685 |       130685 |       297852 |       297852 |       298896 |       298896 |       659391 |       659391 |       658840 |       658840 |      1456500 |      1455731 |      1453042 |      1399318 |      3208243 |      2920498 |      3082263 |      2869522 |      6549540 |      6138455 |      6401204 |      6004867 |     13269269 |     12674215 |     12991231 |     12448215 |
dl2.misses                                    1385 |         1385 |         1371 |         1371 |         1899 |         1899 |         1885 |         1885 |         2920 |         2920 |         2903 |         2903 |         4965 |         4965 |         4951 |         4951 |         9061 |         9061 |         9047 |         9047 |        17252 |        17252 |        17238 |        17238 |        33636 |        33636 |        33622 |        33622 |        66404 |        67173 |        66390 |       120114 |       132715 |       420460 |       241537 |       454278 |       941381 |      1352466 |      1049018 |      1445355 |      2544619 |      3139673 |      2721572 |      3264588 |
dl2.replacements                               171 |          171 |            0 |            0 |          170 |          170 |            0 |            0 |          171 |          171 |            0 |            0 |          169 |          169 |            0 |            0 |          169 |          169 |            0 |            0 |          169 |          169 |            0 |            0 |          169 |          169 |            0 |            0 |          169 |         1637 |            0 |        54578 |         1643 |       354924 |       110465 |       388742 |       810309 |      1286930 |       917946 |      1379819 |      2413547 |      3074137 |      2590500 |      3199052 |
dl2.writebacks                                 104 |          104 |            0 |            0 |          104 |          104 |            0 |            0 |          105 |          105 |            0 |            0 |          104 |          104 |            0 |            0 |          104 |          104 |            0 |            0 |          104 |          104 |            0 |            0 |          104 |          104 |            0 |            0 |          104 |         1313 |            0 |        54269 |         1319 |       353776 |       109813 |       387500 |       783889 |      1239310 |       880578 |      1328443 |      2358058 |      3001681 |      2527886 |      3121424 |
dl2.invalidations                                0 |            0 |            0 |            0 |            0 |            0 |            0 |            0 |            0 |            0 |            0 |            0 |            0 |            0 |            0 |            0 |            0 |            0 |            0 |            0 |            0 |            0 |            0 |            0 |            0 |            0 |            0 |            0 |            0 |            0 |            0 |            0 |            0 |            0 |            0 |            0 |            0 |            0 |            0 |            0 |            0 |            0 |            0 |            0 |
dl2.miss_rate                               0.2640 |       0.2640 |       0.2576 |       0.2576 |       0.1687 |       0.1687 |       0.1633 |       0.1633 |       0.1059 |       0.1059 |       0.1059 |       0.1059 |       0.0826 |       0.0826 |       0.0820 |       0.0820 |       0.0651 |       0.0651 |       0.0647 |       0.0647 |       0.0548 |       0.0548 |       0.0545 |       0.0545 |       0.0485 |       0.0485 |       0.0486 |       0.0486 |       0.0436 |       0.0441 |       0.0437 |       0.0791 |       0.0397 |       0.1259 |       0.0727 |       0.1367 |       0.1257 |       0.1805 |       0.1408 |       0.1940 |       0.1609 |       0.1985 |       0.1732 |       0.2078 |
dl2.repl_rate                               0.0326 |       0.0326 |       0.0000 |       0.0000 |       0.0151 |       0.0151 |       0.0000 |       0.0000 |       0.0062 |       0.0062 |       0.0000 |       0.0000 |       0.0028 |       0.0028 |       0.0000 |       0.0000 |       0.0012 |       0.0012 |       0.0000 |       0.0000 |       0.0005 |       0.0005 |       0.0000 |       0.0000 |       0.0002 |       0.0002 |       0.0000 |       0.0000 |       0.0001 |       0.0011 |       0.0000 |       0.0359 |       0.0005 |       0.1062 |       0.0332 |       0.1170 |       0.1082 |       0.1718 |       0.1232 |       0.1852 |       0.1526 |       0.1944 |       0.1649 |       0.2036 |
dl2.wb_rate                                 0.0198 |       0.0198 |       0.0000 |       0.0000 |       0.0092 |       0.0092 |       0.0000 |       0.0000 |       0.0038 |       0.0038 |       0.0000 |       0.0000 |       0.0017 |       0.0017 |       0.0000 |       0.0000 |       0.0007 |       0.0007 |       0.0000 |       0.0000 |       0.0003 |       0.0003 |       0.0000 |       0.0000 |       0.0002 |       0.0002 |       0.0000 |       0.0000 |       0.0001 |       0.0009 |       0.0000 |       0.0357 |       0.0004 |       0.1059 |       0.0330 |       0.1166 |       0.1046 |       0.1654 |       0.1182 |       0.1783 |       0.1491 |       0.1898 |       0.1609 |       0.1987 |
dl2.inv_rate                                0.0000 |       0.0000 |       0.0000 |       0.0000 |       0.0000 |       0.0000 |       0.0000 |       0.0000 |       0.0000 |       0.0000 |       0.0000 |       0.0000 |       0.0000 |       0.0000 |       0.0000 |       0.0000 |       0.0000 |       0.0000 |       0.0000 |       0.0000 |       0.0000 |       0.0000 |       0.0000 |       0.0000 |       0.0000 |       0.0000 |       0.0000 |       0.0000 |       0.0000 |       0.0000 |       0.0000 |       0.0000 |       0.0000 |       0.0000 |       0.0000 |       0.0000 |       0.0000 |       0.0000 |       0.0000 |       0.0000 |       0.0000 |       0.0000 |       0.0000 |       0.0000 |
itlb.accesses                               475766 |       475766 |       475766 |       475766 |      1022526 |      1022526 |      1022526 |      1022526 |      2195182 |      2195182 |      2195182 |      2195182 |      4616059 |      4616059 |      4616059 |      4616059 |      9836555 |      9836555 |      9836555 |      9836555 |     20918276 |     20918276 |     20918276 |     20918276 |     43818101 |     43818101 |     43818101 |     43818101 |     92301096 |     92301096 |     92301096 |     92301096 |    193789982 |    193789982 |    193789982 |    193789982 |    413162511 |    413162511 |    413162511 |    413162511 |    855276431 |    855276431 |    855276431 |    855276431 |
itlb.hits                                   475756 |       475756 |       475756 |       475756 |      1022516 |      1022516 |      1022516 |      1022516 |      2195172 |      2195172 |      2195172 |      2195172 |      4616049 |      4616049 |      4616049 |      4616049 |      9836545 |      9836545 |      9836545 |      9836545 |     20918266 |     20918266 |     20918266 |     20918266 |     43818091 |     43818091 |     43818091 |     43818091 |     92301086 |     92301086 |     92301086 |     92301086 |    193789972 |    193789972 |    193789972 |    193789972 |    413162501 |    413162501 |    413162501 |    413162501 |    855276421 |    855276421 |    855276421 |    855276421 |
itlb.misses                                     10 |           10 |           10 |           10 |           10 |           10 |           10 |           10 |           10 |           10 |           10 |           10 |           10 |           10 |           10 |           10 |           10 |           10 |           10 |           10 |           10 |           10 |           10 |           10 |           10 |           10 |           10 |           10 |           10 |           10 |           10 |           10 |           10 |           10 |           10 |           10 |           10 |           10 |           10 |           10 |           10 |           10 |           10 |           10 |
itlb.replacements                                0 |            0 |            0 |            0 |            0 |            0 |            0 |            0 |            0 |            0 |            0 |            0 |            0 |            0 |            0 |            0 |            0 |            0 |            0 |            0 |            0 |            0 |            0 |            0 |            0 |            0 |            0 |            0 |            0 |            0 |            0 |            0 |            0 |            0 |            0 |            0 |            0 |            0 |            0 |            0 |            0 |            0 |            0 |            0 |
itlb.writebacks                                  0 |            0 |            0 |            0 |            0 |            0 |            0 |            0 |            0 |            0 |            0 |            0 |            0 |            0 |            0 |            0 |            0 |            0 |            0 |            0 |            0 |            0 |            0 |            0 |            0 |            0 |            0 |            0 |            0 |            0 |            0 |            0 |            0 |            0 |            0 |            0 |            0 |            0 |            0 |            0 |            0 |            0 |            0 |            0 |
itlb.invalidations                               0 |            0 |            0 |            0 |            0 |            0 |            0 |            0 |            0 |            0 |            0 |            0 |            0 |            0 |            0 |            0 |            0 |            0 |            0 |            0 |            0 |            0 |            0 |            0 |            0 |            0 |            0 |            0 |            0 |            0 |            0 |            0 |            0 |            0 |            0 |            0 |            0 |            0 |            0 |            0 |            0 |            0 |            0 |            0 |
itlb.miss_rate                              0.0000 |       0.0000 |       0.0000 |       0.0000 |       0.0000 |       0.0000 |       0.0000 |       0.0000 |       0.0000 |       0.0000 |       0.0000 |       0.0000 |       0.0000 |       0.0000 |       0.0000 |       0.0000 |       0.0000 |       0.0000 |       0.0000 |       0.0000 |       0.0000 |       0.0000 |       0.0000 |       0.0000 |       0.0000 |       0.0000 |       0.0000 |       0.0000 |       0.0000 |       0.0000 |       0.0000 |       0.0000 |       0.0000 |       0.0000 |       0.0000 |       0.0000 |       0.0000 |       0.0000 |       0.0000 |       0.0000 |       0.0000 |       0.0000 |       0.0000 |       0.0000 |
itlb.repl_rate                              0.0000 |       0.0000 |       0.0000 |       0.0000 |       0.0000 |       0.0000 |       0.0000 |       0.0000 |       0.0000 |       0.0000 |       0.0000 |       0.0000 |       0.0000 |       0.0000 |       0.0000 |       0.0000 |       0.0000 |       0.0000 |       0.0000 |       0.0000 |       0.0000 |       0.0000 |       0.0000 |       0.0000 |       0.0000 |       0.0000 |       0.0000 |       0.0000 |       0.0000 |       0.0000 |       0.0000 |       0.0000 |       0.0000 |       0.0000 |       0.0000 |       0.0000 |       0.0000 |       0.0000 |       0.0000 |       0.0000 |       0.0000 |       0.0000 |       0.0000 |       0.0000 |
itlb.wb_rate                                0.0000 |       0.0000 |       0.0000 |       0.0000 |       0.0000 |       0.0000 |       0.0000 |       0.0000 |       0.0000 |       0.0000 |       0.0000 |       0.0000 |       0.0000 |       0.0000 |       0.0000 |       0.0000 |       0.0000 |       0.0000 |       0.0000 |       0.0000 |       0.0000 |       0.0000 |       0.0000 |       0.0000 |       0.0000 |       0.0000 |       0.0000 |       0.0000 |       0.0000 |       0.0000 |       0.0000 |       0.0000 |       0.0000 |       0.0000 |       0.0000 |       0.0000 |       0.0000 |       0.0000 |       0.0000 |       0.0000 |       0.0000 |       0.0000 |       0.0000 |       0.0000 |
itlb.inv_rate                               0.0000 |       0.0000 |       0.0000 |       0.0000 |       0.0000 |       0.0000 |       0.0000 |       0.0000 |       0.0000 |       0.0000 |       0.0000 |       0.0000 |       0.0000 |       0.0000 |       0.0000 |       0.0000 |       0.0000 |       0.0000 |       0.0000 |       0.0000 |       0.0000 |       0.0000 |       0.0000 |       0.0000 |       0.0000 |       0.0000 |       0.0000 |       0.0000 |       0.0000 |       0.0000 |       0.0000 |       0.0000 |       0.0000 |       0.0000 |       0.0000 |       0.0000 |       0.0000 |       0.0000 |       0.0000 |       0.0000 |       0.0000 |       0.0000 |       0.0000 |       0.0000 |
dtlb.accesses                               142221 |       142221 |       142221 |       142221 |       299119 |       299119 |       299119 |       299119 |       629758 |       629758 |       629758 |       629758 |      1314653 |      1314653 |      1314653 |      1314653 |      2764325 |      2764325 |      2764325 |      2764325 |      5812744 |      5812744 |      5812744 |      5812744 |     12128210 |     12128210 |     12128210 |     12128210 |     25332375 |     25332375 |     25332375 |     25332375 |     52810772 |     52810772 |     52810772 |     52810772 |    110866183 |    110866183 |    110866183 |    110866183 |    229504104 |    229504104 |    229504104 |    229504104 |
dtlb.hits                                   142209 |       142209 |       142209 |       142209 |       299103 |       299103 |       299103 |       299103 |       629734 |       629734 |       629734 |       629734 |      1314613 |      1314613 |      1314613 |      1314613 |      2764253 |      2764253 |      2764253 |      2764253 |      5812565 |      5812565 |      5812565 |      5812565 |     12127229 |     12127229 |     12127229 |     12127229 |     25329823 |     25329823 |     25329823 |     25329823 |     52804329 |     52804329 |     52804329 |     52804329 |    110849933 |    110849933 |    110849933 |    110849933 |    229468830 |    229468830 |    229468830 |    229468830 |
dtlb.misses                                     12 |           12 |           12 |           12 |           16 |           16 |           16 |           16 |           24 |           24 |           24 |           24 |           40 |           40 |           40 |           40 |           72 |           72 |           72 |           72 |          179 |          179 |          179 |          179 |          981 |          981 |          981 |          981 |         2552 |         2552 |         2552 |         2552 |         6443 |         6443 |         6443 |         6443 |        16250 |        16250 |        16250 |        16250 |        35274 |        35274 |        35274 |        35274 |
dtlb.replacements                                0 |            0 |            0 |            0 |            0 |            0 |            0 |            0 |            0 |            0 |            0 |            0 |            0 |            0 |            0 |            0 |            0 |            0 |            0 |            0 |           51 |           51 |           51 |           51 |          853 |          853 |          853 |          853 |         2424 |         2424 |         2424 |         2424 |         6315 |         6315 |         6315 |         6315 |        16122 |        16122 |        16122 |        16122 |        35146 |        35146 |        35146 |        35146 |
dtlb.writebacks                                  0 |            0 |            0 |            0 |            0 |            0 |            0 |            0 |            0 |            0 |            0 |            0 |            0 |            0 |            0 |            0 |            0 |            0 |            0 |            0 |           49 |           49 |           49 |           49 |          849 |          849 |          849 |          849 |         2417 |         2417 |         2417 |         2417 |         6295 |         6295 |         6295 |         6295 |        16082 |        16082 |        16082 |        16082 |        35076 |        35076 |        35076 |        35076 |
dtlb.invalidations                               0 |            0 |            0 |            0 |            0 |            0 |            0 |            0 |            0 |            0 |            0 |            0 |            0 |            0 |            0 |            0 |            0 |            0 |            0 |            0 |            0 |            0 |            0 |            0 |            0 |            0 |            0 |            0 |            0 |            0 |            0 |            0 |            0 |            0 |            0 |            0 |            0 |            0 |            0 |            0 |            0 |            0 |            0 |            0 |
dtlb.miss_rate                              0.0001 |       0.0001 |       0.0001 |       0.0001 |       0.0001 |       0.0001 |       0.0001 |       0.0001 |       0.0000 |       0.0000 |       0.0000 |       0.0000 |       0.0000 |       0.0000 |       0.0000 |       0.0000 |       0.0000 |       0.0000 |       0.0000 |       0.0000 |       0.0000 |       0.0000 |       0.0000 |       0.0000 |       0.0001 |       0.0001 |       0.0001 |       0.0001 |       0.0001 |       0.0001 |       0.0001 |       0.0001 |       0.0001 |       0.0001 |       0.0001 |       0.0001 |       0.0001 |       0.0001 |       0.0001 |       0.0001 |       0.0002 |       0.0002 |       0.0002 |       0.0002 |
dtlb.repl_rate                              0.0000 |       0.0000 |       0.0000 |       0.0000 |       0.0000 |       0.0000 |       0.0000 |       0.0000 |       0.0000 |       0.0000 |       0.0000 |       0.0000 |       0.0000 |       0.0000 |       0.0000 |       0.0000 |       0.0000 |       0.0000 |       0.0000 |       0.0000 |       0.0000 |       0.0000 |       0.0000 |       0.0000 |       0.0001 |       0.0001 |       0.0001 |       0.0001 |       0.0001 |       0.0001 |       0.0001 |       0.0001 |       0.0001 |       0.0001 |       0.0001 |       0.0001 |       0.0001 |       0.0001 |       0.0001 |       0.0001 |       0.0002 |       0.0002 |       0.0002 |       0.0002 |
dtlb.wb_rate                                0.0000 |       0.0000 |       0.0000 |       0.0000 |       0.0000 |       0.0000 |       0.0000 |       0.0000 |       0.0000 |       0.0000 |       0.0000 |       0.0000 |       0.0000 |       0.0000 |       0.0000 |       0.0000 |       0.0000 |       0.0000 |       0.0000 |       0.0000 |       0.0000 |       0.0000 |       0.0000 |       0.0000 |       0.0001 |       0.0001 |       0.0001 |       0.0001 |       0.0001 |       0.0001 |       0.0001 |       0.0001 |       0.0001 |       0.0001 |       0.0001 |       0.0001 |       0.0001 |       0.0001 |       0.0001 |       0.0001 |       0.0002 |       0.0002 |       0.0002 |       0.0002 |
dtlb.inv_rate                               0.0000 |       0.0000 |       0.0000 |       0.0000 |       0.0000 |       0.0000 |       0.0000 |       0.0000 |       0.0000 |       0.0000 |       0.0000 |       0.0000 |       0.0000 |       0.0000 |       0.0000 |       0.0000 |       0.0000 |       0.0000 |       0.0000 |       0.0000 |       0.0000 |       0.0000 |       0.0000 |       0.0000 |       0.0000 |       0.0000 |       0.0000 |       0.0000 |       0.0000 |       0.0000 |       0.0000 |       0.0000 |       0.0000 |       0.0000 |       0.0000 |       0.0000 |       0.0000 |       0.0000 |       0.0000 |       0.0000 |       0.0000 |       0.0000 |       0.0000 |       0.0000 |
ld_text_base                            0x00400000 |   0x00400000 |   0x00400000 |   0x00400000 |   0x00400000 |   0x00400000 |   0x00400000 |   0x00400000 |   0x00400000 |   0x00400000 |   0x00400000 |   0x00400000 |   0x00400000 |   0x00400000 |   0x00400000 |   0x00400000 |   0x00400000 |   0x00400000 |   0x00400000 |   0x00400000 |   0x00400000 |   0x00400000 |   0x00400000 |   0x00400000 |   0x00400000 |   0x00400000 |   0x00400000 |   0x00400000 |   0x00400000 |   0x00400000 |   0x00400000 |   0x00400000 |   0x00400000 |   0x00400000 |   0x00400000 |   0x00400000 |   0x00400000 |   0x00400000 |   0x00400000 |   0x00400000 |   0x00400000 |   0x00400000 |   0x00400000 |   0x00400000 |
ld_text_size                                 74064 |        74064 |        74064 |        74064 |        74096 |        74096 |        74096 |        74096 |        74112 |        74112 |        74112 |        74112 |        74128 |        74128 |        74128 |        74128 |        74128 |        74128 |        74128 |        74128 |        74128 |        74128 |        74128 |        74128 |        74128 |        74128 |        74128 |        74128 |        74128 |        74128 |        74128 |        74128 |        74128 |        74128 |        74128 |        74128 |        74128 |        74128 |        74128 |        74128 |        74128 |        74128 |        74128 |        74128 |
ld_data_base                            0x10000000 |   0x10000000 |   0x10000000 |   0x10000000 |   0x10000000 |   0x10000000 |   0x10000000 |   0x10000000 |   0x10000000 |   0x10000000 |   0x10000000 |   0x10000000 |   0x10000000 |   0x10000000 |   0x10000000 |   0x10000000 |   0x10000000 |   0x10000000 |   0x10000000 |   0x10000000 |   0x10000000 |   0x10000000 |   0x10000000 |   0x10000000 |   0x10000000 |   0x10000000 |   0x10000000 |   0x10000000 |   0x10000000 |   0x10000000 |   0x10000000 |   0x10000000 |   0x10000000 |   0x10000000 |   0x10000000 |   0x10000000 |   0x10000000 |   0x10000000 |   0x10000000 |   0x10000000 |   0x10000000 |   0x10000000 |   0x10000000 |   0x10000000 |
ld_data_size                                  8192 |         8192 |         8192 |         8192 |         8192 |         8192 |         8192 |         8192 |         8192 |         8192 |         8192 |         8192 |         8192 |         8192 |         8192 |         8192 |         8192 |         8192 |         8192 |         8192 |         8192 |         8192 |         8192 |         8192 |         8192 |         8192 |         8192 |         8192 |         8192 |         8192 |         8192 |         8192 |         8192 |         8192 |         8192 |         8192 |         8192 |         8192 |         8192 |         8192 |         8192 |         8192 |         8192 |         8192 |
ld_stack_base                           0x7fffc000 |   0x7fffc000 |   0x7fffc000 |   0x7fffc000 |   0x7fffc000 |   0x7fffc000 |   0x7fffc000 |   0x7fffc000 |   0x7fffc000 |   0x7fffc000 |   0x7fffc000 |   0x7fffc000 |   0x7fffc000 |   0x7fffc000 |   0x7fffc000 |   0x7fffc000 |   0x7fffc000 |   0x7fffc000 |   0x7fffc000 |   0x7fffc000 |   0x7fffc000 |   0x7fffc000 |   0x7fffc000 |   0x7fffc000 |   0x7fffc000 |   0x7fffc000 |   0x7fffc000 |   0x7fffc000 |   0x7fffc000 |   0x7fffc000 |   0x7fffc000 |   0x7fffc000 |   0x7fffc000 |   0x7fffc000 |   0x7fffc000 |   0x7fffc000 |   0x7fffc000 |   0x7fffc000 |   0x7fffc000 |   0x7fffc000 |   0x7fffc000 |   0x7fffc000 |   0x7fffc000 |   0x7fffc000 |
ld_stack_size                                16384 |        16384 |        16384 |        16384 |        16384 |        16384 |        16384 |        16384 |        16384 |        16384 |        16384 |        16384 |        16384 |        16384 |        16384 |        16384 |        16384 |        16384 |        16384 |        16384 |        16384 |        16384 |        16384 |        16384 |        16384 |        16384 |        16384 |        16384 |        16384 |        16384 |        16384 |        16384 |        16384 |        16384 |        16384 |        16384 |        16384 |        16384 |        16384 |        16384 |        16384 |        16384 |        16384 |        16384 |
ld_prog_entry                           0x00400140 |   0x00400140 |   0x00400140 |   0x00400140 |   0x00400140 |   0x00400140 |   0x00400140 |   0x00400140 |   0x00400140 |   0x00400140 |   0x00400140 |   0x00400140 |   0x00400140 |   0x00400140 |   0x00400140 |   0x00400140 |   0x00400140 |   0x00400140 |   0x00400140 |   0x00400140 |   0x00400140 |   0x00400140 |   0x00400140 |   0x00400140 |   0x00400140 |   0x00400140 |   0x00400140 |   0x00400140 |   0x00400140 |   0x00400140 |   0x00400140 |   0x00400140 |   0x00400140 |   0x00400140 |   0x00400140 |   0x00400140 |   0x00400140 |   0x00400140 |   0x00400140 |   0x00400140 |   0x00400140 |   0x00400140 |   0x00400140 |   0x00400140 |
ld_environ_base                         0x7fff8000 |   0x7fff8000 |   0x7fff8000 |   0x7fff8000 |   0x7fff8000 |   0x7fff8000 |   0x7fff8000 |   0x7fff8000 |   0x7fff8000 |   0x7fff8000 |   0x7fff8000 |   0x7fff8000 |   0x7fff8000 |   0x7fff8000 |   0x7fff8000 |   0x7fff8000 |   0x7fff8000 |   0x7fff8000 |   0x7fff8000 |   0x7fff8000 |   0x7fff8000 |   0x7fff8000 |   0x7fff8000 |   0x7fff8000 |   0x7fff8000 |   0x7fff8000 |   0x7fff8000 |   0x7fff8000 |   0x7fff8000 |   0x7fff8000 |   0x7fff8000 |   0x7fff8000 |   0x7fff8000 |   0x7fff8000 |   0x7fff8000 |   0x7fff8000 |   0x7fff8000 |   0x7fff8000 |   0x7fff8000 |   0x7fff8000 |   0x7fff8000 |   0x7fff8000 |   0x7fff8000 |   0x7fff8000 |
ld_target_big_endian                             0 |            0 |            0 |            0 |            0 |            0 |            0 |            0 |            0 |            0 |            0 |            0 |            0 |            0 |            0 |            0 |            0 |            0 |            0 |            0 |            0 |            0 |            0 |            0 |            0 |            0 |            0 |            0 |            0 |            0 |            0 |            0 |            0 |            0 |            0 |            0 |            0 |            0 |            0 |            0 |            0 |            0 |            0 |            0 |
mem.page_count                                  31 |           31 |           31 |           31 |           35 |           35 |           35 |           35 |           43 |           43 |           43 |           43 |           59 |           59 |           59 |           59 |           91 |           91 |           91 |           91 |          155 |          155 |          155 |          155 |          283 |          283 |          283 |          283 |          539 |          539 |          539 |          539 |         1051 |         1051 |         1051 |         1051 |         2075 |         2075 |         2075 |         2075 |         4123 |         4123 |         4123 |         4123 |
mem.page_mem                                  124k |         124k |         124k |         124k |         140k |         140k |         140k |         140k |         172k |         172k |         172k |         172k |         236k |         236k |         236k |         236k |         364k |         364k |         364k |         364k |         620k |         620k |         620k |         620k |        1132k |        1132k |        1132k |        1132k |        2156k |        2156k |        2156k |        2156k |        4204k |        4204k |        4204k |        4204k |        8300k |        8300k |        8300k |        8300k |       16492k |       16492k |       16492k |       16492k |
mem.ptab_misses                                 31 |           31 |           31 |           31 |           35 |           35 |           35 |           35 |           43 |           43 |           43 |           43 |           59 |           59 |           59 |           59 |           91 |           91 |           91 |           91 |          155 |          155 |          155 |          155 |          283 |          283 |          283 |          283 |          539 |          539 |          539 |          539 |         1051 |         1051 |         1051 |         1051 |         2075 |         2075 |         2075 |         2075 |         4123 |         4123 |         4123 |         4123 |
mem.ptab_accesses                          2646502 |      2646502 |      2646502 |      2646502 |      5147530 |      5147530 |      5147530 |      5147530 |     10499528 |     10499528 |     10499528 |     10499528 |     21552922 |     21552922 |     21552922 |     21552922 |     45334250 |     45334250 |     45334250 |     45334250 |     95757972 |     95757972 |     95757972 |     95757972 |    199988204 |    199988204 |    199988204 |    199988204 |    420328514 |    420328514 |    420328514 |    420328514 |    881240852 |    881240852 |    881240852 |    881240852 |   1874841790 |   1874841790 |   1874841790 |   1874841790 |   3880573312 |   3880573312 |   3880573312 |   3880573312 |
mem.ptab_miss_rate                          0.0000 |       0.0000 |       0.0000 |       0.0000 |       0.0000 |       0.0000 |       0.0000 |       0.0000 |       0.0000 |       0.0000 |       0.0000 |       0.0000 |       0.0000 |       0.0000 |       0.0000 |       0.0000 |       0.0000 |       0.0000 |       0.0000 |       0.0000 |       0.0000 |       0.0000 |       0.0000 |       0.0000 |       0.0000 |       0.0000 |       0.0000 |       0.0000 |       0.0000 |       0.0000 |       0.0000 |       0.0000 |       0.0000 |       0.0000 |       0.0000 |       0.0000 |       0.0000 |       0.0000 |       0.0000 |       0.0000 |       0.0000 |       0.0000 |       0.0000 |       0.0000 |
-------------------------------------------------------------------------------------------------
sim-bpred                                     4096 |         4096 |         4096 |         4096 |         4096 |         4096 |         4096 |         8192 |         8192 |         8192 |         8192 |         8192 |         8192 |         8192 |        16384 |        16384 |        16384 |        16384 |        16384 |        16384 |        16384 |        32768 |        32768 |        32768 |        32768 |        32768 |        32768 |        32768 |        65536 |        65536 |        65536 |        65536 |        65536 |        65536 |        65536 |       131072 |       131072 |       131072 |       131072 |       131072 |       131072 |       131072 |       262144 |       262144 |       262144 |       262144 |       262144 |       262144 |       262144 |       524288 |       524288 |       524288 |       524288 |       524288 |       524288 |       524288 |      1048576 |      1048576 |      1048576 |      1048576 |      1048576 |      1048576 |      1048576 |      2097152 |      2097152 |      2097152 |      2097152 |      2097152 |      2097152 |      2097152 |      4194304 |      4194304 |      4194304 |      4194304 |      4194304 |      4194304 |      4194304 |
-bpred bimod -bpred:bimod 512
-bpred bimod -bpred:bimod 1024
-bpred bimod -bpred:bimod 2048
-bpred 2lev -bpred:2lev 1 512 10 1
-bpred 2lev -bpred:2lev 1 1024 10 1
-bpred 2lev -bpred:2lev 1 2048 10 1
-bpred 2lev -bpred:2lev 1 4096 10 1
-------------------------------------------------------------------------------------------------
sim_num_insn                                475766 |       475766 |       475766 |       475766 |       475766 |       475766 |       475766 |      1022526 |      1022526 |      1022526 |      1022526 |      1022526 |      1022526 |      1022526 |      2195182 |      2195182 |      2195182 |      2195182 |      2195182 |      2195182 |      2195182 |      4616059 |      4616059 |      4616059 |      4616059 |      4616059 |      4616059 |      4616059 |      9836555 |      9836555 |      9836555 |      9836555 |      9836555 |      9836555 |      9836555 |     20918276 |     20918276 |     20918276 |     20918276 |     20918276 |     20918276 |     20918276 |     43818101 |     43818101 |     43818101 |     43818101 |     43818101 |     43818101 |     43818101 |     92301096 |     92301096 |     92301096 |     92301096 |     92301096 |     92301096 |     92301096 |    193789982 |    193789982 |    193789982 |    193789982 |    193789982 |    193789982 |    193789982 |    413162511 |    413162511 |    413162511 |    413162511 |    413162511 |    413162511 |    413162511 |    855276431 |    855276431 |    855276431 |    855276431 |    855276431 |    855276431 |    855276431 |
sim_num_refs                                125755 |       125755 |       125755 |       125755 |       125755 |       125755 |       125755 |       266269 |       266269 |       266269 |       266269 |       266269 |       266269 |       266269 |       564140 |       564140 |       564140 |       564140 |       564140 |       564140 |       564140 |      1183499 |      1183499 |      1183499 |      1183499 |      1183499 |      1183499 |      1183499 |      2502099 |      2502099 |      2502099 |      2502099 |      2502099 |      2502099 |      2502099 |      5288374 |      5288374 |      5288374 |      5288374 |      5288374 |      5288374 |      5288374 |     11079552 |     11079552 |     11079552 |     11079552 |     11079552 |     11079552 |     11079552 |     23235141 |     23235141 |     23235141 |     23235141 |     23235141 |     23235141 |     23235141 |     48616386 |     48616386 |     48616386 |     48616386 |     48616386 |     48616386 |     48616386 |    102477493 |    102477493 |    102477493 |    102477493 |    102477493 |    102477493 |    102477493 |    212726806 |    212726806 |    212726806 |    212726806 |    212726806 |    212726806 |    212726806 |
sim_elapsed_time                                 1 |            1 |            1 |            1 |            1 |            1 |            1 |            1 |            1 |            1 |            1 |            1 |            1 |            1 |            1 |            1 |            1 |            1 |            1 |            1 |            1 |            1 |            1 |            1 |            1 |            1 |            1 |            1 |            1 |            1 |            1 |            1 |            1 |            2 |            1 |            2 |            3 |            2 |            3 |            2 |            3 |            2 |            5 |            6 |            5 |            5 |            5 |            5 |            6 |           11 |           10 |           11 |           11 |           11 |           11 |           11 |           22 |           23 |           22 |           23 |           23 |           23 |           23 |           48 |           48 |           48 |           49 |           49 |           48 |           50 |          100 |           99 |           99 |          101 |          101 |          100 |          103 |
sim_inst_rate                          475766.0000 |  475766.0000 |  475766.0000 |  475766.0000 |  475766.0000 |  475766.0000 |  475766.0000 | 1022526.0000 | 1022526.0000 | 1022526.0000 | 1022526.0000 | 1022526.0000 | 1022526.0000 | 1022526.0000 | 2195182.0000 | 2195182.0000 | 2195182.0000 | 2195182.0000 | 2195182.0000 | 2195182.0000 | 2195182.0000 | 4616059.0000 | 4616059.0000 | 4616059.0000 | 4616059.0000 | 4616059.0000 | 4616059.0000 | 4616059.0000 | 9836555.0000 | 9836555.0000 | 9836555.0000 | 9836555.0000 | 9836555.0000 | 4918277.5000 | 9836555.0000 |10459138.0000 | 6972758.6667 |10459138.0000 | 6972758.6667 |10459138.0000 | 6972758.6667 |10459138.0000 | 8763620.2000 | 7303016.8333 | 8763620.2000 | 8763620.2000 | 8763620.2000 | 8763620.2000 | 7303016.8333 | 8391008.7273 | 9230109.6000 | 8391008.7273 | 8391008.7273 | 8391008.7273 | 8391008.7273 | 8391008.7273 | 8808635.5455 | 8425651.3913 | 8808635.5455 | 8425651.3913 | 8425651.3913 | 8425651.3913 | 8425651.3913 | 8607552.3125 | 8607552.3125 | 8607552.3125 | 8431887.9796 | 8431887.9796 | 8607552.3125 | 8263250.2200 | 8552764.3100 | 8639155.8687 | 8639155.8687 | 8468083.4752 | 8468083.4752 | 8552764.3100 | 8303654.6699 |
sim_num_branches                             74958 |        74958 |        74958 |        74958 |        74958 |        74958 |        74958 |       163025 |       163025 |       163025 |       163025 |       163025 |       163025 |       163025 |       353638 |       353638 |       353638 |       353638 |       353638 |       353638 |       353638 |       749381 |       749381 |       749381 |       749381 |       749381 |       749381 |       749381 |      1608804 |      1608804 |      1608804 |      1608804 |      1608804 |      1608804 |      1608804 |      3441412 |      3441412 |      3441412 |      3441412 |      3441412 |      3441412 |      3441412 |      7252925 |      7252925 |      7252925 |      7252925 |      7252925 |      7252925 |      7252925 |     15328044 |     15328044 |     15328044 |     15328044 |     15328044 |     15328044 |     15328044 |     32305103 |     32305103 |     32305103 |     32305103 |     32305103 |     32305103 |     32305103 |     69024413 |     69024413 |     69024413 |     69024413 |     69024413 |     69024413 |     69024413 |    143533383 |    143533383 |    143533383 |    143533383 |    143533383 |    143533383 |    143533383 |
sim_IPB                                     6.3471 |       6.3471 |       6.3471 |       6.3471 |       6.3471 |       6.3471 |       6.3471 |       6.2722 |       6.2722 |       6.2722 |       6.2722 |       6.2722 |       6.2722 |       6.2722 |       6.2074 |       6.2074 |       6.2074 |       6.2074 |       6.2074 |       6.2074 |       6.2074 |       6.1598 |       6.1598 |       6.1598 |       6.1598 |       6.1598 |       6.1598 |       6.1598 |       6.1142 |       6.1142 |       6.1142 |       6.1142 |       6.1142 |       6.1142 |       6.1142 |       6.0784 |       6.0784 |       6.0784 |       6.0784 |       6.0784 |       6.0784 |       6.0784 |       6.0414 |       6.0414 |       6.0414 |       6.0414 |       6.0414 |       6.0414 |       6.0414 |       6.0217 |       6.0217 |       6.0217 |       6.0217 |       6.0217 |       6.0217 |       6.0217 |       5.9987 |       5.9987 |       5.9987 |       5.9987 |       5.9987 |       5.9987 |       5.9987 |       5.9857 |       5.9857 |       5.9857 |       5.9857 |       5.9857 |       5.9857 |       5.9857 |       5.9587 |       5.9587 |       5.9587 |       5.9587 |       5.9587 |       5.9587 |       5.9587 |
bpred_bimod.lookups                          74958 |        74958 |        74958 |xxxxxxxxxxxxx |xxxxxxxxxxxxx |xxxxxxxxxxxxx |xxxxxxxxxxxxx |       163025 |       163025 |       163025 |xxxxxxxxxxxxx |xxxxxxxxxxxxx |xxxxxxxxxxxxx |xxxxxxxxxxxxx |       353638 |       353638 |       353638 |xxxxxxxxxxxxx |xxxxxxxxxxxxx |xxxxxxxxxxxxx |xxxxxxxxxxxxx |       749381 |       749381 |       749381 |xxxxxxxxxxxxx |xxxxxxxxxxxxx |xxxxxxxxxxxxx |xxxxxxxxxxxxx |      1608804 |      1608804 |      1608804 |xxxxxxxxxxxxx |xxxxxxxxxxxxx |xxxxxxxxxxxxx |xxxxxxxxxxxxx |      3441412 |      3441412 |      3441412 |xxxxxxxxxxxxx |xxxxxxxxxxxxx |xxxxxxxxxxxxx |xxxxxxxxxxxxx |      7252925 |      7252925 |      7252925 |xxxxxxxxxxxxx |xxxxxxxxxxxxx |xxxxxxxxxxxxx |xxxxxxxxxxxxx |     15328044 |     15328044 |     15328044 |xxxxxxxxxxxxx |xxxxxxxxxxxxx |xxxxxxxxxxxxx |xxxxxxxxxxxxx |     32305103 |     32305103 |     32305103 |xxxxxxxxxxxxx |xxxxxxxxxxxxx |xxxxxxxxxxxxx |xxxxxxxxxxxxx |     69024413 |     69024413 |     69024413 |xxxxxxxxxxxxx |xxxxxxxxxxxxx |xxxxxxxxxxxxx |xxxxxxxxxxxxx |    143533383 |    143533383 |    143533383 |
bpred_bimod.updates                          74958 |        74958 |        74958 |xxxxxxxxxxxxx |xxxxxxxxxxxxx |xxxxxxxxxxxxx |xxxxxxxxxxxxx |       163025 |       163025 |       163025 |xxxxxxxxxxxxx |xxxxxxxxxxxxx |xxxxxxxxxxxxx |xxxxxxxxxxxxx |       353638 |       353638 |       353638 |xxxxxxxxxxxxx |xxxxxxxxxxxxx |xxxxxxxxxxxxx |xxxxxxxxxxxxx |       749381 |       749381 |       749381 |xxxxxxxxxxxxx |xxxxxxxxxxxxx |xxxxxxxxxxxxx |xxxxxxxxxxxxx |      1608804 |      1608804 |      1608804 |xxxxxxxxxxxxx |xxxxxxxxxxxxx |xxxxxxxxxxxxx |xxxxxxxxxxxxx |      3441412 |      3441412 |      3441412 |xxxxxxxxxxxxx |xxxxxxxxxxxxx |xxxxxxxxxxxxx |xxxxxxxxxxxxx |      7252925 |      7252925 |      7252925 |xxxxxxxxxxxxx |xxxxxxxxxxxxx |xxxxxxxxxxxxx |xxxxxxxxxxxxx |     15328044 |     15328044 |     15328044 |xxxxxxxxxxxxx |xxxxxxxxxxxxx |xxxxxxxxxxxxx |xxxxxxxxxxxxx |     32305103 |     32305103 |     32305103 |xxxxxxxxxxxxx |xxxxxxxxxxxxx |xxxxxxxxxxxxx |xxxxxxxxxxxxx |     69024413 |     69024413 |     69024413 |xxxxxxxxxxxxx |xxxxxxxxxxxxx |xxxxxxxxxxxxx |xxxxxxxxxxxxx |    143533383 |    143533383 |    143533383 |
bpred_bimod.addr_hits                        51440 |        51442 |        51443 |xxxxxxxxxxxxx |xxxxxxxxxxxxx |xxxxxxxxxxxxx |xxxxxxxxxxxxx |       113067 |       113069 |       113073 |xxxxxxxxxxxxx |xxxxxxxxxxxxx |xxxxxxxxxxxxx |xxxxxxxxxxxxx |       247842 |       247843 |       247844 |xxxxxxxxxxxxx |xxxxxxxxxxxxx |xxxxxxxxxxxxx |xxxxxxxxxxxxx |       520152 |       520153 |       520154 |xxxxxxxxxxxxx |xxxxxxxxxxxxx |xxxxxxxxxxxxx |xxxxxxxxxxxxx |      1128850 |      1128851 |      1128851 |xxxxxxxxxxxxx |xxxxxxxxxxxxx |xxxxxxxxxxxxx |xxxxxxxxxxxxx |      2422395 |      2422396 |      2422396 |xxxxxxxxxxxxx |xxxxxxxxxxxxx |xxxxxxxxxxxxx |xxxxxxxxxxxxx |      5083830 |      5083831 |      5083832 |xxxxxxxxxxxxx |xxxxxxxxxxxxx |xxxxxxxxxxxxx |xxxxxxxxxxxxx |     10732750 |     10732751 |     10732753 |xxxxxxxxxxxxx |xxxxxxxxxxxxx |xxxxxxxxxxxxx |xxxxxxxxxxxxx |     22665308 |     22665311 |     22665313 |xxxxxxxxxxxxx |xxxxxxxxxxxxx |xxxxxxxxxxxxx |xxxxxxxxxxxxx |     49403317 |     49403320 |     49403321 |xxxxxxxxxxxxx |xxxxxxxxxxxxx |xxxxxxxxxxxxx |xxxxxxxxxxxxx |    101409590 |    101409593 |    101409595 |
bpred_bimod.dir_hits                         51558 |        51557 |        51558 |xxxxxxxxxxxxx |xxxxxxxxxxxxx |xxxxxxxxxxxxx |xxxxxxxxxxxxx |       113183 |       113183 |       113186 |xxxxxxxxxxxxx |xxxxxxxxxxxxx |xxxxxxxxxxxxx |xxxxxxxxxxxxx |       247957 |       247955 |       247955 |xxxxxxxxxxxxx |xxxxxxxxxxxxx |xxxxxxxxxxxxx |xxxxxxxxxxxxx |       520270 |       520267 |       520267 |xxxxxxxxxxxxx |xxxxxxxxxxxxx |xxxxxxxxxxxxx |xxxxxxxxxxxxx |      1128967 |      1128963 |      1128962 |xxxxxxxxxxxxx |xxxxxxxxxxxxx |xxxxxxxxxxxxx |xxxxxxxxxxxxx |      2422518 |      2422514 |      2422513 |xxxxxxxxxxxxx |xxxxxxxxxxxxx |xxxxxxxxxxxxx |xxxxxxxxxxxxx |      5083951 |      5083949 |      5083950 |xxxxxxxxxxxxx |xxxxxxxxxxxxx |xxxxxxxxxxxxx |xxxxxxxxxxxxx |     10732869 |     10732867 |     10732869 |xxxxxxxxxxxxx |xxxxxxxxxxxxx |xxxxxxxxxxxxx |xxxxxxxxxxxxx |     22665425 |     22665424 |     22665426 |xxxxxxxxxxxxx |xxxxxxxxxxxxx |xxxxxxxxxxxxx |xxxxxxxxxxxxx |     49403435 |     49403434 |     49403434 |xxxxxxxxxxxxx |xxxxxxxxxxxxx |xxxxxxxxxxxxx |xxxxxxxxxxxxx |    101409710 |    101409708 |    101409710 |
bpred_bimod.misses                           23400 |        23401 |        23400 |xxxxxxxxxxxxx |xxxxxxxxxxxxx |xxxxxxxxxxxxx |xxxxxxxxxxxxx |        49842 |        49842 |        49839 |xxxxxxxxxxxxx |xxxxxxxxxxxxx |xxxxxxxxxxxxx |xxxxxxxxxxxxx |       105681 |       105683 |       105683 |xxxxxxxxxxxxx |xxxxxxxxxxxxx |xxxxxxxxxxxxx |xxxxxxxxxxxxx |       229111 |       229114 |       229114 |xxxxxxxxxxxxx |xxxxxxxxxxxxx |xxxxxxxxxxxxx |xxxxxxxxxxxxx |       479837 |       479841 |       479842 |xxxxxxxxxxxxx |xxxxxxxxxxxxx |xxxxxxxxxxxxx |xxxxxxxxxxxxx |      1018894 |      1018898 |      1018899 |xxxxxxxxxxxxx |xxxxxxxxxxxxx |xxxxxxxxxxxxx |xxxxxxxxxxxxx |      2168974 |      2168976 |      2168975 |xxxxxxxxxxxxx |xxxxxxxxxxxxx |xxxxxxxxxxxxx |xxxxxxxxxxxxx |      4595175 |      4595177 |      4595175 |xxxxxxxxxxxxx |xxxxxxxxxxxxx |xxxxxxxxxxxxx |xxxxxxxxxxxxx |      9639678 |      9639679 |      9639677 |xxxxxxxxxxxxx |xxxxxxxxxxxxx |xxxxxxxxxxxxx |xxxxxxxxxxxxx |     19620978 |     19620979 |     19620979 |xxxxxxxxxxxxx |xxxxxxxxxxxxx |xxxxxxxxxxxxx |xxxxxxxxxxxxx |     42123673 |     42123675 |     42123673 |
bpred_bimod.jr_hits                             64 |           64 |           64 |xxxxxxxxxxxxx |xxxxxxxxxxxxx |xxxxxxxxxxxxx |xxxxxxxxxxxxx |           64 |           64 |           64 |xxxxxxxxxxxxx |xxxxxxxxxxxxx |xxxxxxxxxxxxx |xxxxxxxxxxxxx |           64 |           64 |           64 |xxxxxxxxxxxxx |xxxxxxxxxxxxx |xxxxxxxxxxxxx |xxxxxxxxxxxxx |           64 |           64 |           64 |xxxxxxxxxxxxx |xxxxxxxxxxxxx |xxxxxxxxxxxxx |xxxxxxxxxxxxx |           64 |           64 |           64 |xxxxxxxxxxxxx |xxxxxxxxxxxxx |xxxxxxxxxxxxx |xxxxxxxxxxxxx |           64 |           64 |           64 |xxxxxxxxxxxxx |xxxxxxxxxxxxx |xxxxxxxxxxxxx |xxxxxxxxxxxxx |           64 |           64 |           64 |xxxxxxxxxxxxx |xxxxxxxxxxxxx |xxxxxxxxxxxxx |xxxxxxxxxxxxx |           64 |           64 |           64 |xxxxxxxxxxxxx |xxxxxxxxxxxxx |xxxxxxxxxxxxx |xxxxxxxxxxxxx |           64 |           64 |           64 |xxxxxxxxxxxxx |xxxxxxxxxxxxx |xxxxxxxxxxxxx |xxxxxxxxxxxxx |           64 |           64 |           64 |xxxxxxxxxxxxx |xxxxxxxxxxxxx |xxxxxxxxxxxxx |xxxxxxxxxxxxx |           64 |           64 |           64 |
bpred_bimod.jr_seen                             64 |           64 |           64 |xxxxxxxxxxxxx |xxxxxxxxxxxxx |xxxxxxxxxxxxx |xxxxxxxxxxxxx |           64 |           64 |           64 |xxxxxxxxxxxxx |xxxxxxxxxxxxx |xxxxxxxxxxxxx |xxxxxxxxxxxxx |           64 |           64 |           64 |xxxxxxxxxxxxx |xxxxxxxxxxxxx |xxxxxxxxxxxxx |xxxxxxxxxxxxx |           64 |           64 |           64 |xxxxxxxxxxxxx |xxxxxxxxxxxxx |xxxxxxxxxxxxx |xxxxxxxxxxxxx |           64 |           64 |           64 |xxxxxxxxxxxxx |xxxxxxxxxxxxx |xxxxxxxxxxxxx |xxxxxxxxxxxxx |           64 |           64 |           64 |xxxxxxxxxxxxx |xxxxxxxxxxxxx |xxxxxxxxxxxxx |xxxxxxxxxxxxx |           64 |           64 |           64 |xxxxxxxxxxxxx |xxxxxxxxxxxxx |xxxxxxxxxxxxx |xxxxxxxxxxxxx |           64 |           64 |           64 |xxxxxxxxxxxxx |xxxxxxxxxxxxx |xxxxxxxxxxxxx |xxxxxxxxxxxxx |           64 |           64 |           64 |xxxxxxxxxxxxx |xxxxxxxxxxxxx |xxxxxxxxxxxxx |xxxxxxxxxxxxx |           64 |           64 |           64 |xxxxxxxxxxxxx |xxxxxxxxxxxxx |xxxxxxxxxxxxx |xxxxxxxxxxxxx |           64 |           64 |           64 |
bpred_bimod.jr_non_ras_hits.PP                   0 |            0 |            0 |xxxxxxxxxxxxx |xxxxxxxxxxxxx |xxxxxxxxxxxxx |xxxxxxxxxxxxx |            0 |            0 |            0 |xxxxxxxxxxxxx |xxxxxxxxxxxxx |xxxxxxxxxxxxx |xxxxxxxxxxxxx |            0 |            0 |            0 |xxxxxxxxxxxxx |xxxxxxxxxxxxx |xxxxxxxxxxxxx |xxxxxxxxxxxxx |            0 |            0 |            0 |xxxxxxxxxxxxx |xxxxxxxxxxxxx |xxxxxxxxxxxxx |xxxxxxxxxxxxx |            0 |            0 |            0 |xxxxxxxxxxxxx |xxxxxxxxxxxxx |xxxxxxxxxxxxx |xxxxxxxxxxxxx |            0 |            0 |            0 |xxxxxxxxxxxxx |xxxxxxxxxxxxx |xxxxxxxxxxxxx |xxxxxxxxxxxxx |            0 |            0 |            0 |xxxxxxxxxxxxx |xxxxxxxxxxxxx |xxxxxxxxxxxxx |xxxxxxxxxxxxx |            0 |            0 |            0 |xxxxxxxxxxxxx |xxxxxxxxxxxxx |xxxxxxxxxxxxx |xxxxxxxxxxxxx |            0 |            0 |            0 |xxxxxxxxxxxxx |xxxxxxxxxxxxx |xxxxxxxxxxxxx |xxxxxxxxxxxxx |            0 |            0 |            0 |xxxxxxxxxxxxx |xxxxxxxxxxxxx |xxxxxxxxxxxxx |xxxxxxxxxxxxx |            0 |            0 |            0 |
bpred_bimod.jr_non_ras_seen.PP                   0 |            0 |            0 |xxxxxxxxxxxxx |xxxxxxxxxxxxx |xxxxxxxxxxxxx |xxxxxxxxxxxxx |            0 |            0 |            0 |xxxxxxxxxxxxx |xxxxxxxxxxxxx |xxxxxxxxxxxxx |xxxxxxxxxxxxx |            0 |            0 |            0 |xxxxxxxxxxxxx |xxxxxxxxxxxxx |xxxxxxxxxxxxx |xxxxxxxxxxxxx |            0 |            0 |            0 |xxxxxxxxxxxxx |xxxxxxxxxxxxx |xxxxxxxxxxxxx |xxxxxxxxxxxxx |            0 |            0 |            0 |xxxxxxxxxxxxx |xxxxxxxxxxxxx |xxxxxxxxxxxxx |xxxxxxxxxxxxx |            0 |            0 |            0 |xxxxxxxxxxxxx |xxxxxxxxxxxxx |xxxxxxxxxxxxx |xxxxxxxxxxxxx |            0 |            0 |            0 |xxxxxxxxxxxxx |xxxxxxxxxxxxx |xxxxxxxxxxxxx |xxxxxxxxxxxxx |            0 |            0 |            0 |xxxxxxxxxxxxx |xxxxxxxxxxxxx |xxxxxxxxxxxxx |xxxxxxxxxxxxx |            0 |            0 |            0 |xxxxxxxxxxxxx |xxxxxxxxxxxxx |xxxxxxxxxxxxx |xxxxxxxxxxxxx |            0 |            0 |            0 |xxxxxxxxxxxxx |xxxxxxxxxxxxx |xxxxxxxxxxxxx |xxxxxxxxxxxxx |            0 |            0 |            0 |
bpred_bimod.bpred_addr_rate                 0.6863 |       0.6863 |       0.6863 |xxxxxxxxxxxxx |xxxxxxxxxxxxx |xxxxxxxxxxxxx |xxxxxxxxxxxxx |       0.6936 |       0.6936 |       0.6936 |xxxxxxxxxxxxx |xxxxxxxxxxxxx |xxxxxxxxxxxxx |xxxxxxxxxxxxx |       0.7008 |       0.7008 |       0.7008 |xxxxxxxxxxxxx |xxxxxxxxxxxxx |xxxxxxxxxxxxx |xxxxxxxxxxxxx |       0.6941 |       0.6941 |       0.6941 |xxxxxxxxxxxxx |xxxxxxxxxxxxx |xxxxxxxxxxxxx |xxxxxxxxxxxxx |       0.7017 |       0.7017 |       0.7017 |xxxxxxxxxxxxx |xxxxxxxxxxxxx |xxxxxxxxxxxxx |xxxxxxxxxxxxx |       0.7039 |       0.7039 |       0.7039 |xxxxxxxxxxxxx |xxxxxxxxxxxxx |xxxxxxxxxxxxx |xxxxxxxxxxxxx |       0.7009 |       0.7009 |       0.7009 |xxxxxxxxxxxxx |xxxxxxxxxxxxx |xxxxxxxxxxxxx |xxxxxxxxxxxxx |       0.7002 |       0.7002 |       0.7002 |xxxxxxxxxxxxx |xxxxxxxxxxxxx |xxxxxxxxxxxxx |xxxxxxxxxxxxx |       0.7016 |       0.7016 |       0.7016 |xxxxxxxxxxxxx |xxxxxxxxxxxxx |xxxxxxxxxxxxx |xxxxxxxxxxxxx |       0.7157 |       0.7157 |       0.7157 |xxxxxxxxxxxxx |xxxxxxxxxxxxx |xxxxxxxxxxxxx |xxxxxxxxxxxxx |       0.7065 |       0.7065 |       0.7065 |
bpred_bimod.bpred_dir_rate                  0.6878 |       0.6878 |       0.6878 |xxxxxxxxxxxxx |xxxxxxxxxxxxx |xxxxxxxxxxxxx |xxxxxxxxxxxxx |       0.6943 |       0.6943 |       0.6943 |xxxxxxxxxxxxx |xxxxxxxxxxxxx |xxxxxxxxxxxxx |xxxxxxxxxxxxx |       0.7012 |       0.7012 |       0.7012 |xxxxxxxxxxxxx |xxxxxxxxxxxxx |xxxxxxxxxxxxx |xxxxxxxxxxxxx |       0.6943 |       0.6943 |       0.6943 |xxxxxxxxxxxxx |xxxxxxxxxxxxx |xxxxxxxxxxxxx |xxxxxxxxxxxxx |       0.7017 |       0.7017 |       0.7017 |xxxxxxxxxxxxx |xxxxxxxxxxxxx |xxxxxxxxxxxxx |xxxxxxxxxxxxx |       0.7039 |       0.7039 |       0.7039 |xxxxxxxxxxxxx |xxxxxxxxxxxxx |xxxxxxxxxxxxx |xxxxxxxxxxxxx |       0.7010 |       0.7010 |       0.7010 |xxxxxxxxxxxxx |xxxxxxxxxxxxx |xxxxxxxxxxxxx |xxxxxxxxxxxxx |       0.7002 |       0.7002 |       0.7002 |xxxxxxxxxxxxx |xxxxxxxxxxxxx |xxxxxxxxxxxxx |xxxxxxxxxxxxx |       0.7016 |       0.7016 |       0.7016 |xxxxxxxxxxxxx |xxxxxxxxxxxxx |xxxxxxxxxxxxx |xxxxxxxxxxxxx |       0.7157 |       0.7157 |       0.7157 |xxxxxxxxxxxxx |xxxxxxxxxxxxx |xxxxxxxxxxxxx |xxxxxxxxxxxxx |       0.7065 |       0.7065 |       0.7065 |
bpred_bimod.bpred_jr_rate                   1.0000 |       1.0000 |       1.0000 |xxxxxxxxxxxxx |xxxxxxxxxxxxx |xxxxxxxxxxxxx |xxxxxxxxxxxxx |       1.0000 |       1.0000 |       1.0000 |xxxxxxxxxxxxx |xxxxxxxxxxxxx |xxxxxxxxxxxxx |xxxxxxxxxxxxx |       1.0000 |       1.0000 |       1.0000 |xxxxxxxxxxxxx |xxxxxxxxxxxxx |xxxxxxxxxxxxx |xxxxxxxxxxxxx |       1.0000 |       1.0000 |       1.0000 |xxxxxxxxxxxxx |xxxxxxxxxxxxx |xxxxxxxxxxxxx |xxxxxxxxxxxxx |       1.0000 |       1.0000 |       1.0000 |xxxxxxxxxxxxx |xxxxxxxxxxxxx |xxxxxxxxxxxxx |xxxxxxxxxxxxx |       1.0000 |       1.0000 |       1.0000 |xxxxxxxxxxxxx |xxxxxxxxxxxxx |xxxxxxxxxxxxx |xxxxxxxxxxxxx |       1.0000 |       1.0000 |       1.0000 |xxxxxxxxxxxxx |xxxxxxxxxxxxx |xxxxxxxxxxxxx |xxxxxxxxxxxxx |       1.0000 |       1.0000 |       1.0000 |xxxxxxxxxxxxx |xxxxxxxxxxxxx |xxxxxxxxxxxxx |xxxxxxxxxxxxx |       1.0000 |       1.0000 |       1.0000 |xxxxxxxxxxxxx |xxxxxxxxxxxxx |xxxxxxxxxxxxx |xxxxxxxxxxxxx |       1.0000 |       1.0000 |       1.0000 |xxxxxxxxxxxxx |xxxxxxxxxxxxx |xxxxxxxxxxxxx |xxxxxxxxxxxxx |       1.0000 |       1.0000 |       1.0000 |
bpred_bimod.bpred_jr_non_ras_rate.PP       <error: |      <error: |      <error: |xxxxxxxxxxxxx |xxxxxxxxxxxxx |xxxxxxxxxxxxx |xxxxxxxxxxxxx |      <error: |      <error: |      <error: |xxxxxxxxxxxxx |xxxxxxxxxxxxx |xxxxxxxxxxxxx |xxxxxxxxxxxxx |      <error: |      <error: |      <error: |xxxxxxxxxxxxx |xxxxxxxxxxxxx |xxxxxxxxxxxxx |xxxxxxxxxxxxx |      <error: |      <error: |      <error: |xxxxxxxxxxxxx |xxxxxxxxxxxxx |xxxxxxxxxxxxx |xxxxxxxxxxxxx |      <error: |      <error: |      <error: |xxxxxxxxxxxxx |xxxxxxxxxxxxx |xxxxxxxxxxxxx |xxxxxxxxxxxxx |      <error: |      <error: |      <error: |xxxxxxxxxxxxx |xxxxxxxxxxxxx |xxxxxxxxxxxxx |xxxxxxxxxxxxx |      <error: |      <error: |      <error: |xxxxxxxxxxxxx |xxxxxxxxxxxxx |xxxxxxxxxxxxx |xxxxxxxxxxxxx |      <error: |      <error: |      <error: |xxxxxxxxxxxxx |xxxxxxxxxxxxx |xxxxxxxxxxxxx |xxxxxxxxxxxxx |      <error: |      <error: |      <error: |xxxxxxxxxxxxx |xxxxxxxxxxxxx |xxxxxxxxxxxxx |xxxxxxxxxxxxx |      <error: |      <error: |      <error: |xxxxxxxxxxxxx |xxxxxxxxxxxxx |xxxxxxxxxxxxx |xxxxxxxxxxxxx |      <error: |      <error: |      <error: |
bpred_bimod.retstack_pushes                     66 |           66 |           66 |xxxxxxxxxxxxx |xxxxxxxxxxxxx |xxxxxxxxxxxxx |xxxxxxxxxxxxx |           66 |           66 |           66 |xxxxxxxxxxxxx |xxxxxxxxxxxxx |xxxxxxxxxxxxx |xxxxxxxxxxxxx |           66 |           66 |           66 |xxxxxxxxxxxxx |xxxxxxxxxxxxx |xxxxxxxxxxxxx |xxxxxxxxxxxxx |           66 |           66 |           66 |xxxxxxxxxxxxx |xxxxxxxxxxxxx |xxxxxxxxxxxxx |xxxxxxxxxxxxx |           66 |           66 |           66 |xxxxxxxxxxxxx |xxxxxxxxxxxxx |xxxxxxxxxxxxx |xxxxxxxxxxxxx |           66 |           66 |           66 |xxxxxxxxxxxxx |xxxxxxxxxxxxx |xxxxxxxxxxxxx |xxxxxxxxxxxxx |           66 |           66 |           66 |xxxxxxxxxxxxx |xxxxxxxxxxxxx |xxxxxxxxxxxxx |xxxxxxxxxxxxx |           66 |           66 |           66 |xxxxxxxxxxxxx |xxxxxxxxxxxxx |xxxxxxxxxxxxx |xxxxxxxxxxxxx |           66 |           66 |           66 |xxxxxxxxxxxxx |xxxxxxxxxxxxx |xxxxxxxxxxxxx |xxxxxxxxxxxxx |           66 |           66 |           66 |xxxxxxxxxxxxx |xxxxxxxxxxxxx |xxxxxxxxxxxxx |xxxxxxxxxxxxx |           66 |           66 |           66 |
bpred_bimod.retstack_pops                       64 |           64 |           64 |xxxxxxxxxxxxx |xxxxxxxxxxxxx |xxxxxxxxxxxxx |xxxxxxxxxxxxx |           64 |           64 |           64 |xxxxxxxxxxxxx |xxxxxxxxxxxxx |xxxxxxxxxxxxx |xxxxxxxxxxxxx |           64 |           64 |           64 |xxxxxxxxxxxxx |xxxxxxxxxxxxx |xxxxxxxxxxxxx |xxxxxxxxxxxxx |           64 |           64 |           64 |xxxxxxxxxxxxx |xxxxxxxxxxxxx |xxxxxxxxxxxxx |xxxxxxxxxxxxx |           64 |           64 |           64 |xxxxxxxxxxxxx |xxxxxxxxxxxxx |xxxxxxxxxxxxx |xxxxxxxxxxxxx |           64 |           64 |           64 |xxxxxxxxxxxxx |xxxxxxxxxxxxx |xxxxxxxxxxxxx |xxxxxxxxxxxxx |           64 |           64 |           64 |xxxxxxxxxxxxx |xxxxxxxxxxxxx |xxxxxxxxxxxxx |xxxxxxxxxxxxx |           64 |           64 |           64 |xxxxxxxxxxxxx |xxxxxxxxxxxxx |xxxxxxxxxxxxx |xxxxxxxxxxxxx |           64 |           64 |           64 |xxxxxxxxxxxxx |xxxxxxxxxxxxx |xxxxxxxxxxxxx |xxxxxxxxxxxxx |           64 |           64 |           64 |xxxxxxxxxxxxx |xxxxxxxxxxxxx |xxxxxxxxxxxxx |xxxxxxxxxxxxx |           64 |           64 |           64 |
bpred_bimod.used_ras.PP                         64 |           64 |           64 |xxxxxxxxxxxxx |xxxxxxxxxxxxx |xxxxxxxxxxxxx |xxxxxxxxxxxxx |           64 |           64 |           64 |xxxxxxxxxxxxx |xxxxxxxxxxxxx |xxxxxxxxxxxxx |xxxxxxxxxxxxx |           64 |           64 |           64 |xxxxxxxxxxxxx |xxxxxxxxxxxxx |xxxxxxxxxxxxx |xxxxxxxxxxxxx |           64 |           64 |           64 |xxxxxxxxxxxxx |xxxxxxxxxxxxx |xxxxxxxxxxxxx |xxxxxxxxxxxxx |           64 |           64 |           64 |xxxxxxxxxxxxx |xxxxxxxxxxxxx |xxxxxxxxxxxxx |xxxxxxxxxxxxx |           64 |           64 |           64 |xxxxxxxxxxxxx |xxxxxxxxxxxxx |xxxxxxxxxxxxx |xxxxxxxxxxxxx |           64 |           64 |           64 |xxxxxxxxxxxxx |xxxxxxxxxxxxx |xxxxxxxxxxxxx |xxxxxxxxxxxxx |           64 |           64 |           64 |xxxxxxxxxxxxx |xxxxxxxxxxxxx |xxxxxxxxxxxxx |xxxxxxxxxxxxx |           64 |           64 |           64 |xxxxxxxxxxxxx |xxxxxxxxxxxxx |xxxxxxxxxxxxx |xxxxxxxxxxxxx |           64 |           64 |           64 |xxxxxxxxxxxxx |xxxxxxxxxxxxx |xxxxxxxxxxxxx |xxxxxxxxxxxxx |           64 |           64 |           64 |
bpred_bimod.ras_hits.PP                         64 |           64 |           64 |xxxxxxxxxxxxx |xxxxxxxxxxxxx |xxxxxxxxxxxxx |xxxxxxxxxxxxx |           64 |           64 |           64 |xxxxxxxxxxxxx |xxxxxxxxxxxxx |xxxxxxxxxxxxx |xxxxxxxxxxxxx |           64 |           64 |           64 |xxxxxxxxxxxxx |xxxxxxxxxxxxx |xxxxxxxxxxxxx |xxxxxxxxxxxxx |           64 |           64 |           64 |xxxxxxxxxxxxx |xxxxxxxxxxxxx |xxxxxxxxxxxxx |xxxxxxxxxxxxx |           64 |           64 |           64 |xxxxxxxxxxxxx |xxxxxxxxxxxxx |xxxxxxxxxxxxx |xxxxxxxxxxxxx |           64 |           64 |           64 |xxxxxxxxxxxxx |xxxxxxxxxxxxx |xxxxxxxxxxxxx |xxxxxxxxxxxxx |           64 |           64 |           64 |xxxxxxxxxxxxx |xxxxxxxxxxxxx |xxxxxxxxxxxxx |xxxxxxxxxxxxx |           64 |           64 |           64 |xxxxxxxxxxxxx |xxxxxxxxxxxxx |xxxxxxxxxxxxx |xxxxxxxxxxxxx |           64 |           64 |           64 |xxxxxxxxxxxxx |xxxxxxxxxxxxx |xxxxxxxxxxxxx |xxxxxxxxxxxxx |           64 |           64 |           64 |xxxxxxxxxxxxx |xxxxxxxxxxxxx |xxxxxxxxxxxxx |xxxxxxxxxxxxx |           64 |           64 |           64 |
bpred_bimod.ras_rate.PP                     1.0000 |       1.0000 |       1.0000 |xxxxxxxxxxxxx |xxxxxxxxxxxxx |xxxxxxxxxxxxx |xxxxxxxxxxxxx |       1.0000 |       1.0000 |       1.0000 |xxxxxxxxxxxxx |xxxxxxxxxxxxx |xxxxxxxxxxxxx |xxxxxxxxxxxxx |       1.0000 |       1.0000 |       1.0000 |xxxxxxxxxxxxx |xxxxxxxxxxxxx |xxxxxxxxxxxxx |xxxxxxxxxxxxx |       1.0000 |       1.0000 |       1.0000 |xxxxxxxxxxxxx |xxxxxxxxxxxxx |xxxxxxxxxxxxx |xxxxxxxxxxxxx |       1.0000 |       1.0000 |       1.0000 |xxxxxxxxxxxxx |xxxxxxxxxxxxx |xxxxxxxxxxxxx |xxxxxxxxxxxxx |       1.0000 |       1.0000 |       1.0000 |xxxxxxxxxxxxx |xxxxxxxxxxxxx |xxxxxxxxxxxxx |xxxxxxxxxxxxx |       1.0000 |       1.0000 |       1.0000 |xxxxxxxxxxxxx |xxxxxxxxxxxxx |xxxxxxxxxxxxx |xxxxxxxxxxxxx |       1.0000 |       1.0000 |       1.0000 |xxxxxxxxxxxxx |xxxxxxxxxxxxx |xxxxxxxxxxxxx |xxxxxxxxxxxxx |       1.0000 |       1.0000 |       1.0000 |xxxxxxxxxxxxx |xxxxxxxxxxxxx |xxxxxxxxxxxxx |xxxxxxxxxxxxx |       1.0000 |       1.0000 |       1.0000 |xxxxxxxxxxxxx |xxxxxxxxxxxxx |xxxxxxxxxxxxx |xxxxxxxxxxxxx |       1.0000 |       1.0000 |       1.0000 |
bpred_2lev.lookups                   xxxxxxxxxxxxx |xxxxxxxxxxxxx |xxxxxxxxxxxxx |        74958 |        74958 |        74958 |        74958 |xxxxxxxxxxxxx |xxxxxxxxxxxxx |xxxxxxxxxxxxx |       163025 |       163025 |       163025 |       163025 |xxxxxxxxxxxxx |xxxxxxxxxxxxx |xxxxxxxxxxxxx |       353638 |       353638 |       353638 |       353638 |xxxxxxxxxxxxx |xxxxxxxxxxxxx |xxxxxxxxxxxxx |       749381 |       749381 |       749381 |       749381 |xxxxxxxxxxxxx |xxxxxxxxxxxxx |xxxxxxxxxxxxx |      1608804 |      1608804 |      1608804 |      1608804 |xxxxxxxxxxxxx |xxxxxxxxxxxxx |xxxxxxxxxxxxx |      3441412 |      3441412 |      3441412 |      3441412 |xxxxxxxxxxxxx |xxxxxxxxxxxxx |xxxxxxxxxxxxx |      7252925 |      7252925 |      7252925 |      7252925 |xxxxxxxxxxxxx |xxxxxxxxxxxxx |xxxxxxxxxxxxx |     15328044 |     15328044 |     15328044 |     15328044 |xxxxxxxxxxxxx |xxxxxxxxxxxxx |xxxxxxxxxxxxx |     32305103 |     32305103 |     32305103 |     32305103 |xxxxxxxxxxxxx |xxxxxxxxxxxxx |xxxxxxxxxxxxx |     69024413 |     69024413 |     69024413 |     69024413 |xxxxxxxxxxxxx |xxxxxxxxxxxxx |xxxxxxxxxxxxx |    143533383 |    143533383 |    143533383 |    143533383 |
[...]
bpred_2lev.retstack_pushes           xxxxxxxxxxxxx |xxxxxxxxxxxxx |xxxxxxxxxxxxx |           66 |           66 |           66 |           66 |xxxxxxxxxxxxx |xxxxxxxxxxxxx |xxxxxxxxxxxxx |           66 |           66 |           66 |           66 |xxxxxxxxxxxxx |xxxxxxxxxxxxx |xxxxxxxxxxxxx |           66 |           66 |           66 |           66 |xxxxxxxxxxxxx |xxxxxxxxxxxxx |xxxxxxxxxxxxx |           66 |           66 |           66 |           66 |xxxxxxxxxxxxx |xxxxxxxxxxxxx |xxxxxxxxxxxxx |           66 |           66 |           66 |           66 |xxxxxxxxxxxxx |xxxxxxxxxxxxx |xxxxxxxxxxxxx |           66 |           66 |           66 |           66 |xxxxxxxxxxxxx |xxxxxxxxxxxxx |xxxxxxxxxxxxx |           66 |           66 |           66 |           66 |xxxxxxxxxxxxx |xxxxxxxxxxxxx |xxxxxxxxxxxxx |           66 |           66 |           66 |           66 |xxxxxxxxxxxxx |xxxxxxxxxxxxx |xxxxxxxxxxxxx |           66 |           66 |           66 |           66 |xxxxxxxxxxxxx |xxxxxxxxxxxxx |xxxxxxxxxxxxx |           66 |           66 |           66 |           66 |xxxxxxxxxxxxx |xxxxxxxxxxxxx |xxxxxxxxxxxxx |           66 |           66 |           66 |           66 |
bpred_2lev.retstack_pops             xxxxxxxxxxxxx |xxxxxxxxxxxxx |xxxxxxxxxxxxx |           64 |           64 |           64 |           64 |xxxxxxxxxxxxx |xxxxxxxxxxxxx |xxxxxxxxxxxxx |           64 |           64 |           64 |           64 |xxxxxxxxxxxxx |xxxxxxxxxxxxx |xxxxxxxxxxxxx |           64 |           64 |           64 |           64 |xxxxxxxxxxxxx |xxxxxxxxxxxxx |xxxxxxxxxxxxx |           64 |           64 |           64 |           64 |xxxxxxxxxxxxx |xxxxxxxxxxxxx |xxxxxxxxxxxxx |           64 |           64 |           64 |           64 |xxxxxxxxxxxxx |xxxxxxxxxxxxx |xxxxxxxxxxxxx |           64 |           64 |           64 |           64 |xxxxxxxxxxxxx |xxxxxxxxxxxxx |xxxxxxxxxxxxx |           64 |           64 |           64 |           64 |xxxxxxxxxxxxx |xxxxxxxxxxxxx |xxxxxxxxxxxxx |           64 |           64 |           64 |           64 |xxxxxxxxxxxxx |xxxxxxxxxxxxx |xxxxxxxxxxxxx |           64 |           64 |           64 |           64 |xxxxxxxxxxxxx |xxxxxxxxxxxxx |xxxxxxxxxxxxx |           64 |           64 |           64 |           64 |xxxxxxxxxxxxx |xxxxxxxxxxxxx |xxxxxxxxxxxxx |           64 |           64 |           64 |           64 |
bpred_2lev.used_ras.PP               xxxxxxxxxxxxx |xxxxxxxxxxxxx |xxxxxxxxxxxxx |           64 |           64 |           64 |           64 |xxxxxxxxxxxxx |xxxxxxxxxxxxx |xxxxxxxxxxxxx |           64 |           64 |           64 |           64 |xxxxxxxxxxxxx |xxxxxxxxxxxxx |xxxxxxxxxxxxx |           64 |           64 |           64 |           64 |xxxxxxxxxxxxx |xxxxxxxxxxxxx |xxxxxxxxxxxxx |           64 |           64 |           64 |           64 |xxxxxxxxxxxxx |xxxxxxxxxxxxx |xxxxxxxxxxxxx |           64 |           64 |           64 |           64 |xxxxxxxxxxxxx |xxxxxxxxxxxxx |xxxxxxxxxxxxx |           64 |           64 |           64 |           64 |xxxxxxxxxxxxx |xxxxxxxxxxxxx |xxxxxxxxxxxxx |           64 |           64 |           64 |           64 |xxxxxxxxxxxxx |xxxxxxxxxxxxx |xxxxxxxxxxxxx |           64 |           64 |           64 |           64 |xxxxxxxxxxxxx |xxxxxxxxxxxxx |xxxxxxxxxxxxx |           64 |           64 |           64 |           64 |xxxxxxxxxxxxx |xxxxxxxxxxxxx |xxxxxxxxxxxxx |           64 |           64 |           64 |           64 |xxxxxxxxxxxxx |xxxxxxxxxxxxx |xxxxxxxxxxxxx |           64 |           64 |           64 |           64 |
bpred_2lev.ras_hits.PP               xxxxxxxxxxxxx |xxxxxxxxxxxxx |xxxxxxxxxxxxx |           64 |           64 |           64 |           64 |xxxxxxxxxxxxx |xxxxxxxxxxxxx |xxxxxxxxxxxxx |           64 |           64 |           64 |           64 |xxxxxxxxxxxxx |xxxxxxxxxxxxx |xxxxxxxxxxxxx |           64 |           64 |           64 |           64 |xxxxxxxxxxxxx |xxxxxxxxxxxxx |xxxxxxxxxxxxx |           64 |           64 |           64 |           64 |xxxxxxxxxxxxx |xxxxxxxxxxxxx |xxxxxxxxxxxxx |           64 |           64 |           64 |           64 |xxxxxxxxxxxxx |xxxxxxxxxxxxx |xxxxxxxxxxxxx |           64 |           64 |           64 |           64 |xxxxxxxxxxxxx |xxxxxxxxxxxxx |xxxxxxxxxxxxx |           64 |           64 |           64 |           64 |xxxxxxxxxxxxx |xxxxxxxxxxxxx |xxxxxxxxxxxxx |           64 |           64 |           64 |           64 |xxxxxxxxxxxxx |xxxxxxxxxxxxx |xxxxxxxxxxxxx |           64 |           64 |           64 |           64 |xxxxxxxxxxxxx |xxxxxxxxxxxxx |xxxxxxxxxxxxx |           64 |           64 |           64 |           64 |xxxxxxxxxxxxx |xxxxxxxxxxxxx |xxxxxxxxxxxxx |           64 |           64 |           64 |           64 |
bpred_2lev.ras_rate.PP               xxxxxxxxxxxxx |xxxxxxxxxxxxx |xxxxxxxxxxxxx |       1.0000 |       1.0000 |       1.0000 |       1.0000 |xxxxxxxxxxxxx |xxxxxxxxxxxxx |xxxxxxxxxxxxx |       1.0000 |       1.0000 |       1.0000 |       1.0000 |xxxxxxxxxxxxx |xxxxxxxxxxxxx |xxxxxxxxxxxxx |       1.0000 |       1.0000 |       1.0000 |       1.0000 |xxxxxxxxxxxxx |xxxxxxxxxxxxx |xxxxxxxxxxxxx |       1.0000 |       1.0000 |       1.0000 |       1.0000 |xxxxxxxxxxxxx |xxxxxxxxxxxxx |xxxxxxxxxxxxx |       1.0000 |       1.0000 |       1.0000 |       1.0000 |xxxxxxxxxxxxx |xxxxxxxxxxxxx |xxxxxxxxxxxxx |       1.0000 |       1.0000 |       1.0000 |       1.0000 |xxxxxxxxxxxxx |xxxxxxxxxxxxx |xxxxxxxxxxxxx |       1.0000 |       1.0000 |       1.0000 |       1.0000 |xxxxxxxxxxxxx |xxxxxxxxxxxxx |xxxxxxxxxxxxx |       1.0000 |       1.0000 |       1.0000 |       1.0000 |xxxxxxxxxxxxx |xxxxxxxxxxxxx |xxxxxxxxxxxxx |       1.0000 |       1.0000 |       1.0000 |       1.0000 |xxxxxxxxxxxxx |xxxxxxxxxxxxx |xxxxxxxxxxxxx |       1.0000 |       1.0000 |       1.0000 |       1.0000 |xxxxxxxxxxxxx |xxxxxxxxxxxxx |xxxxxxxxxxxxx |       1.0000 |       1.0000 |       1.0000 |       1.0000 |

Command list: 
	sslittle-na-sstrix-gcc -Wall -O3 -funroll-loops -finline-functions  -DRANDOM_SIZE=4096 -DOFFSET=1 -DSORT=base_quicksort7 sorts/base_quicksort7788154295.c simpleMain.c -o base_quicksort7149999628
	sim-cache -cache:dl1 dl1:256:32:1:l -cache:dl2 dl2:131072:32:1:l -cache:il1 il1:256:32:1:l -cache:il2 dl2 base_quicksort7149999628
	sim-cache -cache:dl1 dl1:256:32:1:l -cache:dl2 dl2:65536:32:1:l -cache:il1 il1:256:32:1:l -cache:il2 dl2 base_quicksort7149999628
	sim-cache -cache:dl1 dl1:1:32:256:l -cache:dl2 dl2:1:32:131072:l -cache:il1 il1:1:32:256:l -cache:il2 dl2 base_quicksort7149999628
	sim-cache -cache:dl1 dl1:1:32:256:l -cache:dl2 dl2:1:32:65536:l -cache:il1 il1:1:32:256:l -cache:il2 dl2 base_quicksort7149999628
	sim-bpred -bpred bimod -bpred:bimod 512 base_quicksort7149999628
	sim-bpred -bpred bimod -bpred:bimod 1024 base_quicksort7149999628
	sim-bpred -bpred bimod -bpred:bimod 2048 base_quicksort7149999628
	sim-bpred -bpred 2lev -bpred:2lev 1 512 10 1 base_quicksort7149999628
	sim-bpred -bpred 2lev -bpred:2lev 1 1024 10 1 base_quicksort7149999628
	sim-bpred -bpred 2lev -bpred:2lev 1 2048 10 1 base_quicksort7149999628
	sim-bpred -bpred 2lev -bpred:2lev 1 4096 10 1 base_quicksort7149999628
	sslittle-na-sstrix-gcc -Wall -O3 -funroll-loops -finline-functions  -DRANDOM_SIZE=8192 -DOFFSET=1 -DSORT=base_quicksort7 sorts/base_quicksort7788154295.c simpleMain.c -o base_quicksort7149999628
	sim-cache -cache:dl1 dl1:256:32:1:l -cache:dl2 dl2:131072:32:1:l -cache:il1 il1:256:32:1:l -cache:il2 dl2 base_quicksort7149999628
	sim-cache -cache:dl1 dl1:256:32:1:l -cache:dl2 dl2:65536:32:1:l -cache:il1 il1:256:32:1:l -cache:il2 dl2 base_quicksort7149999628
	sim-cache -cache:dl1 dl1:1:32:256:l -cache:dl2 dl2:1:32:131072:l -cache:il1 il1:1:32:256:l -cache:il2 dl2 base_quicksort7149999628
	sim-cache -cache:dl1 dl1:1:32:256:l -cache:dl2 dl2:1:32:65536:l -cache:il1 il1:1:32:256:l -cache:il2 dl2 base_quicksort7149999628
	sim-bpred -bpred bimod -bpred:bimod 512 base_quicksort7149999628
	sim-bpred -bpred bimod -bpred:bimod 1024 base_quicksort7149999628
	sim-bpred -bpred bimod -bpred:bimod 2048 base_quicksort7149999628
	sim-bpred -bpred 2lev -bpred:2lev 1 512 10 1 base_quicksort7149999628
	sim-bpred -bpred 2lev -bpred:2lev 1 1024 10 1 base_quicksort7149999628
	sim-bpred -bpred 2lev -bpred:2lev 1 2048 10 1 base_quicksort7149999628
	sim-bpred -bpred 2lev -bpred:2lev 1 4096 10 1 base_quicksort7149999628
	sslittle-na-sstrix-gcc -Wall -O3 -funroll-loops -finline-functions  -DRANDOM_SIZE=16384 -DOFFSET=1 -DSORT=base_quicksort7 sorts/base_quicksort7788154295.c simpleMain.c -o base_quicksort7149999628
	sim-cache -cache:dl1 dl1:256:32:1:l -cache:dl2 dl2:131072:32:1:l -cache:il1 il1:256:32:1:l -cache:il2 dl2 base_quicksort7149999628
	sim-cache -cache:dl1 dl1:256:32:1:l -cache:dl2 dl2:65536:32:1:l -cache:il1 il1:256:32:1:l -cache:il2 dl2 base_quicksort7149999628
	sim-cache -cache:dl1 dl1:1:32:256:l -cache:dl2 dl2:1:32:131072:l -cache:il1 il1:1:32:256:l -cache:il2 dl2 base_quicksort7149999628
	sim-cache -cache:dl1 dl1:1:32:256:l -cache:dl2 dl2:1:32:65536:l -cache:il1 il1:1:32:256:l -cache:il2 dl2 base_quicksort7149999628
	sim-bpred -bpred bimod -bpred:bimod 512 base_quicksort7149999628
	sim-bpred -bpred bimod -bpred:bimod 1024 base_quicksort7149999628
	sim-bpred -bpred bimod -bpred:bimod 2048 base_quicksort7149999628
	sim-bpred -bpred 2lev -bpred:2lev 1 512 10 1 base_quicksort7149999628
	sim-bpred -bpred 2lev -bpred:2lev 1 1024 10 1 base_quicksort7149999628
	sim-bpred -bpred 2lev -bpred:2lev 1 2048 10 1 base_quicksort7149999628
	sim-bpred -bpred 2lev -bpred:2lev 1 4096 10 1 base_quicksort7149999628
	sslittle-na-sstrix-gcc -Wall -O3 -funroll-loops -finline-functions  -DRANDOM_SIZE=32768 -DOFFSET=1 -DSORT=base_quicksort7 sorts/base_quicksort7788154295.c simpleMain.c -o base_quicksort7149999628
	sim-cache -cache:dl1 dl1:256:32:1:l -cache:dl2 dl2:131072:32:1:l -cache:il1 il1:256:32:1:l -cache:il2 dl2 base_quicksort7149999628
	sim-cache -cache:dl1 dl1:256:32:1:l -cache:dl2 dl2:65536:32:1:l -cache:il1 il1:256:32:1:l -cache:il2 dl2 base_quicksort7149999628
	sim-cache -cache:dl1 dl1:1:32:256:l -cache:dl2 dl2:1:32:131072:l -cache:il1 il1:1:32:256:l -cache:il2 dl2 base_quicksort7149999628
	sim-cache -cache:dl1 dl1:1:32:256:l -cache:dl2 dl2:1:32:65536:l -cache:il1 il1:1:32:256:l -cache:il2 dl2 base_quicksort7149999628
	sim-bpred -bpred bimod -bpred:bimod 512 base_quicksort7149999628
	sim-bpred -bpred bimod -bpred:bimod 1024 base_quicksort7149999628
	sim-bpred -bpred bimod -bpred:bimod 2048 base_quicksort7149999628
	sim-bpred -bpred 2lev -bpred:2lev 1 512 10 1 base_quicksort7149999628
	sim-bpred -bpred 2lev -bpred:2lev 1 1024 10 1 base_quicksort7149999628
	sim-bpred -bpred 2lev -bpred:2lev 1 2048 10 1 base_quicksort7149999628
	sim-bpred -bpred 2lev -bpred:2lev 1 4096 10 1 base_quicksort7149999628
	sslittle-na-sstrix-gcc -Wall -O3 -funroll-loops -finline-functions  -DRANDOM_SIZE=65536 -DOFFSET=1 -DSORT=base_quicksort7 sorts/base_quicksort7788154295.c simpleMain.c -o base_quicksort7149999628
	sim-cache -cache:dl1 dl1:256:32:1:l -cache:dl2 dl2:131072:32:1:l -cache:il1 il1:256:32:1:l -cache:il2 dl2 base_quicksort7149999628
	sim-cache -cache:dl1 dl1:256:32:1:l -cache:dl2 dl2:65536:32:1:l -cache:il1 il1:256:32:1:l -cache:il2 dl2 base_quicksort7149999628
	sim-cache -cache:dl1 dl1:1:32:256:l -cache:dl2 dl2:1:32:131072:l -cache:il1 il1:1:32:256:l -cache:il2 dl2 base_quicksort7149999628
	sim-cache -cache:dl1 dl1:1:32:256:l -cache:dl2 dl2:1:32:65536:l -cache:il1 il1:1:32:256:l -cache:il2 dl2 base_quicksort7149999628
	sim-bpred -bpred bimod -bpred:bimod 512 base_quicksort7149999628
	sim-bpred -bpred bimod -bpred:bimod 1024 base_quicksort7149999628
	sim-bpred -bpred bimod -bpred:bimod 2048 base_quicksort7149999628
	sim-bpred -bpred 2lev -bpred:2lev 1 512 10 1 base_quicksort7149999628
	sim-bpred -bpred 2lev -bpred:2lev 1 1024 10 1 base_quicksort7149999628
	sim-bpred -bpred 2lev -bpred:2lev 1 2048 10 1 base_quicksort7149999628
	sim-bpred -bpred 2lev -bpred:2lev 1 4096 10 1 base_quicksort7149999628
	sslittle-na-sstrix-gcc -Wall -O3 -funroll-loops -finline-functions  -DRANDOM_SIZE=131072 -DOFFSET=1 -DSORT=base_quicksort7 sorts/base_quicksort7788154295.c simpleMain.c -o base_quicksort7149999628
	sim-cache -cache:dl1 dl1:256:32:1:l -cache:dl2 dl2:131072:32:1:l -cache:il1 il1:256:32:1:l -cache:il2 dl2 base_quicksort7149999628
	sim-cache -cache:dl1 dl1:256:32:1:l -cache:dl2 dl2:65536:32:1:l -cache:il1 il1:256:32:1:l -cache:il2 dl2 base_quicksort7149999628
	sim-cache -cache:dl1 dl1:1:32:256:l -cache:dl2 dl2:1:32:131072:l -cache:il1 il1:1:32:256:l -cache:il2 dl2 base_quicksort7149999628
	sim-cache -cache:dl1 dl1:1:32:256:l -cache:dl2 dl2:1:32:65536:l -cache:il1 il1:1:32:256:l -cache:il2 dl2 base_quicksort7149999628
	sim-bpred -bpred bimod -bpred:bimod 512 base_quicksort7149999628
	sim-bpred -bpred bimod -bpred:bimod 1024 base_quicksort7149999628
	sim-bpred -bpred bimod -bpred:bimod 2048 base_quicksort7149999628
	sim-bpred -bpred 2lev -bpred:2lev 1 512 10 1 base_quicksort7149999628
	sim-bpred -bpred 2lev -bpred:2lev 1 1024 10 1 base_quicksort7149999628
	sim-bpred -bpred 2lev -bpred:2lev 1 2048 10 1 base_quicksort7149999628
	sim-bpred -bpred 2lev -bpred:2lev 1 4096 10 1 base_quicksort7149999628
	sslittle-na-sstrix-gcc -Wall -O3 -funroll-loops -finline-functions  -DRANDOM_SIZE=262144 -DOFFSET=1 -DSORT=base_quicksort7 sorts/base_quicksort7788154295.c simpleMain.c -o base_quicksort7149999628
	sim-cache -cache:dl1 dl1:256:32:1:l -cache:dl2 dl2:131072:32:1:l -cache:il1 il1:256:32:1:l -cache:il2 dl2 base_quicksort7149999628
	sim-cache -cache:dl1 dl1:256:32:1:l -cache:dl2 dl2:65536:32:1:l -cache:il1 il1:256:32:1:l -cache:il2 dl2 base_quicksort7149999628
	sim-cache -cache:dl1 dl1:1:32:256:l -cache:dl2 dl2:1:32:131072:l -cache:il1 il1:1:32:256:l -cache:il2 dl2 base_quicksort7149999628
	sim-cache -cache:dl1 dl1:1:32:256:l -cache:dl2 dl2:1:32:65536:l -cache:il1 il1:1:32:256:l -cache:il2 dl2 base_quicksort7149999628
	sim-bpred -bpred bimod -bpred:bimod 512 base_quicksort7149999628
	sim-bpred -bpred bimod -bpred:bimod 1024 base_quicksort7149999628
	sim-bpred -bpred bimod -bpred:bimod 2048 base_quicksort7149999628
	sim-bpred -bpred 2lev -bpred:2lev 1 512 10 1 base_quicksort7149999628
	sim-bpred -bpred 2lev -bpred:2lev 1 1024 10 1 base_quicksort7149999628
	sim-bpred -bpred 2lev -bpred:2lev 1 2048 10 1 base_quicksort7149999628
	sim-bpred -bpred 2lev -bpred:2lev 1 4096 10 1 base_quicksort7149999628
	sslittle-na-sstrix-gcc -Wall -O3 -funroll-loops -finline-functions  -DRANDOM_SIZE=524288 -DOFFSET=1 -DSORT=base_quicksort7 sorts/base_quicksort7788154295.c simpleMain.c -o base_quicksort7149999628
	sim-cache -cache:dl1 dl1:256:32:1:l -cache:dl2 dl2:131072:32:1:l -cache:il1 il1:256:32:1:l -cache:il2 dl2 base_quicksort7149999628
	sim-cache -cache:dl1 dl1:256:32:1:l -cache:dl2 dl2:65536:32:1:l -cache:il1 il1:256:32:1:l -cache:il2 dl2 base_quicksort7149999628
	sim-cache -cache:dl1 dl1:1:32:256:l -cache:dl2 dl2:1:32:131072:l -cache:il1 il1:1:32:256:l -cache:il2 dl2 base_quicksort7149999628
	sim-cache -cache:dl1 dl1:1:32:256:l -cache:dl2 dl2:1:32:65536:l -cache:il1 il1:1:32:256:l -cache:il2 dl2 base_quicksort7149999628
	sim-bpred -bpred bimod -bpred:bimod 512 base_quicksort7149999628
	sim-bpred -bpred bimod -bpred:bimod 1024 base_quicksort7149999628
	sim-bpred -bpred bimod -bpred:bimod 2048 base_quicksort7149999628
	sim-bpred -bpred 2lev -bpred:2lev 1 512 10 1 base_quicksort7149999628
	sim-bpred -bpred 2lev -bpred:2lev 1 1024 10 1 base_quicksort7149999628
	sim-bpred -bpred 2lev -bpred:2lev 1 2048 10 1 base_quicksort7149999628
	sim-bpred -bpred 2lev -bpred:2lev 1 4096 10 1 base_quicksort7149999628
	sslittle-na-sstrix-gcc -Wall -O3 -funroll-loops -finline-functions  -DRANDOM_SIZE=1048576 -DOFFSET=1 -DSORT=base_quicksort7 sorts/base_quicksort7788154295.c simpleMain.c -o base_quicksort7149999628
	sim-cache -cache:dl1 dl1:256:32:1:l -cache:dl2 dl2:131072:32:1:l -cache:il1 il1:256:32:1:l -cache:il2 dl2 base_quicksort7149999628
	sim-cache -cache:dl1 dl1:256:32:1:l -cache:dl2 dl2:65536:32:1:l -cache:il1 il1:256:32:1:l -cache:il2 dl2 base_quicksort7149999628
	sim-cache -cache:dl1 dl1:1:32:256:l -cache:dl2 dl2:1:32:131072:l -cache:il1 il1:1:32:256:l -cache:il2 dl2 base_quicksort7149999628
	sim-cache -cache:dl1 dl1:1:32:256:l -cache:dl2 dl2:1:32:65536:l -cache:il1 il1:1:32:256:l -cache:il2 dl2 base_quicksort7149999628
	sim-bpred -bpred bimod -bpred:bimod 512 base_quicksort7149999628
	sim-bpred -bpred bimod -bpred:bimod 1024 base_quicksort7149999628
	sim-bpred -bpred bimod -bpred:bimod 2048 base_quicksort7149999628
	sim-bpred -bpred 2lev -bpred:2lev 1 512 10 1 base_quicksort7149999628
	sim-bpred -bpred 2lev -bpred:2lev 1 1024 10 1 base_quicksort7149999628
	sim-bpred -bpred 2lev -bpred:2lev 1 2048 10 1 base_quicksort7149999628
	sim-bpred -bpred 2lev -bpred:2lev 1 4096 10 1 base_quicksort7149999628
	sslittle-na-sstrix-gcc -Wall -O3 -funroll-loops -finline-functions  -DRANDOM_SIZE=2097152 -DOFFSET=1 -DSORT=base_quicksort7 sorts/base_quicksort7788154295.c simpleMain.c -o base_quicksort7149999628
	sim-cache -cache:dl1 dl1:256:32:1:l -cache:dl2 dl2:131072:32:1:l -cache:il1 il1:256:32:1:l -cache:il2 dl2 base_quicksort7149999628
	sim-cache -cache:dl1 dl1:256:32:1:l -cache:dl2 dl2:65536:32:1:l -cache:il1 il1:256:32:1:l -cache:il2 dl2 base_quicksort7149999628
	sim-cache -cache:dl1 dl1:1:32:256:l -cache:dl2 dl2:1:32:131072:l -cache:il1 il1:1:32:256:l -cache:il2 dl2 base_quicksort7149999628
	sim-cache -cache:dl1 dl1:1:32:256:l -cache:dl2 dl2:1:32:65536:l -cache:il1 il1:1:32:256:l -cache:il2 dl2 base_quicksort7149999628
	sim-bpred -bpred bimod -bpred:bimod 512 base_quicksort7149999628
	sim-bpred -bpred bimod -bpred:bimod 1024 base_quicksort7149999628
	sim-bpred -bpred bimod -bpred:bimod 2048 base_quicksort7149999628
	sim-bpred -bpred 2lev -bpred:2lev 1 512 10 1 base_quicksort7149999628
	sim-bpred -bpred 2lev -bpred:2lev 1 1024 10 1 base_quicksort7149999628
	sim-bpred -bpred 2lev -bpred:2lev 1 2048 10 1 base_quicksort7149999628
	sim-bpred -bpred 2lev -bpred:2lev 1 4096 10 1 base_quicksort7149999628
	sslittle-na-sstrix-gcc -Wall -O3 -funroll-loops -finline-functions  -DRANDOM_SIZE=4194304 -DOFFSET=1 -DSORT=base_quicksort7 sorts/base_quicksort7788154295.c simpleMain.c -o base_quicksort7149999628
	sim-cache -cache:dl1 dl1:256:32:1:l -cache:dl2 dl2:131072:32:1:l -cache:il1 il1:256:32:1:l -cache:il2 dl2 base_quicksort7149999628
	sim-cache -cache:dl1 dl1:256:32:1:l -cache:dl2 dl2:65536:32:1:l -cache:il1 il1:256:32:1:l -cache:il2 dl2 base_quicksort7149999628
	sim-cache -cache:dl1 dl1:1:32:256:l -cache:dl2 dl2:1:32:131072:l -cache:il1 il1:1:32:256:l -cache:il2 dl2 base_quicksort7149999628
	sim-cache -cache:dl1 dl1:1:32:256:l -cache:dl2 dl2:1:32:65536:l -cache:il1 il1:1:32:256:l -cache:il2 dl2 base_quicksort7149999628
	sim-bpred -bpred bimod -bpred:bimod 512 base_quicksort7149999628
	sim-bpred -bpred bimod -bpred:bimod 1024 base_quicksort7149999628
	sim-bpred -bpred bimod -bpred:bimod 2048 base_quicksort7149999628
	sim-bpred -bpred 2lev -bpred:2lev 1 512 10 1 base_quicksort7149999628
	sim-bpred -bpred 2lev -bpred:2lev 1 1024 10 1 base_quicksort7149999628
	sim-bpred -bpred 2lev -bpred:2lev 1 2048 10 1 base_quicksort7149999628
	sim-bpred -bpred 2lev -bpred:2lev 1 4096 10 1 base_quicksort7149999628
