Sat Jul 30 03:32:32 2005
Run as: "./do_simple -c random.org8 -o 8 base_quicksort1"
-------------------------------------------------------------------------------------------------
sim-cache                                     4096 |         4096 |         4096 |         4096 |         8192 |         8192 |         8192 |         8192 |        16384 |        16384 |        16384 |        16384 |        32768 |        32768 |        32768 |        32768 |        65536 |        65536 |        65536 |        65536 |       131072 |       131072 |       131072 |       131072 |       262144 |       262144 |       262144 |       262144 |       524288 |       524288 |       524288 |       524288 |      1048576 |      1048576 |      1048576 |      1048576 |      2097152 |      2097152 |      2097152 |      2097152 |      4194304 |      4194304 |      4194304 |      4194304 |
-cache:dl1 dl1:256:32:1:l -cache:dl2 dl2:131072:32:1:l -cache:il1 il1:256:32:1:l -cache:il2 dl2
-cache:dl1 dl1:256:32:1:l -cache:dl2 dl2:65536:32:1:l -cache:il1 il1:256:32:1:l -cache:il2 dl2
-cache:dl1 dl1:1:32:256:l -cache:dl2 dl2:1:32:131072:l -cache:il1 il1:1:32:256:l -cache:il2 dl2
-cache:dl1 dl1:1:32:256:l -cache:dl2 dl2:1:32:65536:l -cache:il1 il1:1:32:256:l -cache:il2 dl2
-------------------------------------------------------------------------------------------------
sim_num_insn                                498053 |       498053 |       498053 |       498053 |      1080796 |      1080796 |      1080796 |      1080796 |      2286494 |      2286494 |      2286494 |      2286494 |      5065432 |      5065432 |      5065432 |      5065432 |     10622282 |     10622282 |     10622282 |     10622282 |     23560537 |     23560537 |     23560537 |     23560537 |     49222844 |     49222844 |     49222844 |     49222844 |    105451411 |    105451411 |    105451411 |    105451411 |    212679967 |    212679967 |    212679967 |    212679967 |    457562276 |    457562276 |    457562276 |    457562276 |    936339516 |    936339516 |    936339516 |    936339516 |
sim_num_refs                                128394 |       128394 |       128394 |       128394 |       272436 |       272436 |       272436 |       272436 |       572238 |       572238 |       572238 |       572238 |      1238758 |      1238758 |      1238758 |      1238758 |      2601691 |      2601691 |      2601691 |      2601691 |      5628875 |      5628875 |      5628875 |      5628875 |     11740892 |     11740892 |     11740892 |     11740892 |     24951380 |     24951380 |     24951380 |     24951380 |     51026365 |     51026365 |     51026365 |     51026365 |    108378858 |    108378858 |    108378858 |    108378858 |    223499207 |    223499207 |    223499207 |    223499207 |
sim_elapsed_time                                 1 |            1 |            7 |            3 |            1 |            1 |            9 |            5 |            1 |            1 |           15 |            8 |            1 |            2 |           26 |           14 |            3 |            3 |           48 |           25 |            7 |            6 |           89 |           45 |           13 |           13 |          165 |           78 |           28 |           27 |          285 |          113 |           56 |           56 |          396 |          144 |          120 |          120 |          465 |          211 |          245 |          245 |          598 |          348 |
sim_inst_rate                          498053.0000 |  498053.0000 |   71150.4286 |  166017.6667 | 1080796.0000 | 1080796.0000 |  120088.4444 |  216159.2000 | 2286494.0000 | 2286494.0000 |  152432.9333 |  285811.7500 | 5065432.0000 | 2532716.0000 |  194824.3077 |  361816.5714 | 3540760.6667 | 3540760.6667 |  221297.5417 |  424891.2800 | 3365791.0000 | 3926756.1667 |  264725.1348 |  523567.4889 | 3786372.6154 | 3786372.6154 |  298320.2667 |  631062.1026 | 3766121.8214 | 3905607.8148 |  370004.9509 |  933198.3274 | 3797856.5536 | 3797856.5536 |  537070.6237 | 1476944.2153 | 3813018.9667 | 3813018.9667 |  984004.8946 | 2168541.5924 | 3821793.9429 | 3821793.9429 | 1565785.1438 | 2690630.7931 |
il1.accesses                                498053 |       498053 |       498053 |       498053 |      1080796 |      1080796 |      1080796 |      1080796 |      2286494 |      2286494 |      2286494 |      2286494 |      5065432 |      5065432 |      5065432 |      5065432 |     10622282 |     10622282 |     10622282 |     10622282 |     23560537 |     23560537 |     23560537 |     23560537 |     49222844 |     49222844 |     49222844 |     49222844 |    105451411 |    105451411 |    105451411 |    105451411 |    212679967 |    212679967 |    212679967 |    212679967 |    457562276 |    457562276 |    457562276 |    457562276 |    936339516 |    936339516 |    936339516 |    936339516 |
il1.hits                                    497615 |       497615 |       497656 |       497656 |      1080359 |      1080359 |      1080397 |      1080397 |      2286047 |      2286047 |      2286091 |      2286091 |      5064994 |      5064994 |      5065032 |      5065032 |     10621844 |     10621844 |     10621882 |     10621882 |     23560100 |     23560100 |     23560138 |     23560138 |     49222407 |     49222407 |     49222445 |     49222445 |    105450974 |    105450974 |    105451012 |    105451012 |    212679530 |    212679530 |    212679568 |    212679568 |    457561839 |    457561839 |    457561877 |    457561877 |    936339079 |    936339079 |    936339117 |    936339117 |
il1.misses                                     438 |          438 |          397 |          397 |          437 |          437 |          399 |          399 |          447 |          447 |          403 |          403 |          438 |          438 |          400 |          400 |          438 |          438 |          400 |          400 |          437 |          437 |          399 |          399 |          437 |          437 |          399 |          399 |          437 |          437 |          399 |          399 |          437 |          437 |          399 |          399 |          437 |          437 |          399 |          399 |          437 |          437 |          399 |          399 |
il1.replacements                               199 |          199 |          141 |          141 |          198 |          198 |          143 |          143 |          209 |          209 |          147 |          147 |          200 |          200 |          144 |          144 |          200 |          200 |          144 |          144 |          200 |          200 |          143 |          143 |          200 |          200 |          143 |          143 |          200 |          200 |          143 |          143 |          200 |          200 |          143 |          143 |          200 |          200 |          143 |          143 |          200 |          200 |          143 |          143 |
il1.writebacks                                   0 |            0 |            0 |            0 |            0 |            0 |            0 |            0 |            0 |            0 |            0 |            0 |            0 |            0 |            0 |            0 |            0 |            0 |            0 |            0 |            0 |            0 |            0 |            0 |            0 |            0 |            0 |            0 |            0 |            0 |            0 |            0 |            0 |            0 |            0 |            0 |            0 |            0 |            0 |            0 |            0 |            0 |            0 |            0 |
il1.invalidations                                0 |            0 |            0 |            0 |            0 |            0 |            0 |            0 |            0 |            0 |            0 |            0 |            0 |            0 |            0 |            0 |            0 |            0 |            0 |            0 |            0 |            0 |            0 |            0 |            0 |            0 |            0 |            0 |            0 |            0 |            0 |            0 |            0 |            0 |            0 |            0 |            0 |            0 |            0 |            0 |            0 |            0 |            0 |            0 |
il1.miss_rate                               0.0009 |       0.0009 |       0.0008 |       0.0008 |       0.0004 |       0.0004 |       0.0004 |       0.0004 |       0.0002 |       0.0002 |       0.0002 |       0.0002 |       0.0001 |       0.0001 |       0.0001 |       0.0001 |       0.0000 |       0.0000 |       0.0000 |       0.0000 |       0.0000 |       0.0000 |       0.0000 |       0.0000 |       0.0000 |       0.0000 |       0.0000 |       0.0000 |       0.0000 |       0.0000 |       0.0000 |       0.0000 |       0.0000 |       0.0000 |       0.0000 |       0.0000 |       0.0000 |       0.0000 |       0.0000 |       0.0000 |       0.0000 |       0.0000 |       0.0000 |       0.0000 |
il1.repl_rate                               0.0004 |       0.0004 |       0.0003 |       0.0003 |       0.0002 |       0.0002 |       0.0001 |       0.0001 |       0.0001 |       0.0001 |       0.0001 |       0.0001 |       0.0000 |       0.0000 |       0.0000 |       0.0000 |       0.0000 |       0.0000 |       0.0000 |       0.0000 |       0.0000 |       0.0000 |       0.0000 |       0.0000 |       0.0000 |       0.0000 |       0.0000 |       0.0000 |       0.0000 |       0.0000 |       0.0000 |       0.0000 |       0.0000 |       0.0000 |       0.0000 |       0.0000 |       0.0000 |       0.0000 |       0.0000 |       0.0000 |       0.0000 |       0.0000 |       0.0000 |       0.0000 |
il1.wb_rate                                 0.0000 |       0.0000 |       0.0000 |       0.0000 |       0.0000 |       0.0000 |       0.0000 |       0.0000 |       0.0000 |       0.0000 |       0.0000 |       0.0000 |       0.0000 |       0.0000 |       0.0000 |       0.0000 |       0.0000 |       0.0000 |       0.0000 |       0.0000 |       0.0000 |       0.0000 |       0.0000 |       0.0000 |       0.0000 |       0.0000 |       0.0000 |       0.0000 |       0.0000 |       0.0000 |       0.0000 |       0.0000 |       0.0000 |       0.0000 |       0.0000 |       0.0000 |       0.0000 |       0.0000 |       0.0000 |       0.0000 |       0.0000 |       0.0000 |       0.0000 |       0.0000 |
il1.inv_rate                                0.0000 |       0.0000 |       0.0000 |       0.0000 |       0.0000 |       0.0000 |       0.0000 |       0.0000 |       0.0000 |       0.0000 |       0.0000 |       0.0000 |       0.0000 |       0.0000 |       0.0000 |       0.0000 |       0.0000 |       0.0000 |       0.0000 |       0.0000 |       0.0000 |       0.0000 |       0.0000 |       0.0000 |       0.0000 |       0.0000 |       0.0000 |       0.0000 |       0.0000 |       0.0000 |       0.0000 |       0.0000 |       0.0000 |       0.0000 |       0.0000 |       0.0000 |       0.0000 |       0.0000 |       0.0000 |       0.0000 |       0.0000 |       0.0000 |       0.0000 |       0.0000 |
dl1.accesses                                144860 |       144860 |       144860 |       144860 |       305286 |       305286 |       305286 |       305286 |       637856 |       637856 |       637856 |       637856 |      1369912 |      1369912 |      1369912 |      1369912 |      2863917 |      2863917 |      2863917 |      2863917 |      6153245 |      6153245 |      6153245 |      6153245 |     12789550 |     12789550 |     12789550 |     12789550 |     27048614 |     27048614 |     27048614 |     27048614 |     55220751 |     55220751 |     55220751 |     55220751 |    116767548 |    116767548 |    116767548 |    116767548 |    240276505 |    240276505 |    240276505 |    240276505 |
dl1.hits                                    142218 |       142218 |       142071 |       142071 |       299049 |       299049 |       298856 |       298856 |       623785 |       623785 |       623450 |       623450 |      1333827 |      1333827 |      1332639 |      1332639 |      2783266 |      2783266 |      2782895 |      2782895 |      5949033 |      5949033 |      5948454 |      5948454 |     12352583 |     12352583 |     12353925 |     12353925 |     26044377 |     26044377 |     26049424 |     26049424 |     53208738 |     53208738 |     53220005 |     53220005 |    112185629 |    112185629 |    112218013 |    112218013 |    230749794 |    230749794 |    230832012 |    230832012 |
dl1.misses                                    2642 |         2642 |         2789 |         2789 |         6237 |         6237 |         6430 |         6430 |        14071 |        14071 |        14406 |        14406 |        36085 |        36085 |        37273 |        37273 |        80651 |        80651 |        81022 |        81022 |       204212 |       204212 |       204791 |       204791 |       436967 |       436967 |       435625 |       435625 |      1004237 |      1004237 |       999190 |       999190 |      2012013 |      2012013 |      2000746 |      2000746 |      4581919 |      4581919 |      4549535 |      4549535 |      9526711 |      9526711 |      9444493 |      9444493 |
dl1.replacements                              2386 |         2386 |         2533 |         2533 |         5981 |         5981 |         6174 |         6174 |        13815 |        13815 |        14150 |        14150 |        35829 |        35829 |        37017 |        37017 |        80395 |        80395 |        80766 |        80766 |       203956 |       203956 |       204535 |       204535 |       436711 |       436711 |       435369 |       435369 |      1003981 |      1003981 |       998934 |       998934 |      2011757 |      2011757 |      2000490 |      2000490 |      4581663 |      4581663 |      4549279 |      4549279 |      9526455 |      9526455 |      9444237 |      9444237 |
dl1.writebacks                                2322 |         2322 |         2480 |         2480 |         5567 |         5567 |         5716 |         5716 |        12976 |        12976 |        13347 |        13347 |        31322 |        31322 |        32141 |        32141 |        69880 |        69880 |        70397 |        70397 |       161742 |       161742 |       162416 |       162416 |       359328 |       359328 |       360539 |       360539 |       794568 |       794568 |       795738 |       795738 |      1726088 |      1726088 |      1728984 |      1728984 |      3737258 |      3737258 |      3737758 |      3737758 |      8033486 |      8033486 |      8023201 |      8023201 |
dl1.invalidations                                0 |            0 |            0 |            0 |            0 |            0 |            0 |            0 |            0 |            0 |            0 |            0 |            0 |            0 |            0 |            0 |            0 |            0 |            0 |            0 |            0 |            0 |            0 |            0 |            0 |            0 |            0 |            0 |            0 |            0 |            0 |            0 |            0 |            0 |            0 |            0 |            0 |            0 |            0 |            0 |            0 |            0 |            0 |            0 |
dl1.miss_rate                               0.0182 |       0.0182 |       0.0193 |       0.0193 |       0.0204 |       0.0204 |       0.0211 |       0.0211 |       0.0221 |       0.0221 |       0.0226 |       0.0226 |       0.0263 |       0.0263 |       0.0272 |       0.0272 |       0.0282 |       0.0282 |       0.0283 |       0.0283 |       0.0332 |       0.0332 |       0.0333 |       0.0333 |       0.0342 |       0.0342 |       0.0341 |       0.0341 |       0.0371 |       0.0371 |       0.0369 |       0.0369 |       0.0364 |       0.0364 |       0.0362 |       0.0362 |       0.0392 |       0.0392 |       0.0390 |       0.0390 |       0.0396 |       0.0396 |       0.0393 |       0.0393 |
dl1.repl_rate                               0.0165 |       0.0165 |       0.0175 |       0.0175 |       0.0196 |       0.0196 |       0.0202 |       0.0202 |       0.0217 |       0.0217 |       0.0222 |       0.0222 |       0.0262 |       0.0262 |       0.0270 |       0.0270 |       0.0281 |       0.0281 |       0.0282 |       0.0282 |       0.0331 |       0.0331 |       0.0332 |       0.0332 |       0.0341 |       0.0341 |       0.0340 |       0.0340 |       0.0371 |       0.0371 |       0.0369 |       0.0369 |       0.0364 |       0.0364 |       0.0362 |       0.0362 |       0.0392 |       0.0392 |       0.0390 |       0.0390 |       0.0396 |       0.0396 |       0.0393 |       0.0393 |
dl1.wb_rate                                 0.0160 |       0.0160 |       0.0171 |       0.0171 |       0.0182 |       0.0182 |       0.0187 |       0.0187 |       0.0203 |       0.0203 |       0.0209 |       0.0209 |       0.0229 |       0.0229 |       0.0235 |       0.0235 |       0.0244 |       0.0244 |       0.0246 |       0.0246 |       0.0263 |       0.0263 |       0.0264 |       0.0264 |       0.0281 |       0.0281 |       0.0282 |       0.0282 |       0.0294 |       0.0294 |       0.0294 |       0.0294 |       0.0313 |       0.0313 |       0.0313 |       0.0313 |       0.0320 |       0.0320 |       0.0320 |       0.0320 |       0.0334 |       0.0334 |       0.0334 |       0.0334 |
dl1.inv_rate                                0.0000 |       0.0000 |       0.0000 |       0.0000 |       0.0000 |       0.0000 |       0.0000 |       0.0000 |       0.0000 |       0.0000 |       0.0000 |       0.0000 |       0.0000 |       0.0000 |       0.0000 |       0.0000 |       0.0000 |       0.0000 |       0.0000 |       0.0000 |       0.0000 |       0.0000 |       0.0000 |       0.0000 |       0.0000 |       0.0000 |       0.0000 |       0.0000 |       0.0000 |       0.0000 |       0.0000 |       0.0000 |       0.0000 |       0.0000 |       0.0000 |       0.0000 |       0.0000 |       0.0000 |       0.0000 |       0.0000 |       0.0000 |       0.0000 |       0.0000 |       0.0000 |
dl2.accesses                                  5402 |         5402 |         5666 |         5666 |        12241 |        12241 |        12545 |        12545 |        27494 |        27494 |        28156 |        28156 |        67845 |        67845 |        69814 |        69814 |       150969 |       150969 |       151819 |       151819 |       366391 |       366391 |       367606 |       367606 |       796732 |       796732 |       796563 |       796563 |      1799242 |      1799242 |      1795327 |      1795327 |      3738538 |      3738538 |      3730129 |      3730129 |      8319614 |      8319614 |      8287692 |      8287692 |     17560634 |     17560634 |     17468093 |     17468093 |
dl2.hits                                      4048 |         4048 |         4325 |         4325 |        10374 |        10374 |        10690 |        10690 |        24606 |        24606 |        25283 |        25283 |        62912 |        62912 |        64894 |        64894 |       141939 |       141939 |       142802 |       142802 |       349170 |       349170 |       350398 |       350398 |       763127 |       763127 |       762971 |       762971 |      1732869 |      1732139 |      1728967 |      1718376 |      3605853 |      3221716 |      3489424 |      3139083 |      7176657 |      6837063 |      7094536 |      6732281 |     15102154 |     14417230 |     14864775 |     14045109 |
dl2.misses                                    1354 |         1354 |         1341 |         1341 |         1867 |         1867 |         1855 |         1855 |         2888 |         2888 |         2873 |         2873 |         4933 |         4933 |         4920 |         4920 |         9030 |         9030 |         9017 |         9017 |        17221 |        17221 |        17208 |        17208 |        33605 |        33605 |        33592 |        33592 |        66373 |        67103 |        66360 |        76951 |       132685 |       516822 |       240705 |       591046 |      1142957 |      1482551 |      1193156 |      1555411 |      2458480 |      3143404 |      2603318 |      3422984 |
dl2.replacements                               146 |          146 |            0 |            0 |          145 |          145 |            0 |            0 |          148 |          148 |            0 |            0 |          147 |          147 |            0 |            0 |          147 |          147 |            0 |            0 |          147 |          147 |            0 |            0 |          147 |          147 |            0 |            0 |          147 |         1567 |            0 |        11415 |         1613 |       451286 |       109633 |       525510 |      1011885 |      1417015 |      1062084 |      1489875 |      2327408 |      3077868 |      2472246 |      3357448 |
dl2.writebacks                                  83 |           83 |            0 |            0 |           84 |           84 |            0 |            0 |           85 |           85 |            0 |            0 |           85 |           85 |            0 |            0 |           85 |           85 |            0 |            0 |           85 |           85 |            0 |            0 |           85 |           85 |            0 |            0 |           85 |         1272 |            0 |        11137 |         1316 |       436363 |       105242 |       508340 |       913472 |      1225576 |       962823 |      1295662 |      2310107 |      2978638 |      2450404 |      3205964 |
dl2.invalidations                                0 |            0 |            0 |            0 |            0 |            0 |            0 |            0 |            0 |            0 |            0 |            0 |            0 |            0 |            0 |            0 |            0 |            0 |            0 |            0 |            0 |            0 |            0 |            0 |            0 |            0 |            0 |            0 |            0 |            0 |            0 |            0 |            0 |            0 |            0 |            0 |            0 |            0 |            0 |            0 |            0 |            0 |            0 |            0 |
dl2.miss_rate                               0.2506 |       0.2506 |       0.2367 |       0.2367 |       0.1525 |       0.1525 |       0.1479 |       0.1479 |       0.1050 |       0.1050 |       0.1020 |       0.1020 |       0.0727 |       0.0727 |       0.0705 |       0.0705 |       0.0598 |       0.0598 |       0.0594 |       0.0594 |       0.0470 |       0.0470 |       0.0468 |       0.0468 |       0.0422 |       0.0422 |       0.0422 |       0.0422 |       0.0369 |       0.0373 |       0.0370 |       0.0429 |       0.0355 |       0.1382 |       0.0645 |       0.1585 |       0.1374 |       0.1782 |       0.1440 |       0.1877 |       0.1400 |       0.1790 |       0.1490 |       0.1960 |
dl2.repl_rate                               0.0270 |       0.0270 |       0.0000 |       0.0000 |       0.0118 |       0.0118 |       0.0000 |       0.0000 |       0.0054 |       0.0054 |       0.0000 |       0.0000 |       0.0022 |       0.0022 |       0.0000 |       0.0000 |       0.0010 |       0.0010 |       0.0000 |       0.0000 |       0.0004 |       0.0004 |       0.0000 |       0.0000 |       0.0002 |       0.0002 |       0.0000 |       0.0000 |       0.0001 |       0.0009 |       0.0000 |       0.0064 |       0.0004 |       0.1207 |       0.0294 |       0.1409 |       0.1216 |       0.1703 |       0.1282 |       0.1798 |       0.1325 |       0.1753 |       0.1415 |       0.1922 |
dl2.wb_rate                                 0.0154 |       0.0154 |       0.0000 |       0.0000 |       0.0069 |       0.0069 |       0.0000 |       0.0000 |       0.0031 |       0.0031 |       0.0000 |       0.0000 |       0.0013 |       0.0013 |       0.0000 |       0.0000 |       0.0006 |       0.0006 |       0.0000 |       0.0000 |       0.0002 |       0.0002 |       0.0000 |       0.0000 |       0.0001 |       0.0001 |       0.0000 |       0.0000 |       0.0000 |       0.0007 |       0.0000 |       0.0062 |       0.0004 |       0.1167 |       0.0282 |       0.1363 |       0.1098 |       0.1473 |       0.1162 |       0.1563 |       0.1316 |       0.1696 |       0.1403 |       0.1835 |
dl2.inv_rate                                0.0000 |       0.0000 |       0.0000 |       0.0000 |       0.0000 |       0.0000 |       0.0000 |       0.0000 |       0.0000 |       0.0000 |       0.0000 |       0.0000 |       0.0000 |       0.0000 |       0.0000 |       0.0000 |       0.0000 |       0.0000 |       0.0000 |       0.0000 |       0.0000 |       0.0000 |       0.0000 |       0.0000 |       0.0000 |       0.0000 |       0.0000 |       0.0000 |       0.0000 |       0.0000 |       0.0000 |       0.0000 |       0.0000 |       0.0000 |       0.0000 |       0.0000 |       0.0000 |       0.0000 |       0.0000 |       0.0000 |       0.0000 |       0.0000 |       0.0000 |       0.0000 |
itlb.accesses                               498053 |       498053 |       498053 |       498053 |      1080796 |      1080796 |      1080796 |      1080796 |      2286494 |      2286494 |      2286494 |      2286494 |      5065432 |      5065432 |      5065432 |      5065432 |     10622282 |     10622282 |     10622282 |     10622282 |     23560537 |     23560537 |     23560537 |     23560537 |     49222844 |     49222844 |     49222844 |     49222844 |    105451411 |    105451411 |    105451411 |    105451411 |    212679967 |    212679967 |    212679967 |    212679967 |    457562276 |    457562276 |    457562276 |    457562276 |    936339516 |    936339516 |    936339516 |    936339516 |
itlb.hits                                   498042 |       498042 |       498042 |       498042 |      1080786 |      1080786 |      1080786 |      1080786 |      2286484 |      2286484 |      2286484 |      2286484 |      5065422 |      5065422 |      5065422 |      5065422 |     10622272 |     10622272 |     10622272 |     10622272 |     23560527 |     23560527 |     23560527 |     23560527 |     49222834 |     49222834 |     49222834 |     49222834 |    105451401 |    105451401 |    105451401 |    105451401 |    212679957 |    212679957 |    212679957 |    212679957 |    457562266 |    457562266 |    457562266 |    457562266 |    936339506 |    936339506 |    936339506 |    936339506 |
itlb.misses                                     11 |           11 |           11 |           11 |           10 |           10 |           10 |           10 |           10 |           10 |           10 |           10 |           10 |           10 |           10 |           10 |           10 |           10 |           10 |           10 |           10 |           10 |           10 |           10 |           10 |           10 |           10 |           10 |           10 |           10 |           10 |           10 |           10 |           10 |           10 |           10 |           10 |           10 |           10 |           10 |           10 |           10 |           10 |           10 |
itlb.replacements                                0 |            0 |            0 |            0 |            0 |            0 |            0 |            0 |            0 |            0 |            0 |            0 |            0 |            0 |            0 |            0 |            0 |            0 |            0 |            0 |            0 |            0 |            0 |            0 |            0 |            0 |            0 |            0 |            0 |            0 |            0 |            0 |            0 |            0 |            0 |            0 |            0 |            0 |            0 |            0 |            0 |            0 |            0 |            0 |
itlb.writebacks                                  0 |            0 |            0 |            0 |            0 |            0 |            0 |            0 |            0 |            0 |            0 |            0 |            0 |            0 |            0 |            0 |            0 |            0 |            0 |            0 |            0 |            0 |            0 |            0 |            0 |            0 |            0 |            0 |            0 |            0 |            0 |            0 |            0 |            0 |            0 |            0 |            0 |            0 |            0 |            0 |            0 |            0 |            0 |            0 |
itlb.invalidations                               0 |            0 |            0 |            0 |            0 |            0 |            0 |            0 |            0 |            0 |            0 |            0 |            0 |            0 |            0 |            0 |            0 |            0 |            0 |            0 |            0 |            0 |            0 |            0 |            0 |            0 |            0 |            0 |            0 |            0 |            0 |            0 |            0 |            0 |            0 |            0 |            0 |            0 |            0 |            0 |            0 |            0 |            0 |            0 |
itlb.miss_rate                              0.0000 |       0.0000 |       0.0000 |       0.0000 |       0.0000 |       0.0000 |       0.0000 |       0.0000 |       0.0000 |       0.0000 |       0.0000 |       0.0000 |       0.0000 |       0.0000 |       0.0000 |       0.0000 |       0.0000 |       0.0000 |       0.0000 |       0.0000 |       0.0000 |       0.0000 |       0.0000 |       0.0000 |       0.0000 |       0.0000 |       0.0000 |       0.0000 |       0.0000 |       0.0000 |       0.0000 |       0.0000 |       0.0000 |       0.0000 |       0.0000 |       0.0000 |       0.0000 |       0.0000 |       0.0000 |       0.0000 |       0.0000 |       0.0000 |       0.0000 |       0.0000 |
itlb.repl_rate                              0.0000 |       0.0000 |       0.0000 |       0.0000 |       0.0000 |       0.0000 |       0.0000 |       0.0000 |       0.0000 |       0.0000 |       0.0000 |       0.0000 |       0.0000 |       0.0000 |       0.0000 |       0.0000 |       0.0000 |       0.0000 |       0.0000 |       0.0000 |       0.0000 |       0.0000 |       0.0000 |       0.0000 |       0.0000 |       0.0000 |       0.0000 |       0.0000 |       0.0000 |       0.0000 |       0.0000 |       0.0000 |       0.0000 |       0.0000 |       0.0000 |       0.0000 |       0.0000 |       0.0000 |       0.0000 |       0.0000 |       0.0000 |       0.0000 |       0.0000 |       0.0000 |
itlb.wb_rate                                0.0000 |       0.0000 |       0.0000 |       0.0000 |       0.0000 |       0.0000 |       0.0000 |       0.0000 |       0.0000 |       0.0000 |       0.0000 |       0.0000 |       0.0000 |       0.0000 |       0.0000 |       0.0000 |       0.0000 |       0.0000 |       0.0000 |       0.0000 |       0.0000 |       0.0000 |       0.0000 |       0.0000 |       0.0000 |       0.0000 |       0.0000 |       0.0000 |       0.0000 |       0.0000 |       0.0000 |       0.0000 |       0.0000 |       0.0000 |       0.0000 |       0.0000 |       0.0000 |       0.0000 |       0.0000 |       0.0000 |       0.0000 |       0.0000 |       0.0000 |       0.0000 |
itlb.inv_rate                               0.0000 |       0.0000 |       0.0000 |       0.0000 |       0.0000 |       0.0000 |       0.0000 |       0.0000 |       0.0000 |       0.0000 |       0.0000 |       0.0000 |       0.0000 |       0.0000 |       0.0000 |       0.0000 |       0.0000 |       0.0000 |       0.0000 |       0.0000 |       0.0000 |       0.0000 |       0.0000 |       0.0000 |       0.0000 |       0.0000 |       0.0000 |       0.0000 |       0.0000 |       0.0000 |       0.0000 |       0.0000 |       0.0000 |       0.0000 |       0.0000 |       0.0000 |       0.0000 |       0.0000 |       0.0000 |       0.0000 |       0.0000 |       0.0000 |       0.0000 |       0.0000 |
dtlb.accesses                               144860 |       144860 |       144860 |       144860 |       305286 |       305286 |       305286 |       305286 |       637856 |       637856 |       637856 |       637856 |      1369912 |      1369912 |      1369912 |      1369912 |      2863917 |      2863917 |      2863917 |      2863917 |      6153245 |      6153245 |      6153245 |      6153245 |     12789550 |     12789550 |     12789550 |     12789550 |     27048614 |     27048614 |     27048614 |     27048614 |     55220751 |     55220751 |     55220751 |     55220751 |    116767548 |    116767548 |    116767548 |    116767548 |    240276505 |    240276505 |    240276505 |    240276505 |
dtlb.hits                                   144848 |       144848 |       144848 |       144848 |       305270 |       305270 |       305270 |       305270 |       637832 |       637832 |       637832 |       637832 |      1369872 |      1369872 |      1369872 |      1369872 |      2863845 |      2863845 |      2863845 |      2863845 |      6153049 |      6153049 |      6153049 |      6153049 |     12788372 |     12788372 |     12788372 |     12788372 |     27045234 |     27045234 |     27045234 |     27045234 |     55213560 |     55213560 |     55213560 |     55213560 |    116749393 |    116749393 |    116749393 |    116749393 |    240237281 |    240237281 |    240237281 |    240237281 |
dtlb.misses                                     12 |           12 |           12 |           12 |           16 |           16 |           16 |           16 |           24 |           24 |           24 |           24 |           40 |           40 |           40 |           40 |           72 |           72 |           72 |           72 |          196 |          196 |          196 |          196 |         1178 |         1178 |         1178 |         1178 |         3380 |         3380 |         3380 |         3380 |         7191 |         7191 |         7191 |         7191 |        18155 |        18155 |        18155 |        18155 |        39224 |        39224 |        39224 |        39224 |
dtlb.replacements                                0 |            0 |            0 |            0 |            0 |            0 |            0 |            0 |            0 |            0 |            0 |            0 |            0 |            0 |            0 |            0 |            0 |            0 |            0 |            0 |           68 |           68 |           68 |           68 |         1050 |         1050 |         1050 |         1050 |         3252 |         3252 |         3252 |         3252 |         7063 |         7063 |         7063 |         7063 |        18027 |        18027 |        18027 |        18027 |        39096 |        39096 |        39096 |        39096 |
dtlb.writebacks                                  0 |            0 |            0 |            0 |            0 |            0 |            0 |            0 |            0 |            0 |            0 |            0 |            0 |            0 |            0 |            0 |            0 |            0 |            0 |            0 |           66 |           66 |           66 |           66 |         1048 |         1048 |         1048 |         1048 |         3250 |         3250 |         3250 |         3250 |         7060 |         7060 |         7060 |         7060 |        16390 |        16390 |        16390 |        16390 |        39094 |        39094 |        39094 |        39094 |
dtlb.invalidations                               0 |            0 |            0 |            0 |            0 |            0 |            0 |            0 |            0 |            0 |            0 |            0 |            0 |            0 |            0 |            0 |            0 |            0 |            0 |            0 |            0 |            0 |            0 |            0 |            0 |            0 |            0 |            0 |            0 |            0 |            0 |            0 |            0 |            0 |            0 |            0 |            0 |            0 |            0 |            0 |            0 |            0 |            0 |            0 |
dtlb.miss_rate                              0.0001 |       0.0001 |       0.0001 |       0.0001 |       0.0001 |       0.0001 |       0.0001 |       0.0001 |       0.0000 |       0.0000 |       0.0000 |       0.0000 |       0.0000 |       0.0000 |       0.0000 |       0.0000 |       0.0000 |       0.0000 |       0.0000 |       0.0000 |       0.0000 |       0.0000 |       0.0000 |       0.0000 |       0.0001 |       0.0001 |       0.0001 |       0.0001 |       0.0001 |       0.0001 |       0.0001 |       0.0001 |       0.0001 |       0.0001 |       0.0001 |       0.0001 |       0.0002 |       0.0002 |       0.0002 |       0.0002 |       0.0002 |       0.0002 |       0.0002 |       0.0002 |
dtlb.repl_rate                              0.0000 |       0.0000 |       0.0000 |       0.0000 |       0.0000 |       0.0000 |       0.0000 |       0.0000 |       0.0000 |       0.0000 |       0.0000 |       0.0000 |       0.0000 |       0.0000 |       0.0000 |       0.0000 |       0.0000 |       0.0000 |       0.0000 |       0.0000 |       0.0000 |       0.0000 |       0.0000 |       0.0000 |       0.0001 |       0.0001 |       0.0001 |       0.0001 |       0.0001 |       0.0001 |       0.0001 |       0.0001 |       0.0001 |       0.0001 |       0.0001 |       0.0001 |       0.0002 |       0.0002 |       0.0002 |       0.0002 |       0.0002 |       0.0002 |       0.0002 |       0.0002 |
dtlb.wb_rate                                0.0000 |       0.0000 |       0.0000 |       0.0000 |       0.0000 |       0.0000 |       0.0000 |       0.0000 |       0.0000 |       0.0000 |       0.0000 |       0.0000 |       0.0000 |       0.0000 |       0.0000 |       0.0000 |       0.0000 |       0.0000 |       0.0000 |       0.0000 |       0.0000 |       0.0000 |       0.0000 |       0.0000 |       0.0001 |       0.0001 |       0.0001 |       0.0001 |       0.0001 |       0.0001 |       0.0001 |       0.0001 |       0.0001 |       0.0001 |       0.0001 |       0.0001 |       0.0001 |       0.0001 |       0.0001 |       0.0001 |       0.0002 |       0.0002 |       0.0002 |       0.0002 |
dtlb.inv_rate                               0.0000 |       0.0000 |       0.0000 |       0.0000 |       0.0000 |       0.0000 |       0.0000 |       0.0000 |       0.0000 |       0.0000 |       0.0000 |       0.0000 |       0.0000 |       0.0000 |       0.0000 |       0.0000 |       0.0000 |       0.0000 |       0.0000 |       0.0000 |       0.0000 |       0.0000 |       0.0000 |       0.0000 |       0.0000 |       0.0000 |       0.0000 |       0.0000 |       0.0000 |       0.0000 |       0.0000 |       0.0000 |       0.0000 |       0.0000 |       0.0000 |       0.0000 |       0.0000 |       0.0000 |       0.0000 |       0.0000 |       0.0000 |       0.0000 |       0.0000 |       0.0000 |
ld_text_base                            0x00400000 |   0x00400000 |   0x00400000 |   0x00400000 |   0x00400000 |   0x00400000 |   0x00400000 |   0x00400000 |   0x00400000 |   0x00400000 |   0x00400000 |   0x00400000 |   0x00400000 |   0x00400000 |   0x00400000 |   0x00400000 |   0x00400000 |   0x00400000 |   0x00400000 |   0x00400000 |   0x00400000 |   0x00400000 |   0x00400000 |   0x00400000 |   0x00400000 |   0x00400000 |   0x00400000 |   0x00400000 |   0x00400000 |   0x00400000 |   0x00400000 |   0x00400000 |   0x00400000 |   0x00400000 |   0x00400000 |   0x00400000 |   0x00400000 |   0x00400000 |   0x00400000 |   0x00400000 |   0x00400000 |   0x00400000 |   0x00400000 |   0x00400000 |
ld_text_size                                 73136 |        73136 |        73136 |        73136 |        73168 |        73168 |        73168 |        73168 |        73184 |        73184 |        73184 |        73184 |        73200 |        73200 |        73200 |        73200 |        73200 |        73200 |        73200 |        73200 |        73200 |        73200 |        73200 |        73200 |        73200 |        73200 |        73200 |        73200 |        73200 |        73200 |        73200 |        73200 |        73200 |        73200 |        73200 |        73200 |        73200 |        73200 |        73200 |        73200 |        73200 |        73200 |        73200 |        73200 |
ld_data_base                            0x10000000 |   0x10000000 |   0x10000000 |   0x10000000 |   0x10000000 |   0x10000000 |   0x10000000 |   0x10000000 |   0x10000000 |   0x10000000 |   0x10000000 |   0x10000000 |   0x10000000 |   0x10000000 |   0x10000000 |   0x10000000 |   0x10000000 |   0x10000000 |   0x10000000 |   0x10000000 |   0x10000000 |   0x10000000 |   0x10000000 |   0x10000000 |   0x10000000 |   0x10000000 |   0x10000000 |   0x10000000 |   0x10000000 |   0x10000000 |   0x10000000 |   0x10000000 |   0x10000000 |   0x10000000 |   0x10000000 |   0x10000000 |   0x10000000 |   0x10000000 |   0x10000000 |   0x10000000 |   0x10000000 |   0x10000000 |   0x10000000 |   0x10000000 |
ld_data_size                                  8192 |         8192 |         8192 |         8192 |         8192 |         8192 |         8192 |         8192 |         8192 |         8192 |         8192 |         8192 |         8192 |         8192 |         8192 |         8192 |         8192 |         8192 |         8192 |         8192 |         8192 |         8192 |         8192 |         8192 |         8192 |         8192 |         8192 |         8192 |         8192 |         8192 |         8192 |         8192 |         8192 |         8192 |         8192 |         8192 |         8192 |         8192 |         8192 |         8192 |         8192 |         8192 |         8192 |         8192 |
ld_stack_base                           0x7fffc000 |   0x7fffc000 |   0x7fffc000 |   0x7fffc000 |   0x7fffc000 |   0x7fffc000 |   0x7fffc000 |   0x7fffc000 |   0x7fffc000 |   0x7fffc000 |   0x7fffc000 |   0x7fffc000 |   0x7fffc000 |   0x7fffc000 |   0x7fffc000 |   0x7fffc000 |   0x7fffc000 |   0x7fffc000 |   0x7fffc000 |   0x7fffc000 |   0x7fffc000 |   0x7fffc000 |   0x7fffc000 |   0x7fffc000 |   0x7fffc000 |   0x7fffc000 |   0x7fffc000 |   0x7fffc000 |   0x7fffc000 |   0x7fffc000 |   0x7fffc000 |   0x7fffc000 |   0x7fffc000 |   0x7fffc000 |   0x7fffc000 |   0x7fffc000 |   0x7fffc000 |   0x7fffc000 |   0x7fffc000 |   0x7fffc000 |   0x7fffc000 |   0x7fffc000 |   0x7fffc000 |   0x7fffc000 |
ld_stack_size                                16384 |        16384 |        16384 |        16384 |        16384 |        16384 |        16384 |        16384 |        16384 |        16384 |        16384 |        16384 |        16384 |        16384 |        16384 |        16384 |        16384 |        16384 |        16384 |        16384 |        16384 |        16384 |        16384 |        16384 |        16384 |        16384 |        16384 |        16384 |        16384 |        16384 |        16384 |        16384 |        16384 |        16384 |        16384 |        16384 |        16384 |        16384 |        16384 |        16384 |        16384 |        16384 |        16384 |        16384 |
ld_prog_entry                           0x00400140 |   0x00400140 |   0x00400140 |   0x00400140 |   0x00400140 |   0x00400140 |   0x00400140 |   0x00400140 |   0x00400140 |   0x00400140 |   0x00400140 |   0x00400140 |   0x00400140 |   0x00400140 |   0x00400140 |   0x00400140 |   0x00400140 |   0x00400140 |   0x00400140 |   0x00400140 |   0x00400140 |   0x00400140 |   0x00400140 |   0x00400140 |   0x00400140 |   0x00400140 |   0x00400140 |   0x00400140 |   0x00400140 |   0x00400140 |   0x00400140 |   0x00400140 |   0x00400140 |   0x00400140 |   0x00400140 |   0x00400140 |   0x00400140 |   0x00400140 |   0x00400140 |   0x00400140 |   0x00400140 |   0x00400140 |   0x00400140 |   0x00400140 |
ld_environ_base                         0x7fff8000 |   0x7fff8000 |   0x7fff8000 |   0x7fff8000 |   0x7fff8000 |   0x7fff8000 |   0x7fff8000 |   0x7fff8000 |   0x7fff8000 |   0x7fff8000 |   0x7fff8000 |   0x7fff8000 |   0x7fff8000 |   0x7fff8000 |   0x7fff8000 |   0x7fff8000 |   0x7fff8000 |   0x7fff8000 |   0x7fff8000 |   0x7fff8000 |   0x7fff8000 |   0x7fff8000 |   0x7fff8000 |   0x7fff8000 |   0x7fff8000 |   0x7fff8000 |   0x7fff8000 |   0x7fff8000 |   0x7fff8000 |   0x7fff8000 |   0x7fff8000 |   0x7fff8000 |   0x7fff8000 |   0x7fff8000 |   0x7fff8000 |   0x7fff8000 |   0x7fff8000 |   0x7fff8000 |   0x7fff8000 |   0x7fff8000 |   0x7fff8000 |   0x7fff8000 |   0x7fff8000 |   0x7fff8000 |
ld_target_big_endian                             0 |            0 |            0 |            0 |            0 |            0 |            0 |            0 |            0 |            0 |            0 |            0 |            0 |            0 |            0 |            0 |            0 |            0 |            0 |            0 |            0 |            0 |            0 |            0 |            0 |            0 |            0 |            0 |            0 |            0 |            0 |            0 |            0 |            0 |            0 |            0 |            0 |            0 |            0 |            0 |            0 |            0 |            0 |            0 |
mem.page_count                                  30 |           30 |           30 |           30 |           34 |           34 |           34 |           34 |           42 |           42 |           42 |           42 |           58 |           58 |           58 |           58 |           90 |           90 |           90 |           90 |          154 |          154 |          154 |          154 |          282 |          282 |          282 |          282 |          538 |          538 |          538 |          538 |         1050 |         1050 |         1050 |         1050 |         2074 |         2074 |         2074 |         2074 |         4122 |         4122 |         4122 |         4122 |
mem.page_mem                                  120k |         120k |         120k |         120k |         136k |         136k |         136k |         136k |         168k |         168k |         168k |         168k |         232k |         232k |         232k |         232k |         360k |         360k |         360k |         360k |         616k |         616k |         616k |         616k |        1128k |        1128k |        1128k |        1128k |        2152k |        2152k |        2152k |        2152k |        4200k |        4200k |        4200k |        4200k |        8296k |        8296k |        8296k |        8296k |       16488k |       16488k |       16488k |       16488k |
mem.ptab_misses                                 30 |           30 |           30 |           30 |           34 |           34 |           34 |           34 |           42 |           42 |           42 |           42 |           58 |           58 |           58 |           58 |           90 |           90 |           90 |           90 |          154 |          154 |          154 |          154 |          282 |          282 |          282 |          282 |          538 |          538 |          538 |          538 |         1050 |         1050 |         1050 |         1050 |         2074 |         2074 |         2074 |         2074 |         4122 |         4122 |         4122 |         4122 |
mem.ptab_accesses                          2735358 |      2735358 |      2735358 |      2735358 |      5387374 |      5387374 |      5387374 |      5387374 |     10875402 |     10875402 |     10875402 |     10875402 |     23455362 |     23455362 |     23455362 |     23455362 |     48670772 |     48670772 |     48670772 |     48670772 |    107002448 |    107002448 |    107002448 |    107002448 |    222924286 |    222924286 |    222924286 |    222924286 |    476356682 |    476356682 |    476356682 |    476356682 |    961615180 |    961615180 |    961615180 |    961615180 |   2064238010 |   2064238010 |   2064238010 |   2064238010 |   4226364884 |   4226364884 |   4226364884 |   4226364884 |
mem.ptab_miss_rate                          0.0000 |       0.0000 |       0.0000 |       0.0000 |       0.0000 |       0.0000 |       0.0000 |       0.0000 |       0.0000 |       0.0000 |       0.0000 |       0.0000 |       0.0000 |       0.0000 |       0.0000 |       0.0000 |       0.0000 |       0.0000 |       0.0000 |       0.0000 |       0.0000 |       0.0000 |       0.0000 |       0.0000 |       0.0000 |       0.0000 |       0.0000 |       0.0000 |       0.0000 |       0.0000 |       0.0000 |       0.0000 |       0.0000 |       0.0000 |       0.0000 |       0.0000 |       0.0000 |       0.0000 |       0.0000 |       0.0000 |       0.0000 |       0.0000 |       0.0000 |       0.0000 |
-------------------------------------------------------------------------------------------------
sim-bpred                                     4096 |         4096 |         4096 |         4096 |         4096 |         4096 |         4096 |         8192 |         8192 |         8192 |         8192 |         8192 |         8192 |         8192 |        16384 |        16384 |        16384 |        16384 |        16384 |        16384 |        16384 |        32768 |        32768 |        32768 |        32768 |        32768 |        32768 |        32768 |        65536 |        65536 |        65536 |        65536 |        65536 |        65536 |        65536 |       131072 |       131072 |       131072 |       131072 |       131072 |       131072 |       131072 |       262144 |       262144 |       262144 |       262144 |       262144 |       262144 |       262144 |       524288 |       524288 |       524288 |       524288 |       524288 |       524288 |       524288 |      1048576 |      1048576 |      1048576 |      1048576 |      1048576 |      1048576 |      1048576 |      2097152 |      2097152 |      2097152 |      2097152 |      2097152 |      2097152 |      2097152 |      4194304 |      4194304 |      4194304 |      4194304 |      4194304 |      4194304 |      4194304 |
-bpred bimod -bpred:bimod 512
-bpred bimod -bpred:bimod 1024
-bpred bimod -bpred:bimod 2048
-bpred 2lev -bpred:2lev 1 512 10 1
-bpred 2lev -bpred:2lev 1 1024 10 1
-bpred 2lev -bpred:2lev 1 2048 10 1
-bpred 2lev -bpred:2lev 1 4096 10 1
-------------------------------------------------------------------------------------------------
sim_num_insn                                498053 |       498053 |       498053 |       498053 |       498053 |       498053 |       498053 |      1080796 |      1080796 |      1080796 |      1080796 |      1080796 |      1080796 |      1080796 |      2286494 |      2286494 |      2286494 |      2286494 |      2286494 |      2286494 |      2286494 |      5065432 |      5065432 |      5065432 |      5065432 |      5065432 |      5065432 |      5065432 |     10622282 |     10622282 |     10622282 |     10622282 |     10622282 |     10622282 |     10622282 |     23560537 |     23560537 |     23560537 |     23560537 |     23560537 |     23560537 |     23560537 |     49222844 |     49222844 |     49222844 |     49222844 |     49222844 |     49222844 |     49222844 |    105451411 |    105451411 |    105451411 |    105451411 |    105451411 |    105451411 |    105451411 |    212679967 |    212679967 |    212679967 |    212679967 |    212679967 |    212679967 |    212679967 |    457562276 |    457562276 |    457562276 |    457562276 |    457562276 |    457562276 |    457562276 |    936339516 |    936339516 |    936339516 |    936339516 |    936339516 |    936339516 |    936339516 |
sim_num_refs                                128394 |       128394 |       128394 |       128394 |       128394 |       128394 |       128394 |       272436 |       272436 |       272436 |       272436 |       272436 |       272436 |       272436 |       572238 |       572238 |       572238 |       572238 |       572238 |       572238 |       572238 |      1238758 |      1238758 |      1238758 |      1238758 |      1238758 |      1238758 |      1238758 |      2601691 |      2601691 |      2601691 |      2601691 |      2601691 |      2601691 |      2601691 |      5628875 |      5628875 |      5628875 |      5628875 |      5628875 |      5628875 |      5628875 |     11740892 |     11740892 |     11740892 |     11740892 |     11740892 |     11740892 |     11740892 |     24951380 |     24951380 |     24951380 |     24951380 |     24951380 |     24951380 |     24951380 |     51026365 |     51026365 |     51026365 |     51026365 |     51026365 |     51026365 |     51026365 |    108378858 |    108378858 |    108378858 |    108378858 |    108378858 |    108378858 |    108378858 |    223499207 |    223499207 |    223499207 |    223499207 |    223499207 |    223499207 |    223499207 |
sim_elapsed_time                                 1 |            1 |            1 |            1 |            1 |            1 |            1 |            1 |            1 |            1 |            1 |            1 |            1 |            1 |            1 |            1 |            1 |            1 |            1 |            1 |            1 |            1 |            1 |            1 |            1 |            1 |            1 |            1 |            1 |            1 |            2 |            1 |            1 |            2 |            1 |            3 |            3 |            3 |            3 |            3 |            3 |            3 |            6 |            6 |            7 |            6 |            6 |            7 |            6 |           13 |           13 |           13 |           14 |           13 |           14 |           13 |           26 |           27 |           27 |           27 |           27 |           27 |           27 |           58 |           57 |           57 |           59 |           58 |           58 |           59 |          117 |          117 |          117 |          119 |          118 |          119 |          120 |
sim_inst_rate                          498053.0000 |  498053.0000 |  498053.0000 |  498053.0000 |  498053.0000 |  498053.0000 |  498053.0000 | 1080796.0000 | 1080796.0000 | 1080796.0000 | 1080796.0000 | 1080796.0000 | 1080796.0000 | 1080796.0000 | 2286494.0000 | 2286494.0000 | 2286494.0000 | 2286494.0000 | 2286494.0000 | 2286494.0000 | 2286494.0000 | 5065432.0000 | 5065432.0000 | 5065432.0000 | 5065432.0000 | 5065432.0000 | 5065432.0000 | 5065432.0000 |10622282.0000 |10622282.0000 | 5311141.0000 |10622282.0000 |10622282.0000 | 5311141.0000 |10622282.0000 | 7853512.3333 | 7853512.3333 | 7853512.3333 | 7853512.3333 | 7853512.3333 | 7853512.3333 | 7853512.3333 | 8203807.3333 | 8203807.3333 | 7031834.8571 | 8203807.3333 | 8203807.3333 | 7031834.8571 | 8203807.3333 | 8111647.0000 | 8111647.0000 | 8111647.0000 | 7532243.6429 | 8111647.0000 | 7532243.6429 | 8111647.0000 | 8179998.7308 | 7877035.8148 | 7877035.8148 | 7877035.8148 | 7877035.8148 | 7877035.8148 | 7877035.8148 | 7889004.7586 | 8027408.3509 | 8027408.3509 | 7755292.8136 | 7889004.7586 | 7889004.7586 | 7755292.8136 | 8002901.8462 | 8002901.8462 | 8002901.8462 | 7868399.2941 | 7935080.6441 | 7868399.2941 | 7802829.3000 |
sim_num_branches                             97537 |        97537 |        97537 |        97537 |        97537 |        97537 |        97537 |       211664 |       211664 |       211664 |       211664 |       211664 |       211664 |       211664 |       450782 |       450782 |       450782 |       450782 |       450782 |       450782 |       450782 |      1018033 |      1018033 |      1018033 |      1018033 |      1018033 |      1018033 |      1018033 |      2150829 |      2150829 |      2150829 |      2150829 |      2150829 |      2150829 |      2150829 |      4846908 |      4846908 |      4846908 |      4846908 |      4846908 |      4846908 |      4846908 |     10281832 |     10281832 |     10281832 |     10281832 |     10281832 |     10281832 |     10281832 |     21887942 |     21887942 |     21887942 |     21887942 |     21887942 |     21887942 |     21887942 |     44047131 |     44047131 |     44047131 |     44047131 |     44047131 |     44047131 |     44047131 |     96227041 |     96227041 |     96227041 |     96227041 |     96227041 |     96227041 |     96227041 |    194345927 |    194345927 |    194345927 |    194345927 |    194345927 |    194345927 |    194345927 |
sim_IPB                                     5.1063 |       5.1063 |       5.1063 |       5.1063 |       5.1063 |       5.1063 |       5.1063 |       5.1062 |       5.1062 |       5.1062 |       5.1062 |       5.1062 |       5.1062 |       5.1062 |       5.0723 |       5.0723 |       5.0723 |       5.0723 |       5.0723 |       5.0723 |       5.0723 |       4.9757 |       4.9757 |       4.9757 |       4.9757 |       4.9757 |       4.9757 |       4.9757 |       4.9387 |       4.9387 |       4.9387 |       4.9387 |       4.9387 |       4.9387 |       4.9387 |       4.8609 |       4.8609 |       4.8609 |       4.8609 |       4.8609 |       4.8609 |       4.8609 |       4.7874 |       4.7874 |       4.7874 |       4.7874 |       4.7874 |       4.7874 |       4.7874 |       4.8178 |       4.8178 |       4.8178 |       4.8178 |       4.8178 |       4.8178 |       4.8178 |       4.8285 |       4.8285 |       4.8285 |       4.8285 |       4.8285 |       4.8285 |       4.8285 |       4.7550 |       4.7550 |       4.7550 |       4.7550 |       4.7550 |       4.7550 |       4.7550 |       4.8179 |       4.8179 |       4.8179 |       4.8179 |       4.8179 |       4.8179 |       4.8179 |
bpred_bimod.lookups                          97537 |        97537 |        97537 |xxxxxxxxxxxxx |xxxxxxxxxxxxx |xxxxxxxxxxxxx |xxxxxxxxxxxxx |       211664 |       211664 |       211664 |xxxxxxxxxxxxx |xxxxxxxxxxxxx |xxxxxxxxxxxxx |xxxxxxxxxxxxx |       450782 |       450782 |       450782 |xxxxxxxxxxxxx |xxxxxxxxxxxxx |xxxxxxxxxxxxx |xxxxxxxxxxxxx |      1018033 |      1018033 |      1018033 |xxxxxxxxxxxxx |xxxxxxxxxxxxx |xxxxxxxxxxxxx |xxxxxxxxxxxxx |      2150829 |      2150829 |      2150829 |xxxxxxxxxxxxx |xxxxxxxxxxxxx |xxxxxxxxxxxxx |xxxxxxxxxxxxx |      4846908 |      4846908 |      4846908 |xxxxxxxxxxxxx |xxxxxxxxxxxxx |xxxxxxxxxxxxx |xxxxxxxxxxxxx |     10281832 |     10281832 |     10281832 |xxxxxxxxxxxxx |xxxxxxxxxxxxx |xxxxxxxxxxxxx |xxxxxxxxxxxxx |     21887942 |     21887942 |     21887942 |xxxxxxxxxxxxx |xxxxxxxxxxxxx |xxxxxxxxxxxxx |xxxxxxxxxxxxx |     44047131 |     44047131 |     44047131 |xxxxxxxxxxxxx |xxxxxxxxxxxxx |xxxxxxxxxxxxx |xxxxxxxxxxxxx |     96227041 |     96227041 |     96227041 |xxxxxxxxxxxxx |xxxxxxxxxxxxx |xxxxxxxxxxxxx |xxxxxxxxxxxxx |    194345927 |    194345927 |    194345927 |
bpred_bimod.updates                          97537 |        97537 |        97537 |xxxxxxxxxxxxx |xxxxxxxxxxxxx |xxxxxxxxxxxxx |xxxxxxxxxxxxx |       211664 |       211664 |       211664 |xxxxxxxxxxxxx |xxxxxxxxxxxxx |xxxxxxxxxxxxx |xxxxxxxxxxxxx |       450782 |       450782 |       450782 |xxxxxxxxxxxxx |xxxxxxxxxxxxx |xxxxxxxxxxxxx |xxxxxxxxxxxxx |      1018033 |      1018033 |      1018033 |xxxxxxxxxxxxx |xxxxxxxxxxxxx |xxxxxxxxxxxxx |xxxxxxxxxxxxx |      2150829 |      2150829 |      2150829 |xxxxxxxxxxxxx |xxxxxxxxxxxxx |xxxxxxxxxxxxx |xxxxxxxxxxxxx |      4846908 |      4846908 |      4846908 |xxxxxxxxxxxxx |xxxxxxxxxxxxx |xxxxxxxxxxxxx |xxxxxxxxxxxxx |     10281832 |     10281832 |     10281832 |xxxxxxxxxxxxx |xxxxxxxxxxxxx |xxxxxxxxxxxxx |xxxxxxxxxxxxx |     21887942 |     21887942 |     21887942 |xxxxxxxxxxxxx |xxxxxxxxxxxxx |xxxxxxxxxxxxx |xxxxxxxxxxxxx |     44047131 |     44047131 |     44047131 |xxxxxxxxxxxxx |xxxxxxxxxxxxx |xxxxxxxxxxxxx |xxxxxxxxxxxxx |     96227041 |     96227041 |     96227041 |xxxxxxxxxxxxx |xxxxxxxxxxxxx |xxxxxxxxxxxxx |xxxxxxxxxxxxx |    194345927 |    194345927 |    194345927 |
bpred_bimod.addr_hits                        75683 |        75685 |        75687 |xxxxxxxxxxxxx |xxxxxxxxxxxxx |xxxxxxxxxxxxx |xxxxxxxxxxxxx |       164965 |       164964 |       164965 |xxxxxxxxxxxxx |xxxxxxxxxxxxx |xxxxxxxxxxxxx |xxxxxxxxxxxxx |       350865 |       350867 |       350867 |xxxxxxxxxxxxx |xxxxxxxxxxxxx |xxxxxxxxxxxxx |xxxxxxxxxxxxx |       807602 |       807603 |       807607 |xxxxxxxxxxxxx |xxxxxxxxxxxxx |xxxxxxxxxxxxx |xxxxxxxxxxxxx |      1695568 |      1695569 |      1695570 |xxxxxxxxxxxxx |xxxxxxxxxxxxx |xxxxxxxxxxxxx |xxxxxxxxxxxxx |      3911327 |      3911328 |      3911332 |xxxxxxxxxxxxx |xxxxxxxxxxxxx |xxxxxxxxxxxxx |xxxxxxxxxxxxx |      8297385 |      8297386 |      8297390 |xxxxxxxxxxxxx |xxxxxxxxxxxxx |xxxxxxxxxxxxx |xxxxxxxxxxxxx |     17736376 |     17736377 |     17736380 |xxxxxxxxxxxxx |xxxxxxxxxxxxx |xxxxxxxxxxxxx |xxxxxxxxxxxxx |     35281437 |     35281438 |     35281442 |xxxxxxxxxxxxx |xxxxxxxxxxxxx |xxxxxxxxxxxxx |xxxxxxxxxxxxx |     77802223 |     77802224 |     77802225 |xxxxxxxxxxxxx |xxxxxxxxxxxxx |xxxxxxxxxxxxx |xxxxxxxxxxxxx |    155562965 |    155562966 |    155562969 |
bpred_bimod.dir_hits                         75796 |        75796 |        75798 |xxxxxxxxxxxxx |xxxxxxxxxxxxx |xxxxxxxxxxxxx |xxxxxxxxxxxxx |       165077 |       165074 |       165075 |xxxxxxxxxxxxx |xxxxxxxxxxxxx |xxxxxxxxxxxxx |xxxxxxxxxxxxx |       350979 |       350978 |       350979 |xxxxxxxxxxxxx |xxxxxxxxxxxxx |xxxxxxxxxxxxx |xxxxxxxxxxxxx |       807714 |       807713 |       807717 |xxxxxxxxxxxxx |xxxxxxxxxxxxx |xxxxxxxxxxxxx |xxxxxxxxxxxxx |      1695681 |      1695680 |      1695680 |xxxxxxxxxxxxx |xxxxxxxxxxxxx |xxxxxxxxxxxxx |xxxxxxxxxxxxx |      3911439 |      3911438 |      3911441 |xxxxxxxxxxxxx |xxxxxxxxxxxxx |xxxxxxxxxxxxx |xxxxxxxxxxxxx |      8297500 |      8297498 |      8297502 |xxxxxxxxxxxxx |xxxxxxxxxxxxx |xxxxxxxxxxxxx |xxxxxxxxxxxxx |     17736488 |     17736487 |     17736490 |xxxxxxxxxxxxx |xxxxxxxxxxxxx |xxxxxxxxxxxxx |xxxxxxxxxxxxx |     35281549 |     35281548 |     35281551 |xxxxxxxxxxxxx |xxxxxxxxxxxxx |xxxxxxxxxxxxx |xxxxxxxxxxxxx |     77802336 |     77802335 |     77802335 |xxxxxxxxxxxxx |xxxxxxxxxxxxx |xxxxxxxxxxxxx |xxxxxxxxxxxxx |    155563078 |    155563077 |    155563080 |
bpred_bimod.misses                           21741 |        21741 |        21739 |xxxxxxxxxxxxx |xxxxxxxxxxxxx |xxxxxxxxxxxxx |xxxxxxxxxxxxx |        46587 |        46590 |        46589 |xxxxxxxxxxxxx |xxxxxxxxxxxxx |xxxxxxxxxxxxx |xxxxxxxxxxxxx |        99803 |        99804 |        99803 |xxxxxxxxxxxxx |xxxxxxxxxxxxx |xxxxxxxxxxxxx |xxxxxxxxxxxxx |       210319 |       210320 |       210316 |xxxxxxxxxxxxx |xxxxxxxxxxxxx |xxxxxxxxxxxxx |xxxxxxxxxxxxx |       455148 |       455149 |       455149 |xxxxxxxxxxxxx |xxxxxxxxxxxxx |xxxxxxxxxxxxx |xxxxxxxxxxxxx |       935469 |       935470 |       935467 |xxxxxxxxxxxxx |xxxxxxxxxxxxx |xxxxxxxxxxxxx |xxxxxxxxxxxxx |      1984332 |      1984334 |      1984330 |xxxxxxxxxxxxx |xxxxxxxxxxxxx |xxxxxxxxxxxxx |xxxxxxxxxxxxx |      4151454 |      4151455 |      4151452 |xxxxxxxxxxxxx |xxxxxxxxxxxxx |xxxxxxxxxxxxx |xxxxxxxxxxxxx |      8765582 |      8765583 |      8765580 |xxxxxxxxxxxxx |xxxxxxxxxxxxx |xxxxxxxxxxxxx |xxxxxxxxxxxxx |     18424705 |     18424706 |     18424706 |xxxxxxxxxxxxx |xxxxxxxxxxxxx |xxxxxxxxxxxxx |xxxxxxxxxxxxx |     38782849 |     38782850 |     38782847 |
bpred_bimod.jr_hits                             64 |           64 |           64 |xxxxxxxxxxxxx |xxxxxxxxxxxxx |xxxxxxxxxxxxx |xxxxxxxxxxxxx |           64 |           64 |           64 |xxxxxxxxxxxxx |xxxxxxxxxxxxx |xxxxxxxxxxxxx |xxxxxxxxxxxxx |           64 |           64 |           64 |xxxxxxxxxxxxx |xxxxxxxxxxxxx |xxxxxxxxxxxxx |xxxxxxxxxxxxx |           64 |           64 |           64 |xxxxxxxxxxxxx |xxxxxxxxxxxxx |xxxxxxxxxxxxx |xxxxxxxxxxxxx |           64 |           64 |           64 |xxxxxxxxxxxxx |xxxxxxxxxxxxx |xxxxxxxxxxxxx |xxxxxxxxxxxxx |           64 |           64 |           64 |xxxxxxxxxxxxx |xxxxxxxxxxxxx |xxxxxxxxxxxxx |xxxxxxxxxxxxx |           64 |           64 |           64 |xxxxxxxxxxxxx |xxxxxxxxxxxxx |xxxxxxxxxxxxx |xxxxxxxxxxxxx |           64 |           64 |           64 |xxxxxxxxxxxxx |xxxxxxxxxxxxx |xxxxxxxxxxxxx |xxxxxxxxxxxxx |           64 |           64 |           64 |xxxxxxxxxxxxx |xxxxxxxxxxxxx |xxxxxxxxxxxxx |xxxxxxxxxxxxx |           64 |           64 |           64 |xxxxxxxxxxxxx |xxxxxxxxxxxxx |xxxxxxxxxxxxx |xxxxxxxxxxxxx |           64 |           64 |           64 |
bpred_bimod.jr_seen                             64 |           64 |           64 |xxxxxxxxxxxxx |xxxxxxxxxxxxx |xxxxxxxxxxxxx |xxxxxxxxxxxxx |           64 |           64 |           64 |xxxxxxxxxxxxx |xxxxxxxxxxxxx |xxxxxxxxxxxxx |xxxxxxxxxxxxx |           64 |           64 |           64 |xxxxxxxxxxxxx |xxxxxxxxxxxxx |xxxxxxxxxxxxx |xxxxxxxxxxxxx |           64 |           64 |           64 |xxxxxxxxxxxxx |xxxxxxxxxxxxx |xxxxxxxxxxxxx |xxxxxxxxxxxxx |           64 |           64 |           64 |xxxxxxxxxxxxx |xxxxxxxxxxxxx |xxxxxxxxxxxxx |xxxxxxxxxxxxx |           64 |           64 |           64 |xxxxxxxxxxxxx |xxxxxxxxxxxxx |xxxxxxxxxxxxx |xxxxxxxxxxxxx |           64 |           64 |           64 |xxxxxxxxxxxxx |xxxxxxxxxxxxx |xxxxxxxxxxxxx |xxxxxxxxxxxxx |           64 |           64 |           64 |xxxxxxxxxxxxx |xxxxxxxxxxxxx |xxxxxxxxxxxxx |xxxxxxxxxxxxx |           64 |           64 |           64 |xxxxxxxxxxxxx |xxxxxxxxxxxxx |xxxxxxxxxxxxx |xxxxxxxxxxxxx |           64 |           64 |           64 |xxxxxxxxxxxxx |xxxxxxxxxxxxx |xxxxxxxxxxxxx |xxxxxxxxxxxxx |           64 |           64 |           64 |
bpred_bimod.jr_non_ras_hits.PP                   0 |            0 |            0 |xxxxxxxxxxxxx |xxxxxxxxxxxxx |xxxxxxxxxxxxx |xxxxxxxxxxxxx |            0 |            0 |            0 |xxxxxxxxxxxxx |xxxxxxxxxxxxx |xxxxxxxxxxxxx |xxxxxxxxxxxxx |            0 |            0 |            0 |xxxxxxxxxxxxx |xxxxxxxxxxxxx |xxxxxxxxxxxxx |xxxxxxxxxxxxx |            0 |            0 |            0 |xxxxxxxxxxxxx |xxxxxxxxxxxxx |xxxxxxxxxxxxx |xxxxxxxxxxxxx |            0 |            0 |            0 |xxxxxxxxxxxxx |xxxxxxxxxxxxx |xxxxxxxxxxxxx |xxxxxxxxxxxxx |            0 |            0 |            0 |xxxxxxxxxxxxx |xxxxxxxxxxxxx |xxxxxxxxxxxxx |xxxxxxxxxxxxx |            0 |            0 |            0 |xxxxxxxxxxxxx |xxxxxxxxxxxxx |xxxxxxxxxxxxx |xxxxxxxxxxxxx |            0 |            0 |            0 |xxxxxxxxxxxxx |xxxxxxxxxxxxx |xxxxxxxxxxxxx |xxxxxxxxxxxxx |            0 |            0 |            0 |xxxxxxxxxxxxx |xxxxxxxxxxxxx |xxxxxxxxxxxxx |xxxxxxxxxxxxx |            0 |            0 |            0 |xxxxxxxxxxxxx |xxxxxxxxxxxxx |xxxxxxxxxxxxx |xxxxxxxxxxxxx |            0 |            0 |            0 |
bpred_bimod.jr_non_ras_seen.PP                   0 |            0 |            0 |xxxxxxxxxxxxx |xxxxxxxxxxxxx |xxxxxxxxxxxxx |xxxxxxxxxxxxx |            0 |            0 |            0 |xxxxxxxxxxxxx |xxxxxxxxxxxxx |xxxxxxxxxxxxx |xxxxxxxxxxxxx |            0 |            0 |            0 |xxxxxxxxxxxxx |xxxxxxxxxxxxx |xxxxxxxxxxxxx |xxxxxxxxxxxxx |            0 |            0 |            0 |xxxxxxxxxxxxx |xxxxxxxxxxxxx |xxxxxxxxxxxxx |xxxxxxxxxxxxx |            0 |            0 |            0 |xxxxxxxxxxxxx |xxxxxxxxxxxxx |xxxxxxxxxxxxx |xxxxxxxxxxxxx |            0 |            0 |            0 |xxxxxxxxxxxxx |xxxxxxxxxxxxx |xxxxxxxxxxxxx |xxxxxxxxxxxxx |            0 |            0 |            0 |xxxxxxxxxxxxx |xxxxxxxxxxxxx |xxxxxxxxxxxxx |xxxxxxxxxxxxx |            0 |            0 |            0 |xxxxxxxxxxxxx |xxxxxxxxxxxxx |xxxxxxxxxxxxx |xxxxxxxxxxxxx |            0 |            0 |            0 |xxxxxxxxxxxxx |xxxxxxxxxxxxx |xxxxxxxxxxxxx |xxxxxxxxxxxxx |            0 |            0 |            0 |xxxxxxxxxxxxx |xxxxxxxxxxxxx |xxxxxxxxxxxxx |xxxxxxxxxxxxx |            0 |            0 |            0 |
bpred_bimod.bpred_addr_rate                 0.7759 |       0.7760 |       0.7760 |xxxxxxxxxxxxx |xxxxxxxxxxxxx |xxxxxxxxxxxxx |xxxxxxxxxxxxx |       0.7794 |       0.7794 |       0.7794 |xxxxxxxxxxxxx |xxxxxxxxxxxxx |xxxxxxxxxxxxx |xxxxxxxxxxxxx |       0.7783 |       0.7784 |       0.7784 |xxxxxxxxxxxxx |xxxxxxxxxxxxx |xxxxxxxxxxxxx |xxxxxxxxxxxxx |       0.7933 |       0.7933 |       0.7933 |xxxxxxxxxxxxx |xxxxxxxxxxxxx |xxxxxxxxxxxxx |xxxxxxxxxxxxx |       0.7883 |       0.7883 |       0.7883 |xxxxxxxxxxxxx |xxxxxxxxxxxxx |xxxxxxxxxxxxx |xxxxxxxxxxxxx |       0.8070 |       0.8070 |       0.8070 |xxxxxxxxxxxxx |xxxxxxxxxxxxx |xxxxxxxxxxxxx |xxxxxxxxxxxxx |       0.8070 |       0.8070 |       0.8070 |xxxxxxxxxxxxx |xxxxxxxxxxxxx |xxxxxxxxxxxxx |xxxxxxxxxxxxx |       0.8103 |       0.8103 |       0.8103 |xxxxxxxxxxxxx |xxxxxxxxxxxxx |xxxxxxxxxxxxx |xxxxxxxxxxxxx |       0.8010 |       0.8010 |       0.8010 |xxxxxxxxxxxxx |xxxxxxxxxxxxx |xxxxxxxxxxxxx |xxxxxxxxxxxxx |       0.8085 |       0.8085 |       0.8085 |xxxxxxxxxxxxx |xxxxxxxxxxxxx |xxxxxxxxxxxxx |xxxxxxxxxxxxx |       0.8004 |       0.8004 |       0.8004 |
bpred_bimod.bpred_dir_rate                  0.7771 |       0.7771 |       0.7771 |xxxxxxxxxxxxx |xxxxxxxxxxxxx |xxxxxxxxxxxxx |xxxxxxxxxxxxx |       0.7799 |       0.7799 |       0.7799 |xxxxxxxxxxxxx |xxxxxxxxxxxxx |xxxxxxxxxxxxx |xxxxxxxxxxxxx |       0.7786 |       0.7786 |       0.7786 |xxxxxxxxxxxxx |xxxxxxxxxxxxx |xxxxxxxxxxxxx |xxxxxxxxxxxxx |       0.7934 |       0.7934 |       0.7934 |xxxxxxxxxxxxx |xxxxxxxxxxxxx |xxxxxxxxxxxxx |xxxxxxxxxxxxx |       0.7884 |       0.7884 |       0.7884 |xxxxxxxxxxxxx |xxxxxxxxxxxxx |xxxxxxxxxxxxx |xxxxxxxxxxxxx |       0.8070 |       0.8070 |       0.8070 |xxxxxxxxxxxxx |xxxxxxxxxxxxx |xxxxxxxxxxxxx |xxxxxxxxxxxxx |       0.8070 |       0.8070 |       0.8070 |xxxxxxxxxxxxx |xxxxxxxxxxxxx |xxxxxxxxxxxxx |xxxxxxxxxxxxx |       0.8103 |       0.8103 |       0.8103 |xxxxxxxxxxxxx |xxxxxxxxxxxxx |xxxxxxxxxxxxx |xxxxxxxxxxxxx |       0.8010 |       0.8010 |       0.8010 |xxxxxxxxxxxxx |xxxxxxxxxxxxx |xxxxxxxxxxxxx |xxxxxxxxxxxxx |       0.8085 |       0.8085 |       0.8085 |xxxxxxxxxxxxx |xxxxxxxxxxxxx |xxxxxxxxxxxxx |xxxxxxxxxxxxx |       0.8004 |       0.8004 |       0.8004 |
bpred_bimod.bpred_jr_rate                   1.0000 |       1.0000 |       1.0000 |xxxxxxxxxxxxx |xxxxxxxxxxxxx |xxxxxxxxxxxxx |xxxxxxxxxxxxx |       1.0000 |       1.0000 |       1.0000 |xxxxxxxxxxxxx |xxxxxxxxxxxxx |xxxxxxxxxxxxx |xxxxxxxxxxxxx |       1.0000 |       1.0000 |       1.0000 |xxxxxxxxxxxxx |xxxxxxxxxxxxx |xxxxxxxxxxxxx |xxxxxxxxxxxxx |       1.0000 |       1.0000 |       1.0000 |xxxxxxxxxxxxx |xxxxxxxxxxxxx |xxxxxxxxxxxxx |xxxxxxxxxxxxx |       1.0000 |       1.0000 |       1.0000 |xxxxxxxxxxxxx |xxxxxxxxxxxxx |xxxxxxxxxxxxx |xxxxxxxxxxxxx |       1.0000 |       1.0000 |       1.0000 |xxxxxxxxxxxxx |xxxxxxxxxxxxx |xxxxxxxxxxxxx |xxxxxxxxxxxxx |       1.0000 |       1.0000 |       1.0000 |xxxxxxxxxxxxx |xxxxxxxxxxxxx |xxxxxxxxxxxxx |xxxxxxxxxxxxx |       1.0000 |       1.0000 |       1.0000 |xxxxxxxxxxxxx |xxxxxxxxxxxxx |xxxxxxxxxxxxx |xxxxxxxxxxxxx |       1.0000 |       1.0000 |       1.0000 |xxxxxxxxxxxxx |xxxxxxxxxxxxx |xxxxxxxxxxxxx |xxxxxxxxxxxxx |       1.0000 |       1.0000 |       1.0000 |xxxxxxxxxxxxx |xxxxxxxxxxxxx |xxxxxxxxxxxxx |xxxxxxxxxxxxx |       1.0000 |       1.0000 |       1.0000 |
bpred_bimod.bpred_jr_non_ras_rate.PP       <error: |      <error: |      <error: |xxxxxxxxxxxxx |xxxxxxxxxxxxx |xxxxxxxxxxxxx |xxxxxxxxxxxxx |      <error: |      <error: |      <error: |xxxxxxxxxxxxx |xxxxxxxxxxxxx |xxxxxxxxxxxxx |xxxxxxxxxxxxx |      <error: |      <error: |      <error: |xxxxxxxxxxxxx |xxxxxxxxxxxxx |xxxxxxxxxxxxx |xxxxxxxxxxxxx |      <error: |      <error: |      <error: |xxxxxxxxxxxxx |xxxxxxxxxxxxx |xxxxxxxxxxxxx |xxxxxxxxxxxxx |      <error: |      <error: |      <error: |xxxxxxxxxxxxx |xxxxxxxxxxxxx |xxxxxxxxxxxxx |xxxxxxxxxxxxx |      <error: |      <error: |      <error: |xxxxxxxxxxxxx |xxxxxxxxxxxxx |xxxxxxxxxxxxx |xxxxxxxxxxxxx |      <error: |      <error: |      <error: |xxxxxxxxxxxxx |xxxxxxxxxxxxx |xxxxxxxxxxxxx |xxxxxxxxxxxxx |      <error: |      <error: |      <error: |xxxxxxxxxxxxx |xxxxxxxxxxxxx |xxxxxxxxxxxxx |xxxxxxxxxxxxx |      <error: |      <error: |      <error: |xxxxxxxxxxxxx |xxxxxxxxxxxxx |xxxxxxxxxxxxx |xxxxxxxxxxxxx |      <error: |      <error: |      <error: |xxxxxxxxxxxxx |xxxxxxxxxxxxx |xxxxxxxxxxxxx |xxxxxxxxxxxxx |      <error: |      <error: |      <error: |
bpred_bimod.retstack_pushes                     66 |           66 |           66 |xxxxxxxxxxxxx |xxxxxxxxxxxxx |xxxxxxxxxxxxx |xxxxxxxxxxxxx |           66 |           66 |           66 |xxxxxxxxxxxxx |xxxxxxxxxxxxx |xxxxxxxxxxxxx |xxxxxxxxxxxxx |           66 |           66 |           66 |xxxxxxxxxxxxx |xxxxxxxxxxxxx |xxxxxxxxxxxxx |xxxxxxxxxxxxx |           66 |           66 |           66 |xxxxxxxxxxxxx |xxxxxxxxxxxxx |xxxxxxxxxxxxx |xxxxxxxxxxxxx |           66 |           66 |           66 |xxxxxxxxxxxxx |xxxxxxxxxxxxx |xxxxxxxxxxxxx |xxxxxxxxxxxxx |           66 |           66 |           66 |xxxxxxxxxxxxx |xxxxxxxxxxxxx |xxxxxxxxxxxxx |xxxxxxxxxxxxx |           66 |           66 |           66 |xxxxxxxxxxxxx |xxxxxxxxxxxxx |xxxxxxxxxxxxx |xxxxxxxxxxxxx |           66 |           66 |           66 |xxxxxxxxxxxxx |xxxxxxxxxxxxx |xxxxxxxxxxxxx |xxxxxxxxxxxxx |           66 |           66 |           66 |xxxxxxxxxxxxx |xxxxxxxxxxxxx |xxxxxxxxxxxxx |xxxxxxxxxxxxx |           66 |           66 |           66 |xxxxxxxxxxxxx |xxxxxxxxxxxxx |xxxxxxxxxxxxx |xxxxxxxxxxxxx |           66 |           66 |           66 |
bpred_bimod.retstack_pops                       64 |           64 |           64 |xxxxxxxxxxxxx |xxxxxxxxxxxxx |xxxxxxxxxxxxx |xxxxxxxxxxxxx |           64 |           64 |           64 |xxxxxxxxxxxxx |xxxxxxxxxxxxx |xxxxxxxxxxxxx |xxxxxxxxxxxxx |           64 |           64 |           64 |xxxxxxxxxxxxx |xxxxxxxxxxxxx |xxxxxxxxxxxxx |xxxxxxxxxxxxx |           64 |           64 |           64 |xxxxxxxxxxxxx |xxxxxxxxxxxxx |xxxxxxxxxxxxx |xxxxxxxxxxxxx |           64 |           64 |           64 |xxxxxxxxxxxxx |xxxxxxxxxxxxx |xxxxxxxxxxxxx |xxxxxxxxxxxxx |           64 |           64 |           64 |xxxxxxxxxxxxx |xxxxxxxxxxxxx |xxxxxxxxxxxxx |xxxxxxxxxxxxx |           64 |           64 |           64 |xxxxxxxxxxxxx |xxxxxxxxxxxxx |xxxxxxxxxxxxx |xxxxxxxxxxxxx |           64 |           64 |           64 |xxxxxxxxxxxxx |xxxxxxxxxxxxx |xxxxxxxxxxxxx |xxxxxxxxxxxxx |           64 |           64 |           64 |xxxxxxxxxxxxx |xxxxxxxxxxxxx |xxxxxxxxxxxxx |xxxxxxxxxxxxx |           64 |           64 |           64 |xxxxxxxxxxxxx |xxxxxxxxxxxxx |xxxxxxxxxxxxx |xxxxxxxxxxxxx |           64 |           64 |           64 |
bpred_bimod.used_ras.PP                         64 |           64 |           64 |xxxxxxxxxxxxx |xxxxxxxxxxxxx |xxxxxxxxxxxxx |xxxxxxxxxxxxx |           64 |           64 |           64 |xxxxxxxxxxxxx |xxxxxxxxxxxxx |xxxxxxxxxxxxx |xxxxxxxxxxxxx |           64 |           64 |           64 |xxxxxxxxxxxxx |xxxxxxxxxxxxx |xxxxxxxxxxxxx |xxxxxxxxxxxxx |           64 |           64 |           64 |xxxxxxxxxxxxx |xxxxxxxxxxxxx |xxxxxxxxxxxxx |xxxxxxxxxxxxx |           64 |           64 |           64 |xxxxxxxxxxxxx |xxxxxxxxxxxxx |xxxxxxxxxxxxx |xxxxxxxxxxxxx |           64 |           64 |           64 |xxxxxxxxxxxxx |xxxxxxxxxxxxx |xxxxxxxxxxxxx |xxxxxxxxxxxxx |           64 |           64 |           64 |xxxxxxxxxxxxx |xxxxxxxxxxxxx |xxxxxxxxxxxxx |xxxxxxxxxxxxx |           64 |           64 |           64 |xxxxxxxxxxxxx |xxxxxxxxxxxxx |xxxxxxxxxxxxx |xxxxxxxxxxxxx |           64 |           64 |           64 |xxxxxxxxxxxxx |xxxxxxxxxxxxx |xxxxxxxxxxxxx |xxxxxxxxxxxxx |           64 |           64 |           64 |xxxxxxxxxxxxx |xxxxxxxxxxxxx |xxxxxxxxxxxxx |xxxxxxxxxxxxx |           64 |           64 |           64 |
bpred_bimod.ras_hits.PP                         64 |           64 |           64 |xxxxxxxxxxxxx |xxxxxxxxxxxxx |xxxxxxxxxxxxx |xxxxxxxxxxxxx |           64 |           64 |           64 |xxxxxxxxxxxxx |xxxxxxxxxxxxx |xxxxxxxxxxxxx |xxxxxxxxxxxxx |           64 |           64 |           64 |xxxxxxxxxxxxx |xxxxxxxxxxxxx |xxxxxxxxxxxxx |xxxxxxxxxxxxx |           64 |           64 |           64 |xxxxxxxxxxxxx |xxxxxxxxxxxxx |xxxxxxxxxxxxx |xxxxxxxxxxxxx |           64 |           64 |           64 |xxxxxxxxxxxxx |xxxxxxxxxxxxx |xxxxxxxxxxxxx |xxxxxxxxxxxxx |           64 |           64 |           64 |xxxxxxxxxxxxx |xxxxxxxxxxxxx |xxxxxxxxxxxxx |xxxxxxxxxxxxx |           64 |           64 |           64 |xxxxxxxxxxxxx |xxxxxxxxxxxxx |xxxxxxxxxxxxx |xxxxxxxxxxxxx |           64 |           64 |           64 |xxxxxxxxxxxxx |xxxxxxxxxxxxx |xxxxxxxxxxxxx |xxxxxxxxxxxxx |           64 |           64 |           64 |xxxxxxxxxxxxx |xxxxxxxxxxxxx |xxxxxxxxxxxxx |xxxxxxxxxxxxx |           64 |           64 |           64 |xxxxxxxxxxxxx |xxxxxxxxxxxxx |xxxxxxxxxxxxx |xxxxxxxxxxxxx |           64 |           64 |           64 |
bpred_bimod.ras_rate.PP                     1.0000 |       1.0000 |       1.0000 |xxxxxxxxxxxxx |xxxxxxxxxxxxx |xxxxxxxxxxxxx |xxxxxxxxxxxxx |       1.0000 |       1.0000 |       1.0000 |xxxxxxxxxxxxx |xxxxxxxxxxxxx |xxxxxxxxxxxxx |xxxxxxxxxxxxx |       1.0000 |       1.0000 |       1.0000 |xxxxxxxxxxxxx |xxxxxxxxxxxxx |xxxxxxxxxxxxx |xxxxxxxxxxxxx |       1.0000 |       1.0000 |       1.0000 |xxxxxxxxxxxxx |xxxxxxxxxxxxx |xxxxxxxxxxxxx |xxxxxxxxxxxxx |       1.0000 |       1.0000 |       1.0000 |xxxxxxxxxxxxx |xxxxxxxxxxxxx |xxxxxxxxxxxxx |xxxxxxxxxxxxx |       1.0000 |       1.0000 |       1.0000 |xxxxxxxxxxxxx |xxxxxxxxxxxxx |xxxxxxxxxxxxx |xxxxxxxxxxxxx |       1.0000 |       1.0000 |       1.0000 |xxxxxxxxxxxxx |xxxxxxxxxxxxx |xxxxxxxxxxxxx |xxxxxxxxxxxxx |       1.0000 |       1.0000 |       1.0000 |xxxxxxxxxxxxx |xxxxxxxxxxxxx |xxxxxxxxxxxxx |xxxxxxxxxxxxx |       1.0000 |       1.0000 |       1.0000 |xxxxxxxxxxxxx |xxxxxxxxxxxxx |xxxxxxxxxxxxx |xxxxxxxxxxxxx |       1.0000 |       1.0000 |       1.0000 |xxxxxxxxxxxxx |xxxxxxxxxxxxx |xxxxxxxxxxxxx |xxxxxxxxxxxxx |       1.0000 |       1.0000 |       1.0000 |
bpred_2lev.lookups                   xxxxxxxxxxxxx |xxxxxxxxxxxxx |xxxxxxxxxxxxx |        97537 |        97537 |        97537 |        97537 |xxxxxxxxxxxxx |xxxxxxxxxxxxx |xxxxxxxxxxxxx |       211664 |       211664 |       211664 |       211664 |xxxxxxxxxxxxx |xxxxxxxxxxxxx |xxxxxxxxxxxxx |       450782 |       450782 |       450782 |       450782 |xxxxxxxxxxxxx |xxxxxxxxxxxxx |xxxxxxxxxxxxx |      1018033 |      1018033 |      1018033 |      1018033 |xxxxxxxxxxxxx |xxxxxxxxxxxxx |xxxxxxxxxxxxx |      2150829 |      2150829 |      2150829 |      2150829 |xxxxxxxxxxxxx |xxxxxxxxxxxxx |xxxxxxxxxxxxx |      4846908 |      4846908 |      4846908 |      4846908 |xxxxxxxxxxxxx |xxxxxxxxxxxxx |xxxxxxxxxxxxx |     10281832 |     10281832 |     10281832 |     10281832 |xxxxxxxxxxxxx |xxxxxxxxxxxxx |xxxxxxxxxxxxx |     21887942 |     21887942 |     21887942 |     21887942 |xxxxxxxxxxxxx |xxxxxxxxxxxxx |xxxxxxxxxxxxx |     44047131 |     44047131 |     44047131 |     44047131 |xxxxxxxxxxxxx |xxxxxxxxxxxxx |xxxxxxxxxxxxx |     96227041 |     96227041 |     96227041 |     96227041 |xxxxxxxxxxxxx |xxxxxxxxxxxxx |xxxxxxxxxxxxx |    194345927 |    194345927 |    194345927 |    194345927 |
[...]
bpred_2lev.retstack_pushes           xxxxxxxxxxxxx |xxxxxxxxxxxxx |xxxxxxxxxxxxx |           66 |           66 |           66 |           66 |xxxxxxxxxxxxx |xxxxxxxxxxxxx |xxxxxxxxxxxxx |           66 |           66 |           66 |           66 |xxxxxxxxxxxxx |xxxxxxxxxxxxx |xxxxxxxxxxxxx |           66 |           66 |           66 |           66 |xxxxxxxxxxxxx |xxxxxxxxxxxxx |xxxxxxxxxxxxx |           66 |           66 |           66 |           66 |xxxxxxxxxxxxx |xxxxxxxxxxxxx |xxxxxxxxxxxxx |           66 |           66 |           66 |           66 |xxxxxxxxxxxxx |xxxxxxxxxxxxx |xxxxxxxxxxxxx |           66 |           66 |           66 |           66 |xxxxxxxxxxxxx |xxxxxxxxxxxxx |xxxxxxxxxxxxx |           66 |           66 |           66 |           66 |xxxxxxxxxxxxx |xxxxxxxxxxxxx |xxxxxxxxxxxxx |           66 |           66 |           66 |           66 |xxxxxxxxxxxxx |xxxxxxxxxxxxx |xxxxxxxxxxxxx |           66 |           66 |           66 |           66 |xxxxxxxxxxxxx |xxxxxxxxxxxxx |xxxxxxxxxxxxx |           66 |           66 |           66 |           66 |xxxxxxxxxxxxx |xxxxxxxxxxxxx |xxxxxxxxxxxxx |           66 |           66 |           66 |           66 |
bpred_2lev.retstack_pops             xxxxxxxxxxxxx |xxxxxxxxxxxxx |xxxxxxxxxxxxx |           64 |           64 |           64 |           64 |xxxxxxxxxxxxx |xxxxxxxxxxxxx |xxxxxxxxxxxxx |           64 |           64 |           64 |           64 |xxxxxxxxxxxxx |xxxxxxxxxxxxx |xxxxxxxxxxxxx |           64 |           64 |           64 |           64 |xxxxxxxxxxxxx |xxxxxxxxxxxxx |xxxxxxxxxxxxx |           64 |           64 |           64 |           64 |xxxxxxxxxxxxx |xxxxxxxxxxxxx |xxxxxxxxxxxxx |           64 |           64 |           64 |           64 |xxxxxxxxxxxxx |xxxxxxxxxxxxx |xxxxxxxxxxxxx |           64 |           64 |           64 |           64 |xxxxxxxxxxxxx |xxxxxxxxxxxxx |xxxxxxxxxxxxx |           64 |           64 |           64 |           64 |xxxxxxxxxxxxx |xxxxxxxxxxxxx |xxxxxxxxxxxxx |           64 |           64 |           64 |           64 |xxxxxxxxxxxxx |xxxxxxxxxxxxx |xxxxxxxxxxxxx |           64 |           64 |           64 |           64 |xxxxxxxxxxxxx |xxxxxxxxxxxxx |xxxxxxxxxxxxx |           64 |           64 |           64 |           64 |xxxxxxxxxxxxx |xxxxxxxxxxxxx |xxxxxxxxxxxxx |           64 |           64 |           64 |           64 |
bpred_2lev.used_ras.PP               xxxxxxxxxxxxx |xxxxxxxxxxxxx |xxxxxxxxxxxxx |           64 |           64 |           64 |           64 |xxxxxxxxxxxxx |xxxxxxxxxxxxx |xxxxxxxxxxxxx |           64 |           64 |           64 |           64 |xxxxxxxxxxxxx |xxxxxxxxxxxxx |xxxxxxxxxxxxx |           64 |           64 |           64 |           64 |xxxxxxxxxxxxx |xxxxxxxxxxxxx |xxxxxxxxxxxxx |           64 |           64 |           64 |           64 |xxxxxxxxxxxxx |xxxxxxxxxxxxx |xxxxxxxxxxxxx |           64 |           64 |           64 |           64 |xxxxxxxxxxxxx |xxxxxxxxxxxxx |xxxxxxxxxxxxx |           64 |           64 |           64 |           64 |xxxxxxxxxxxxx |xxxxxxxxxxxxx |xxxxxxxxxxxxx |           64 |           64 |           64 |           64 |xxxxxxxxxxxxx |xxxxxxxxxxxxx |xxxxxxxxxxxxx |           64 |           64 |           64 |           64 |xxxxxxxxxxxxx |xxxxxxxxxxxxx |xxxxxxxxxxxxx |           64 |           64 |           64 |           64 |xxxxxxxxxxxxx |xxxxxxxxxxxxx |xxxxxxxxxxxxx |           64 |           64 |           64 |           64 |xxxxxxxxxxxxx |xxxxxxxxxxxxx |xxxxxxxxxxxxx |           64 |           64 |           64 |           64 |
bpred_2lev.ras_hits.PP               xxxxxxxxxxxxx |xxxxxxxxxxxxx |xxxxxxxxxxxxx |           64 |           64 |           64 |           64 |xxxxxxxxxxxxx |xxxxxxxxxxxxx |xxxxxxxxxxxxx |           64 |           64 |           64 |           64 |xxxxxxxxxxxxx |xxxxxxxxxxxxx |xxxxxxxxxxxxx |           64 |           64 |           64 |           64 |xxxxxxxxxxxxx |xxxxxxxxxxxxx |xxxxxxxxxxxxx |           64 |           64 |           64 |           64 |xxxxxxxxxxxxx |xxxxxxxxxxxxx |xxxxxxxxxxxxx |           64 |           64 |           64 |           64 |xxxxxxxxxxxxx |xxxxxxxxxxxxx |xxxxxxxxxxxxx |           64 |           64 |           64 |           64 |xxxxxxxxxxxxx |xxxxxxxxxxxxx |xxxxxxxxxxxxx |           64 |           64 |           64 |           64 |xxxxxxxxxxxxx |xxxxxxxxxxxxx |xxxxxxxxxxxxx |           64 |           64 |           64 |           64 |xxxxxxxxxxxxx |xxxxxxxxxxxxx |xxxxxxxxxxxxx |           64 |           64 |           64 |           64 |xxxxxxxxxxxxx |xxxxxxxxxxxxx |xxxxxxxxxxxxx |           64 |           64 |           64 |           64 |xxxxxxxxxxxxx |xxxxxxxxxxxxx |xxxxxxxxxxxxx |           64 |           64 |           64 |           64 |
bpred_2lev.ras_rate.PP               xxxxxxxxxxxxx |xxxxxxxxxxxxx |xxxxxxxxxxxxx |       1.0000 |       1.0000 |       1.0000 |       1.0000 |xxxxxxxxxxxxx |xxxxxxxxxxxxx |xxxxxxxxxxxxx |       1.0000 |       1.0000 |       1.0000 |       1.0000 |xxxxxxxxxxxxx |xxxxxxxxxxxxx |xxxxxxxxxxxxx |       1.0000 |       1.0000 |       1.0000 |       1.0000 |xxxxxxxxxxxxx |xxxxxxxxxxxxx |xxxxxxxxxxxxx |       1.0000 |       1.0000 |       1.0000 |       1.0000 |xxxxxxxxxxxxx |xxxxxxxxxxxxx |xxxxxxxxxxxxx |       1.0000 |       1.0000 |       1.0000 |       1.0000 |xxxxxxxxxxxxx |xxxxxxxxxxxxx |xxxxxxxxxxxxx |       1.0000 |       1.0000 |       1.0000 |       1.0000 |xxxxxxxxxxxxx |xxxxxxxxxxxxx |xxxxxxxxxxxxx |       1.0000 |       1.0000 |       1.0000 |       1.0000 |xxxxxxxxxxxxx |xxxxxxxxxxxxx |xxxxxxxxxxxxx |       1.0000 |       1.0000 |       1.0000 |       1.0000 |xxxxxxxxxxxxx |xxxxxxxxxxxxx |xxxxxxxxxxxxx |       1.0000 |       1.0000 |       1.0000 |       1.0000 |xxxxxxxxxxxxx |xxxxxxxxxxxxx |xxxxxxxxxxxxx |       1.0000 |       1.0000 |       1.0000 |       1.0000 |xxxxxxxxxxxxx |xxxxxxxxxxxxx |xxxxxxxxxxxxx |       1.0000 |       1.0000 |       1.0000 |       1.0000 |

Command list: 
	sslittle-na-sstrix-gcc -Wall -O3 -funroll-loops -finline-functions  -DRANDOM_SIZE=4096 -DOFFSET=8 -DSORT=base_quicksort1 sorts/base_quicksort12040523365.c simpleMain.c -o base_quicksort1244380907
	sim-cache -cache:dl1 dl1:256:32:1:l -cache:dl2 dl2:131072:32:1:l -cache:il1 il1:256:32:1:l -cache:il2 dl2 base_quicksort1244380907
	sim-cache -cache:dl1 dl1:256:32:1:l -cache:dl2 dl2:65536:32:1:l -cache:il1 il1:256:32:1:l -cache:il2 dl2 base_quicksort1244380907
	sim-cache -cache:dl1 dl1:1:32:256:l -cache:dl2 dl2:1:32:131072:l -cache:il1 il1:1:32:256:l -cache:il2 dl2 base_quicksort1244380907
	sim-cache -cache:dl1 dl1:1:32:256:l -cache:dl2 dl2:1:32:65536:l -cache:il1 il1:1:32:256:l -cache:il2 dl2 base_quicksort1244380907
	sim-bpred -bpred bimod -bpred:bimod 512 base_quicksort1244380907
	sim-bpred -bpred bimod -bpred:bimod 1024 base_quicksort1244380907
	sim-bpred -bpred bimod -bpred:bimod 2048 base_quicksort1244380907
	sim-bpred -bpred 2lev -bpred:2lev 1 512 10 1 base_quicksort1244380907
	sim-bpred -bpred 2lev -bpred:2lev 1 1024 10 1 base_quicksort1244380907
	sim-bpred -bpred 2lev -bpred:2lev 1 2048 10 1 base_quicksort1244380907
	sim-bpred -bpred 2lev -bpred:2lev 1 4096 10 1 base_quicksort1244380907
	sslittle-na-sstrix-gcc -Wall -O3 -funroll-loops -finline-functions  -DRANDOM_SIZE=8192 -DOFFSET=8 -DSORT=base_quicksort1 sorts/base_quicksort12040523365.c simpleMain.c -o base_quicksort1244380907
	sim-cache -cache:dl1 dl1:256:32:1:l -cache:dl2 dl2:131072:32:1:l -cache:il1 il1:256:32:1:l -cache:il2 dl2 base_quicksort1244380907
	sim-cache -cache:dl1 dl1:256:32:1:l -cache:dl2 dl2:65536:32:1:l -cache:il1 il1:256:32:1:l -cache:il2 dl2 base_quicksort1244380907
	sim-cache -cache:dl1 dl1:1:32:256:l -cache:dl2 dl2:1:32:131072:l -cache:il1 il1:1:32:256:l -cache:il2 dl2 base_quicksort1244380907
	sim-cache -cache:dl1 dl1:1:32:256:l -cache:dl2 dl2:1:32:65536:l -cache:il1 il1:1:32:256:l -cache:il2 dl2 base_quicksort1244380907
	sim-bpred -bpred bimod -bpred:bimod 512 base_quicksort1244380907
	sim-bpred -bpred bimod -bpred:bimod 1024 base_quicksort1244380907
	sim-bpred -bpred bimod -bpred:bimod 2048 base_quicksort1244380907
	sim-bpred -bpred 2lev -bpred:2lev 1 512 10 1 base_quicksort1244380907
	sim-bpred -bpred 2lev -bpred:2lev 1 1024 10 1 base_quicksort1244380907
	sim-bpred -bpred 2lev -bpred:2lev 1 2048 10 1 base_quicksort1244380907
	sim-bpred -bpred 2lev -bpred:2lev 1 4096 10 1 base_quicksort1244380907
	sslittle-na-sstrix-gcc -Wall -O3 -funroll-loops -finline-functions  -DRANDOM_SIZE=16384 -DOFFSET=8 -DSORT=base_quicksort1 sorts/base_quicksort12040523365.c simpleMain.c -o base_quicksort1244380907
	sim-cache -cache:dl1 dl1:256:32:1:l -cache:dl2 dl2:131072:32:1:l -cache:il1 il1:256:32:1:l -cache:il2 dl2 base_quicksort1244380907
	sim-cache -cache:dl1 dl1:256:32:1:l -cache:dl2 dl2:65536:32:1:l -cache:il1 il1:256:32:1:l -cache:il2 dl2 base_quicksort1244380907
	sim-cache -cache:dl1 dl1:1:32:256:l -cache:dl2 dl2:1:32:131072:l -cache:il1 il1:1:32:256:l -cache:il2 dl2 base_quicksort1244380907
	sim-cache -cache:dl1 dl1:1:32:256:l -cache:dl2 dl2:1:32:65536:l -cache:il1 il1:1:32:256:l -cache:il2 dl2 base_quicksort1244380907
	sim-bpred -bpred bimod -bpred:bimod 512 base_quicksort1244380907
	sim-bpred -bpred bimod -bpred:bimod 1024 base_quicksort1244380907
	sim-bpred -bpred bimod -bpred:bimod 2048 base_quicksort1244380907
	sim-bpred -bpred 2lev -bpred:2lev 1 512 10 1 base_quicksort1244380907
	sim-bpred -bpred 2lev -bpred:2lev 1 1024 10 1 base_quicksort1244380907
	sim-bpred -bpred 2lev -bpred:2lev 1 2048 10 1 base_quicksort1244380907
	sim-bpred -bpred 2lev -bpred:2lev 1 4096 10 1 base_quicksort1244380907
	sslittle-na-sstrix-gcc -Wall -O3 -funroll-loops -finline-functions  -DRANDOM_SIZE=32768 -DOFFSET=8 -DSORT=base_quicksort1 sorts/base_quicksort12040523365.c simpleMain.c -o base_quicksort1244380907
	sim-cache -cache:dl1 dl1:256:32:1:l -cache:dl2 dl2:131072:32:1:l -cache:il1 il1:256:32:1:l -cache:il2 dl2 base_quicksort1244380907
	sim-cache -cache:dl1 dl1:256:32:1:l -cache:dl2 dl2:65536:32:1:l -cache:il1 il1:256:32:1:l -cache:il2 dl2 base_quicksort1244380907
	sim-cache -cache:dl1 dl1:1:32:256:l -cache:dl2 dl2:1:32:131072:l -cache:il1 il1:1:32:256:l -cache:il2 dl2 base_quicksort1244380907
	sim-cache -cache:dl1 dl1:1:32:256:l -cache:dl2 dl2:1:32:65536:l -cache:il1 il1:1:32:256:l -cache:il2 dl2 base_quicksort1244380907
	sim-bpred -bpred bimod -bpred:bimod 512 base_quicksort1244380907
	sim-bpred -bpred bimod -bpred:bimod 1024 base_quicksort1244380907
	sim-bpred -bpred bimod -bpred:bimod 2048 base_quicksort1244380907
	sim-bpred -bpred 2lev -bpred:2lev 1 512 10 1 base_quicksort1244380907
	sim-bpred -bpred 2lev -bpred:2lev 1 1024 10 1 base_quicksort1244380907
	sim-bpred -bpred 2lev -bpred:2lev 1 2048 10 1 base_quicksort1244380907
	sim-bpred -bpred 2lev -bpred:2lev 1 4096 10 1 base_quicksort1244380907
	sslittle-na-sstrix-gcc -Wall -O3 -funroll-loops -finline-functions  -DRANDOM_SIZE=65536 -DOFFSET=8 -DSORT=base_quicksort1 sorts/base_quicksort12040523365.c simpleMain.c -o base_quicksort1244380907
	sim-cache -cache:dl1 dl1:256:32:1:l -cache:dl2 dl2:131072:32:1:l -cache:il1 il1:256:32:1:l -cache:il2 dl2 base_quicksort1244380907
	sim-cache -cache:dl1 dl1:256:32:1:l -cache:dl2 dl2:65536:32:1:l -cache:il1 il1:256:32:1:l -cache:il2 dl2 base_quicksort1244380907
	sim-cache -cache:dl1 dl1:1:32:256:l -cache:dl2 dl2:1:32:131072:l -cache:il1 il1:1:32:256:l -cache:il2 dl2 base_quicksort1244380907
	sim-cache -cache:dl1 dl1:1:32:256:l -cache:dl2 dl2:1:32:65536:l -cache:il1 il1:1:32:256:l -cache:il2 dl2 base_quicksort1244380907
	sim-bpred -bpred bimod -bpred:bimod 512 base_quicksort1244380907
	sim-bpred -bpred bimod -bpred:bimod 1024 base_quicksort1244380907
	sim-bpred -bpred bimod -bpred:bimod 2048 base_quicksort1244380907
	sim-bpred -bpred 2lev -bpred:2lev 1 512 10 1 base_quicksort1244380907
	sim-bpred -bpred 2lev -bpred:2lev 1 1024 10 1 base_quicksort1244380907
	sim-bpred -bpred 2lev -bpred:2lev 1 2048 10 1 base_quicksort1244380907
	sim-bpred -bpred 2lev -bpred:2lev 1 4096 10 1 base_quicksort1244380907
	sslittle-na-sstrix-gcc -Wall -O3 -funroll-loops -finline-functions  -DRANDOM_SIZE=131072 -DOFFSET=8 -DSORT=base_quicksort1 sorts/base_quicksort12040523365.c simpleMain.c -o base_quicksort1244380907
	sim-cache -cache:dl1 dl1:256:32:1:l -cache:dl2 dl2:131072:32:1:l -cache:il1 il1:256:32:1:l -cache:il2 dl2 base_quicksort1244380907
	sim-cache -cache:dl1 dl1:256:32:1:l -cache:dl2 dl2:65536:32:1:l -cache:il1 il1:256:32:1:l -cache:il2 dl2 base_quicksort1244380907
	sim-cache -cache:dl1 dl1:1:32:256:l -cache:dl2 dl2:1:32:131072:l -cache:il1 il1:1:32:256:l -cache:il2 dl2 base_quicksort1244380907
	sim-cache -cache:dl1 dl1:1:32:256:l -cache:dl2 dl2:1:32:65536:l -cache:il1 il1:1:32:256:l -cache:il2 dl2 base_quicksort1244380907
	sim-bpred -bpred bimod -bpred:bimod 512 base_quicksort1244380907
	sim-bpred -bpred bimod -bpred:bimod 1024 base_quicksort1244380907
	sim-bpred -bpred bimod -bpred:bimod 2048 base_quicksort1244380907
	sim-bpred -bpred 2lev -bpred:2lev 1 512 10 1 base_quicksort1244380907
	sim-bpred -bpred 2lev -bpred:2lev 1 1024 10 1 base_quicksort1244380907
	sim-bpred -bpred 2lev -bpred:2lev 1 2048 10 1 base_quicksort1244380907
	sim-bpred -bpred 2lev -bpred:2lev 1 4096 10 1 base_quicksort1244380907
	sslittle-na-sstrix-gcc -Wall -O3 -funroll-loops -finline-functions  -DRANDOM_SIZE=262144 -DOFFSET=8 -DSORT=base_quicksort1 sorts/base_quicksort12040523365.c simpleMain.c -o base_quicksort1244380907
	sim-cache -cache:dl1 dl1:256:32:1:l -cache:dl2 dl2:131072:32:1:l -cache:il1 il1:256:32:1:l -cache:il2 dl2 base_quicksort1244380907
	sim-cache -cache:dl1 dl1:256:32:1:l -cache:dl2 dl2:65536:32:1:l -cache:il1 il1:256:32:1:l -cache:il2 dl2 base_quicksort1244380907
	sim-cache -cache:dl1 dl1:1:32:256:l -cache:dl2 dl2:1:32:131072:l -cache:il1 il1:1:32:256:l -cache:il2 dl2 base_quicksort1244380907
	sim-cache -cache:dl1 dl1:1:32:256:l -cache:dl2 dl2:1:32:65536:l -cache:il1 il1:1:32:256:l -cache:il2 dl2 base_quicksort1244380907
	sim-bpred -bpred bimod -bpred:bimod 512 base_quicksort1244380907
	sim-bpred -bpred bimod -bpred:bimod 1024 base_quicksort1244380907
	sim-bpred -bpred bimod -bpred:bimod 2048 base_quicksort1244380907
	sim-bpred -bpred 2lev -bpred:2lev 1 512 10 1 base_quicksort1244380907
	sim-bpred -bpred 2lev -bpred:2lev 1 1024 10 1 base_quicksort1244380907
	sim-bpred -bpred 2lev -bpred:2lev 1 2048 10 1 base_quicksort1244380907
	sim-bpred -bpred 2lev -bpred:2lev 1 4096 10 1 base_quicksort1244380907
	sslittle-na-sstrix-gcc -Wall -O3 -funroll-loops -finline-functions  -DRANDOM_SIZE=524288 -DOFFSET=8 -DSORT=base_quicksort1 sorts/base_quicksort12040523365.c simpleMain.c -o base_quicksort1244380907
	sim-cache -cache:dl1 dl1:256:32:1:l -cache:dl2 dl2:131072:32:1:l -cache:il1 il1:256:32:1:l -cache:il2 dl2 base_quicksort1244380907
	sim-cache -cache:dl1 dl1:256:32:1:l -cache:dl2 dl2:65536:32:1:l -cache:il1 il1:256:32:1:l -cache:il2 dl2 base_quicksort1244380907
	sim-cache -cache:dl1 dl1:1:32:256:l -cache:dl2 dl2:1:32:131072:l -cache:il1 il1:1:32:256:l -cache:il2 dl2 base_quicksort1244380907
	sim-cache -cache:dl1 dl1:1:32:256:l -cache:dl2 dl2:1:32:65536:l -cache:il1 il1:1:32:256:l -cache:il2 dl2 base_quicksort1244380907
	sim-bpred -bpred bimod -bpred:bimod 512 base_quicksort1244380907
	sim-bpred -bpred bimod -bpred:bimod 1024 base_quicksort1244380907
	sim-bpred -bpred bimod -bpred:bimod 2048 base_quicksort1244380907
	sim-bpred -bpred 2lev -bpred:2lev 1 512 10 1 base_quicksort1244380907
	sim-bpred -bpred 2lev -bpred:2lev 1 1024 10 1 base_quicksort1244380907
	sim-bpred -bpred 2lev -bpred:2lev 1 2048 10 1 base_quicksort1244380907
	sim-bpred -bpred 2lev -bpred:2lev 1 4096 10 1 base_quicksort1244380907
	sslittle-na-sstrix-gcc -Wall -O3 -funroll-loops -finline-functions  -DRANDOM_SIZE=1048576 -DOFFSET=8 -DSORT=base_quicksort1 sorts/base_quicksort12040523365.c simpleMain.c -o base_quicksort1244380907
	sim-cache -cache:dl1 dl1:256:32:1:l -cache:dl2 dl2:131072:32:1:l -cache:il1 il1:256:32:1:l -cache:il2 dl2 base_quicksort1244380907
	sim-cache -cache:dl1 dl1:256:32:1:l -cache:dl2 dl2:65536:32:1:l -cache:il1 il1:256:32:1:l -cache:il2 dl2 base_quicksort1244380907
	sim-cache -cache:dl1 dl1:1:32:256:l -cache:dl2 dl2:1:32:131072:l -cache:il1 il1:1:32:256:l -cache:il2 dl2 base_quicksort1244380907
	sim-cache -cache:dl1 dl1:1:32:256:l -cache:dl2 dl2:1:32:65536:l -cache:il1 il1:1:32:256:l -cache:il2 dl2 base_quicksort1244380907
	sim-bpred -bpred bimod -bpred:bimod 512 base_quicksort1244380907
	sim-bpred -bpred bimod -bpred:bimod 1024 base_quicksort1244380907
	sim-bpred -bpred bimod -bpred:bimod 2048 base_quicksort1244380907
	sim-bpred -bpred 2lev -bpred:2lev 1 512 10 1 base_quicksort1244380907
	sim-bpred -bpred 2lev -bpred:2lev 1 1024 10 1 base_quicksort1244380907
	sim-bpred -bpred 2lev -bpred:2lev 1 2048 10 1 base_quicksort1244380907
	sim-bpred -bpred 2lev -bpred:2lev 1 4096 10 1 base_quicksort1244380907
	sslittle-na-sstrix-gcc -Wall -O3 -funroll-loops -finline-functions  -DRANDOM_SIZE=2097152 -DOFFSET=8 -DSORT=base_quicksort1 sorts/base_quicksort12040523365.c simpleMain.c -o base_quicksort1244380907
	sim-cache -cache:dl1 dl1:256:32:1:l -cache:dl2 dl2:131072:32:1:l -cache:il1 il1:256:32:1:l -cache:il2 dl2 base_quicksort1244380907
	sim-cache -cache:dl1 dl1:256:32:1:l -cache:dl2 dl2:65536:32:1:l -cache:il1 il1:256:32:1:l -cache:il2 dl2 base_quicksort1244380907
	sim-cache -cache:dl1 dl1:1:32:256:l -cache:dl2 dl2:1:32:131072:l -cache:il1 il1:1:32:256:l -cache:il2 dl2 base_quicksort1244380907
	sim-cache -cache:dl1 dl1:1:32:256:l -cache:dl2 dl2:1:32:65536:l -cache:il1 il1:1:32:256:l -cache:il2 dl2 base_quicksort1244380907
	sim-bpred -bpred bimod -bpred:bimod 512 base_quicksort1244380907
	sim-bpred -bpred bimod -bpred:bimod 1024 base_quicksort1244380907
	sim-bpred -bpred bimod -bpred:bimod 2048 base_quicksort1244380907
	sim-bpred -bpred 2lev -bpred:2lev 1 512 10 1 base_quicksort1244380907
	sim-bpred -bpred 2lev -bpred:2lev 1 1024 10 1 base_quicksort1244380907
	sim-bpred -bpred 2lev -bpred:2lev 1 2048 10 1 base_quicksort1244380907
	sim-bpred -bpred 2lev -bpred:2lev 1 4096 10 1 base_quicksort1244380907
	sslittle-na-sstrix-gcc -Wall -O3 -funroll-loops -finline-functions  -DRANDOM_SIZE=4194304 -DOFFSET=8 -DSORT=base_quicksort1 sorts/base_quicksort12040523365.c simpleMain.c -o base_quicksort1244380907
	sim-cache -cache:dl1 dl1:256:32:1:l -cache:dl2 dl2:131072:32:1:l -cache:il1 il1:256:32:1:l -cache:il2 dl2 base_quicksort1244380907
	sim-cache -cache:dl1 dl1:256:32:1:l -cache:dl2 dl2:65536:32:1:l -cache:il1 il1:256:32:1:l -cache:il2 dl2 base_quicksort1244380907
	sim-cache -cache:dl1 dl1:1:32:256:l -cache:dl2 dl2:1:32:131072:l -cache:il1 il1:1:32:256:l -cache:il2 dl2 base_quicksort1244380907
	sim-cache -cache:dl1 dl1:1:32:256:l -cache:dl2 dl2:1:32:65536:l -cache:il1 il1:1:32:256:l -cache:il2 dl2 base_quicksort1244380907
	sim-bpred -bpred bimod -bpred:bimod 512 base_quicksort1244380907
	sim-bpred -bpred bimod -bpred:bimod 1024 base_quicksort1244380907
	sim-bpred -bpred bimod -bpred:bimod 2048 base_quicksort1244380907
	sim-bpred -bpred 2lev -bpred:2lev 1 512 10 1 base_quicksort1244380907
	sim-bpred -bpred 2lev -bpred:2lev 1 1024 10 1 base_quicksort1244380907
	sim-bpred -bpred 2lev -bpred:2lev 1 2048 10 1 base_quicksort1244380907
	sim-bpred -bpred 2lev -bpred:2lev 1 4096 10 1 base_quicksort1244380907
