Tue Jul 12 03:39:30 2005
Run as: "./do_simple -c random.org5 -o 5 base_quicksort7"
-------------------------------------------------------------------------------------------------
sim-cache                                     4096 |         4096 |         4096 |         4096 |         8192 |         8192 |         8192 |         8192 |        16384 |        16384 |        16384 |        16384 |        32768 |        32768 |        32768 |        32768 |        65536 |        65536 |        65536 |        65536 |       131072 |       131072 |       131072 |       131072 |       262144 |       262144 |       262144 |       262144 |       524288 |       524288 |       524288 |       524288 |      1048576 |      1048576 |      1048576 |      1048576 |      2097152 |      2097152 |      2097152 |      2097152 |      4194304 |      4194304 |      4194304 |      4194304 |
-cache:dl1 dl1:256:32:1:l -cache:dl2 dl2:131072:32:1:l -cache:il1 il1:256:32:1:l -cache:il2 dl2
-cache:dl1 dl1:256:32:1:l -cache:dl2 dl2:65536:32:1:l -cache:il1 il1:256:32:1:l -cache:il2 dl2
-cache:dl1 dl1:1:32:256:l -cache:dl2 dl2:1:32:131072:l -cache:il1 il1:1:32:256:l -cache:il2 dl2
-cache:dl1 dl1:1:32:256:l -cache:dl2 dl2:1:32:65536:l -cache:il1 il1:1:32:256:l -cache:il2 dl2
-------------------------------------------------------------------------------------------------
sim_num_insn                                479632 |       479632 |       479632 |       479632 |      1027811 |      1027811 |      1027811 |      1027811 |      2166299 |      2166299 |      2166299 |      2166299 |      4641511 |      4641511 |      4641511 |      4641511 |      9842350 |      9842350 |      9842350 |      9842350 |     20804701 |     20804701 |     20804701 |     20804701 |     44154447 |     44154447 |     44154447 |     44154447 |     91887508 |     91887508 |     91887508 |     91887508 |    196044583 |    196044583 |    196044583 |    196044583 |    415930927 |    415930927 |    415930927 |    415930927 |    853039516 |    853039516 |    853039516 |    853039516 |
sim_num_refs                                126567 |       126567 |       126567 |       126567 |       267165 |       267165 |       267165 |       267165 |       558808 |       558808 |       558808 |       558808 |      1187481 |      1187481 |      1187481 |      1187481 |      2507246 |      2507246 |      2507246 |      2507246 |      5269925 |      5269925 |      5269925 |      5269925 |     11116892 |     11116892 |     11116892 |     11116892 |     23170681 |     23170681 |     23170681 |     23170681 |     48960234 |     48960234 |     48960234 |     48960234 |    102954983 |    102954983 |    102954983 |    102954983 |    212282276 |    212282276 |    212282276 |    212282276 |
sim_elapsed_time                                 1 |            1 |            8 |            4 |            1 |            1 |           11 |            5 |            1 |            1 |           16 |            8 |            1 |            1 |           27 |           14 |            3 |            2 |           49 |           25 |            6 |            5 |           92 |           46 |           12 |           12 |          169 |           80 |           26 |           25 |          291 |          113 |           55 |           54 |          406 |          143 |          115 |          115 |          470 |          209 |          236 |          237 |          599 |          338 |
sim_inst_rate                          479632.0000 |  479632.0000 |   59954.0000 |  119908.0000 | 1027811.0000 | 1027811.0000 |   93437.3636 |  205562.2000 | 2166299.0000 | 2166299.0000 |  135393.6875 |  270787.3750 | 4641511.0000 | 4641511.0000 |  171907.8148 |  331536.5000 | 3280783.3333 | 4921175.0000 |  200864.2857 |  393694.0000 | 3467450.1667 | 4160940.2000 |  226138.0543 |  452276.1087 | 3679537.2500 | 3679537.2500 |  261268.9172 |  551930.5875 | 3534134.9231 | 3675500.3200 |  315764.6323 |  813163.7876 | 3564446.9636 | 3630455.2407 |  482868.4310 | 1370941.1399 | 3616790.6696 | 3616790.6696 |  884959.4191 | 1990100.1292 | 3614574.2203 | 3599322.8523 | 1424106.0367 | 2523785.5503 |
il1.accesses                                479632 |       479632 |       479632 |       479632 |      1027811 |      1027811 |      1027811 |      1027811 |      2166299 |      2166299 |      2166299 |      2166299 |      4641511 |      4641511 |      4641511 |      4641511 |      9842350 |      9842350 |      9842350 |      9842350 |     20804701 |     20804701 |     20804701 |     20804701 |     44154447 |     44154447 |     44154447 |     44154447 |     91887508 |     91887508 |     91887508 |     91887508 |    196044583 |    196044583 |    196044583 |    196044583 |    415930927 |    415930927 |    415930927 |    415930927 |    853039516 |    853039516 |    853039516 |    853039516 |
il1.hits                                    479164 |       479164 |       479193 |       479193 |      1027342 |      1027342 |      1027370 |      1027370 |      2165818 |      2165818 |      2165854 |      2165854 |      4641041 |      4641041 |      4641069 |      4641069 |      9841880 |      9841880 |      9841908 |      9841908 |     20804232 |     20804232 |     20804260 |     20804260 |     44153978 |     44153978 |     44154006 |     44154006 |     91887039 |     91887039 |     91887067 |     91887067 |    196044114 |    196044114 |    196044142 |    196044142 |    415930458 |    415930458 |    415930486 |    415930486 |    853039047 |    853039047 |    853039075 |    853039075 |
il1.misses                                     468 |          468 |          439 |          439 |          469 |          469 |          441 |          441 |          481 |          481 |          445 |          445 |          470 |          470 |          442 |          442 |          470 |          470 |          442 |          442 |          469 |          469 |          441 |          441 |          469 |          469 |          441 |          441 |          469 |          469 |          441 |          441 |          469 |          469 |          441 |          441 |          469 |          469 |          441 |          441 |          469 |          469 |          441 |          441 |
il1.replacements                               226 |          226 |          183 |          183 |          227 |          227 |          185 |          185 |          241 |          241 |          189 |          189 |          229 |          229 |          186 |          186 |          229 |          229 |          186 |          186 |          229 |          229 |          185 |          185 |          229 |          229 |          185 |          185 |          229 |          229 |          185 |          185 |          229 |          229 |          185 |          185 |          229 |          229 |          185 |          185 |          229 |          229 |          185 |          185 |
il1.writebacks                                   0 |            0 |            0 |            0 |            0 |            0 |            0 |            0 |            0 |            0 |            0 |            0 |            0 |            0 |            0 |            0 |            0 |            0 |            0 |            0 |            0 |            0 |            0 |            0 |            0 |            0 |            0 |            0 |            0 |            0 |            0 |            0 |            0 |            0 |            0 |            0 |            0 |            0 |            0 |            0 |            0 |            0 |            0 |            0 |
il1.invalidations                                0 |            0 |            0 |            0 |            0 |            0 |            0 |            0 |            0 |            0 |            0 |            0 |            0 |            0 |            0 |            0 |            0 |            0 |            0 |            0 |            0 |            0 |            0 |            0 |            0 |            0 |            0 |            0 |            0 |            0 |            0 |            0 |            0 |            0 |            0 |            0 |            0 |            0 |            0 |            0 |            0 |            0 |            0 |            0 |
il1.miss_rate                               0.0010 |       0.0010 |       0.0009 |       0.0009 |       0.0005 |       0.0005 |       0.0004 |       0.0004 |       0.0002 |       0.0002 |       0.0002 |       0.0002 |       0.0001 |       0.0001 |       0.0001 |       0.0001 |       0.0000 |       0.0000 |       0.0000 |       0.0000 |       0.0000 |       0.0000 |       0.0000 |       0.0000 |       0.0000 |       0.0000 |       0.0000 |       0.0000 |       0.0000 |       0.0000 |       0.0000 |       0.0000 |       0.0000 |       0.0000 |       0.0000 |       0.0000 |       0.0000 |       0.0000 |       0.0000 |       0.0000 |       0.0000 |       0.0000 |       0.0000 |       0.0000 |
il1.repl_rate                               0.0005 |       0.0005 |       0.0004 |       0.0004 |       0.0002 |       0.0002 |       0.0002 |       0.0002 |       0.0001 |       0.0001 |       0.0001 |       0.0001 |       0.0000 |       0.0000 |       0.0000 |       0.0000 |       0.0000 |       0.0000 |       0.0000 |       0.0000 |       0.0000 |       0.0000 |       0.0000 |       0.0000 |       0.0000 |       0.0000 |       0.0000 |       0.0000 |       0.0000 |       0.0000 |       0.0000 |       0.0000 |       0.0000 |       0.0000 |       0.0000 |       0.0000 |       0.0000 |       0.0000 |       0.0000 |       0.0000 |       0.0000 |       0.0000 |       0.0000 |       0.0000 |
il1.wb_rate                                 0.0000 |       0.0000 |       0.0000 |       0.0000 |       0.0000 |       0.0000 |       0.0000 |       0.0000 |       0.0000 |       0.0000 |       0.0000 |       0.0000 |       0.0000 |       0.0000 |       0.0000 |       0.0000 |       0.0000 |       0.0000 |       0.0000 |       0.0000 |       0.0000 |       0.0000 |       0.0000 |       0.0000 |       0.0000 |       0.0000 |       0.0000 |       0.0000 |       0.0000 |       0.0000 |       0.0000 |       0.0000 |       0.0000 |       0.0000 |       0.0000 |       0.0000 |       0.0000 |       0.0000 |       0.0000 |       0.0000 |       0.0000 |       0.0000 |       0.0000 |       0.0000 |
il1.inv_rate                                0.0000 |       0.0000 |       0.0000 |       0.0000 |       0.0000 |       0.0000 |       0.0000 |       0.0000 |       0.0000 |       0.0000 |       0.0000 |       0.0000 |       0.0000 |       0.0000 |       0.0000 |       0.0000 |       0.0000 |       0.0000 |       0.0000 |       0.0000 |       0.0000 |       0.0000 |       0.0000 |       0.0000 |       0.0000 |       0.0000 |       0.0000 |       0.0000 |       0.0000 |       0.0000 |       0.0000 |       0.0000 |       0.0000 |       0.0000 |       0.0000 |       0.0000 |       0.0000 |       0.0000 |       0.0000 |       0.0000 |       0.0000 |       0.0000 |       0.0000 |       0.0000 |
dl1.accesses                                143033 |       143033 |       143033 |       143033 |       300015 |       300015 |       300015 |       300015 |       624426 |       624426 |       624426 |       624426 |      1318635 |      1318635 |      1318635 |      1318635 |      2769472 |      2769472 |      2769472 |      2769472 |      5794295 |      5794295 |      5794295 |      5794295 |     12165550 |     12165550 |     12165550 |     12165550 |     25267915 |     25267915 |     25267915 |     25267915 |     53154620 |     53154620 |     53154620 |     53154620 |    111343673 |    111343673 |    111343673 |    111343673 |    229059574 |    229059574 |    229059574 |    229059574 |
dl1.hits                                    140375 |       140375 |       140322 |       140322 |       294071 |       294071 |       294088 |       294088 |       611217 |       611217 |       611229 |       611229 |      1287486 |      1287486 |      1287444 |      1287444 |      2699007 |      2699007 |      2699375 |      2699375 |      5636835 |      5636835 |      5637397 |      5637397 |     11806233 |     11806233 |     11808072 |     11808072 |     24502054 |     24502054 |     24508020 |     24508020 |     51396212 |     51396212 |     51412284 |     51412284 |    107409880 |    107409880 |    107451363 |    107451363 |    220988323 |    220988323 |    221085763 |    221085763 |
dl1.misses                                    2658 |         2658 |         2711 |         2711 |         5944 |         5944 |         5927 |         5927 |        13209 |        13209 |        13197 |        13197 |        31149 |        31149 |        31191 |        31191 |        70465 |        70465 |        70097 |        70097 |       157460 |       157460 |       156898 |       156898 |       359317 |       359317 |       357478 |       357478 |       765861 |       765861 |       759895 |       759895 |      1758408 |      1758408 |      1742336 |      1742336 |      3933793 |      3933793 |      3892310 |      3892310 |      8071251 |      8071251 |      7973811 |      7973811 |
dl1.replacements                              2402 |         2402 |         2455 |         2455 |         5688 |         5688 |         5671 |         5671 |        12953 |        12953 |        12941 |        12941 |        30893 |        30893 |        30935 |        30935 |        70209 |        70209 |        69841 |        69841 |       157204 |       157204 |       156642 |       156642 |       359061 |       359061 |       357222 |       357222 |       765605 |       765605 |       759639 |       759639 |      1758152 |      1758152 |      1742080 |      1742080 |      3933537 |      3933537 |      3892054 |      3892054 |      8070995 |      8070995 |      7973555 |      7973555 |
dl1.writebacks                                2300 |         2300 |         2368 |         2368 |         5482 |         5482 |         5508 |         5508 |        12676 |        12676 |        12755 |        12755 |        29909 |        29909 |        30219 |        30219 |        67627 |        67627 |        67873 |        67873 |       151992 |       151992 |       152880 |       152880 |       342967 |       342967 |       344704 |       344704 |       740553 |       740553 |       742871 |       742871 |      1663657 |      1663657 |      1665818 |      1665818 |      3653874 |      3653874 |      3654211 |      3654211 |      7692441 |      7692441 |      7687678 |      7687678 |
dl1.invalidations                                0 |            0 |            0 |            0 |            0 |            0 |            0 |            0 |            0 |            0 |            0 |            0 |            0 |            0 |            0 |            0 |            0 |            0 |            0 |            0 |            0 |            0 |            0 |            0 |            0 |            0 |            0 |            0 |            0 |            0 |            0 |            0 |            0 |            0 |            0 |            0 |            0 |            0 |            0 |            0 |            0 |            0 |            0 |            0 |
dl1.miss_rate                               0.0186 |       0.0186 |       0.0190 |       0.0190 |       0.0198 |       0.0198 |       0.0198 |       0.0198 |       0.0212 |       0.0212 |       0.0211 |       0.0211 |       0.0236 |       0.0236 |       0.0237 |       0.0237 |       0.0254 |       0.0254 |       0.0253 |       0.0253 |       0.0272 |       0.0272 |       0.0271 |       0.0271 |       0.0295 |       0.0295 |       0.0294 |       0.0294 |       0.0303 |       0.0303 |       0.0301 |       0.0301 |       0.0331 |       0.0331 |       0.0328 |       0.0328 |       0.0353 |       0.0353 |       0.0350 |       0.0350 |       0.0352 |       0.0352 |       0.0348 |       0.0348 |
dl1.repl_rate                               0.0168 |       0.0168 |       0.0172 |       0.0172 |       0.0190 |       0.0190 |       0.0189 |       0.0189 |       0.0207 |       0.0207 |       0.0207 |       0.0207 |       0.0234 |       0.0234 |       0.0235 |       0.0235 |       0.0254 |       0.0254 |       0.0252 |       0.0252 |       0.0271 |       0.0271 |       0.0270 |       0.0270 |       0.0295 |       0.0295 |       0.0294 |       0.0294 |       0.0303 |       0.0303 |       0.0301 |       0.0301 |       0.0331 |       0.0331 |       0.0328 |       0.0328 |       0.0353 |       0.0353 |       0.0350 |       0.0350 |       0.0352 |       0.0352 |       0.0348 |       0.0348 |
dl1.wb_rate                                 0.0161 |       0.0161 |       0.0166 |       0.0166 |       0.0183 |       0.0183 |       0.0184 |       0.0184 |       0.0203 |       0.0203 |       0.0204 |       0.0204 |       0.0227 |       0.0227 |       0.0229 |       0.0229 |       0.0244 |       0.0244 |       0.0245 |       0.0245 |       0.0262 |       0.0262 |       0.0264 |       0.0264 |       0.0282 |       0.0282 |       0.0283 |       0.0283 |       0.0293 |       0.0293 |       0.0294 |       0.0294 |       0.0313 |       0.0313 |       0.0313 |       0.0313 |       0.0328 |       0.0328 |       0.0328 |       0.0328 |       0.0336 |       0.0336 |       0.0336 |       0.0336 |
dl1.inv_rate                                0.0000 |       0.0000 |       0.0000 |       0.0000 |       0.0000 |       0.0000 |       0.0000 |       0.0000 |       0.0000 |       0.0000 |       0.0000 |       0.0000 |       0.0000 |       0.0000 |       0.0000 |       0.0000 |       0.0000 |       0.0000 |       0.0000 |       0.0000 |       0.0000 |       0.0000 |       0.0000 |       0.0000 |       0.0000 |       0.0000 |       0.0000 |       0.0000 |       0.0000 |       0.0000 |       0.0000 |       0.0000 |       0.0000 |       0.0000 |       0.0000 |       0.0000 |       0.0000 |       0.0000 |       0.0000 |       0.0000 |       0.0000 |       0.0000 |       0.0000 |       0.0000 |
dl2.accesses                                  5426 |         5426 |         5518 |         5518 |        11895 |        11895 |        11876 |        11876 |        26366 |        26366 |        26397 |        26397 |        61528 |        61528 |        61852 |        61852 |       138562 |       138562 |       138412 |       138412 |       309921 |       309921 |       310219 |       310219 |       702753 |       702753 |       702623 |       702623 |      1506883 |      1506883 |      1503207 |      1503207 |      3422534 |      3422534 |      3408595 |      3408595 |      7588136 |      7588136 |      7546962 |      7546962 |     15764161 |     15764161 |     15661930 |     15661930 |
dl2.hits                                      4040 |         4040 |         4146 |         4146 |         9995 |         9995 |         9990 |         9990 |        23445 |        23445 |        23493 |        23493 |        56562 |        56562 |        56900 |        56900 |       129500 |       129500 |       129364 |       129364 |       292668 |       292668 |       292980 |       292980 |       669116 |       669116 |       669000 |       669000 |      1440478 |      1439725 |      1436816 |      1384173 |      3289828 |      2968302 |      3232530 |      2898467 |      6575768 |      6208881 |      6439186 |      6111523 |     13287448 |     12683570 |     12978983 |     12464054 |
dl2.misses                                    1386 |         1386 |         1372 |         1372 |         1900 |         1900 |         1886 |         1886 |         2921 |         2921 |         2904 |         2904 |         4966 |         4966 |         4952 |         4952 |         9062 |         9062 |         9048 |         9048 |        17253 |        17253 |        17239 |        17239 |        33637 |        33637 |        33623 |        33623 |        66405 |        67158 |        66391 |       119034 |       132706 |       454232 |       176065 |       510128 |      1012368 |      1379255 |      1107776 |      1435439 |      2476713 |      3080591 |      2682947 |      3197876 |
dl2.replacements                               171 |          171 |            0 |            0 |          170 |          170 |            0 |            0 |          171 |          171 |            0 |            0 |          169 |          169 |            0 |            0 |          169 |          169 |            0 |            0 |          169 |          169 |            0 |            0 |          169 |          169 |            0 |            0 |          169 |         1622 |            0 |        53498 |         1634 |       388696 |        44993 |       444592 |       881296 |      1313719 |       976704 |      1369903 |      2345641 |      3015055 |      2551875 |      3132340 |
dl2.writebacks                                 104 |          104 |            0 |            0 |          104 |          104 |            0 |            0 |          105 |          105 |            0 |            0 |          104 |          104 |            0 |            0 |          104 |          104 |            0 |            0 |          104 |          104 |            0 |            0 |          104 |          104 |            0 |            0 |          104 |         1296 |            0 |        53074 |         1309 |       384159 |        44683 |       439917 |       850344 |      1254106 |       940948 |      1306139 |      2328518 |      2982155 |      2527635 |      3096876 |
dl2.invalidations                                0 |            0 |            0 |            0 |            0 |            0 |            0 |            0 |            0 |            0 |            0 |            0 |            0 |            0 |            0 |            0 |            0 |            0 |            0 |            0 |            0 |            0 |            0 |            0 |            0 |            0 |            0 |            0 |            0 |            0 |            0 |            0 |            0 |            0 |            0 |            0 |            0 |            0 |            0 |            0 |            0 |            0 |            0 |            0 |
dl2.miss_rate                               0.2554 |       0.2554 |       0.2486 |       0.2486 |       0.1597 |       0.1597 |       0.1588 |       0.1588 |       0.1108 |       0.1108 |       0.1100 |       0.1100 |       0.0807 |       0.0807 |       0.0801 |       0.0801 |       0.0654 |       0.0654 |       0.0654 |       0.0654 |       0.0557 |       0.0557 |       0.0556 |       0.0556 |       0.0479 |       0.0479 |       0.0479 |       0.0479 |       0.0441 |       0.0446 |       0.0442 |       0.0792 |       0.0388 |       0.1327 |       0.0517 |       0.1497 |       0.1334 |       0.1818 |       0.1468 |       0.1902 |       0.1571 |       0.1954 |       0.1713 |       0.2042 |
dl2.repl_rate                               0.0315 |       0.0315 |       0.0000 |       0.0000 |       0.0143 |       0.0143 |       0.0000 |       0.0000 |       0.0065 |       0.0065 |       0.0000 |       0.0000 |       0.0027 |       0.0027 |       0.0000 |       0.0000 |       0.0012 |       0.0012 |       0.0000 |       0.0000 |       0.0005 |       0.0005 |       0.0000 |       0.0000 |       0.0002 |       0.0002 |       0.0000 |       0.0000 |       0.0001 |       0.0011 |       0.0000 |       0.0356 |       0.0005 |       0.1136 |       0.0132 |       0.1304 |       0.1161 |       0.1731 |       0.1294 |       0.1815 |       0.1488 |       0.1913 |       0.1629 |       0.2000 |
dl2.wb_rate                                 0.0192 |       0.0192 |       0.0000 |       0.0000 |       0.0087 |       0.0087 |       0.0000 |       0.0000 |       0.0040 |       0.0040 |       0.0000 |       0.0000 |       0.0017 |       0.0017 |       0.0000 |       0.0000 |       0.0008 |       0.0008 |       0.0000 |       0.0000 |       0.0003 |       0.0003 |       0.0000 |       0.0000 |       0.0001 |       0.0001 |       0.0000 |       0.0000 |       0.0001 |       0.0009 |       0.0000 |       0.0353 |       0.0004 |       0.1122 |       0.0131 |       0.1291 |       0.1121 |       0.1653 |       0.1247 |       0.1731 |       0.1477 |       0.1892 |       0.1614 |       0.1977 |
dl2.inv_rate                                0.0000 |       0.0000 |       0.0000 |       0.0000 |       0.0000 |       0.0000 |       0.0000 |       0.0000 |       0.0000 |       0.0000 |       0.0000 |       0.0000 |       0.0000 |       0.0000 |       0.0000 |       0.0000 |       0.0000 |       0.0000 |       0.0000 |       0.0000 |       0.0000 |       0.0000 |       0.0000 |       0.0000 |       0.0000 |       0.0000 |       0.0000 |       0.0000 |       0.0000 |       0.0000 |       0.0000 |       0.0000 |       0.0000 |       0.0000 |       0.0000 |       0.0000 |       0.0000 |       0.0000 |       0.0000 |       0.0000 |       0.0000 |       0.0000 |       0.0000 |       0.0000 |
itlb.accesses                               479632 |       479632 |       479632 |       479632 |      1027811 |      1027811 |      1027811 |      1027811 |      2166299 |      2166299 |      2166299 |      2166299 |      4641511 |      4641511 |      4641511 |      4641511 |      9842350 |      9842350 |      9842350 |      9842350 |     20804701 |     20804701 |     20804701 |     20804701 |     44154447 |     44154447 |     44154447 |     44154447 |     91887508 |     91887508 |     91887508 |     91887508 |    196044583 |    196044583 |    196044583 |    196044583 |    415930927 |    415930927 |    415930927 |    415930927 |    853039516 |    853039516 |    853039516 |    853039516 |
itlb.hits                                   479622 |       479622 |       479622 |       479622 |      1027801 |      1027801 |      1027801 |      1027801 |      2166289 |      2166289 |      2166289 |      2166289 |      4641501 |      4641501 |      4641501 |      4641501 |      9842340 |      9842340 |      9842340 |      9842340 |     20804691 |     20804691 |     20804691 |     20804691 |     44154437 |     44154437 |     44154437 |     44154437 |     91887498 |     91887498 |     91887498 |     91887498 |    196044573 |    196044573 |    196044573 |    196044573 |    415930917 |    415930917 |    415930917 |    415930917 |    853039506 |    853039506 |    853039506 |    853039506 |
itlb.misses                                     10 |           10 |           10 |           10 |           10 |           10 |           10 |           10 |           10 |           10 |           10 |           10 |           10 |           10 |           10 |           10 |           10 |           10 |           10 |           10 |           10 |           10 |           10 |           10 |           10 |           10 |           10 |           10 |           10 |           10 |           10 |           10 |           10 |           10 |           10 |           10 |           10 |           10 |           10 |           10 |           10 |           10 |           10 |           10 |
itlb.replacements                                0 |            0 |            0 |            0 |            0 |            0 |            0 |            0 |            0 |            0 |            0 |            0 |            0 |            0 |            0 |            0 |            0 |            0 |            0 |            0 |            0 |            0 |            0 |            0 |            0 |            0 |            0 |            0 |            0 |            0 |            0 |            0 |            0 |            0 |            0 |            0 |            0 |            0 |            0 |            0 |            0 |            0 |            0 |            0 |
itlb.writebacks                                  0 |            0 |            0 |            0 |            0 |            0 |            0 |            0 |            0 |            0 |            0 |            0 |            0 |            0 |            0 |            0 |            0 |            0 |            0 |            0 |            0 |            0 |            0 |            0 |            0 |            0 |            0 |            0 |            0 |            0 |            0 |            0 |            0 |            0 |            0 |            0 |            0 |            0 |            0 |            0 |            0 |            0 |            0 |            0 |
itlb.invalidations                               0 |            0 |            0 |            0 |            0 |            0 |            0 |            0 |            0 |            0 |            0 |            0 |            0 |            0 |            0 |            0 |            0 |            0 |            0 |            0 |            0 |            0 |            0 |            0 |            0 |            0 |            0 |            0 |            0 |            0 |            0 |            0 |            0 |            0 |            0 |            0 |            0 |            0 |            0 |            0 |            0 |            0 |            0 |            0 |
itlb.miss_rate                              0.0000 |       0.0000 |       0.0000 |       0.0000 |       0.0000 |       0.0000 |       0.0000 |       0.0000 |       0.0000 |       0.0000 |       0.0000 |       0.0000 |       0.0000 |       0.0000 |       0.0000 |       0.0000 |       0.0000 |       0.0000 |       0.0000 |       0.0000 |       0.0000 |       0.0000 |       0.0000 |       0.0000 |       0.0000 |       0.0000 |       0.0000 |       0.0000 |       0.0000 |       0.0000 |       0.0000 |       0.0000 |       0.0000 |       0.0000 |       0.0000 |       0.0000 |       0.0000 |       0.0000 |       0.0000 |       0.0000 |       0.0000 |       0.0000 |       0.0000 |       0.0000 |
itlb.repl_rate                              0.0000 |       0.0000 |       0.0000 |       0.0000 |       0.0000 |       0.0000 |       0.0000 |       0.0000 |       0.0000 |       0.0000 |       0.0000 |       0.0000 |       0.0000 |       0.0000 |       0.0000 |       0.0000 |       0.0000 |       0.0000 |       0.0000 |       0.0000 |       0.0000 |       0.0000 |       0.0000 |       0.0000 |       0.0000 |       0.0000 |       0.0000 |       0.0000 |       0.0000 |       0.0000 |       0.0000 |       0.0000 |       0.0000 |       0.0000 |       0.0000 |       0.0000 |       0.0000 |       0.0000 |       0.0000 |       0.0000 |       0.0000 |       0.0000 |       0.0000 |       0.0000 |
itlb.wb_rate                                0.0000 |       0.0000 |       0.0000 |       0.0000 |       0.0000 |       0.0000 |       0.0000 |       0.0000 |       0.0000 |       0.0000 |       0.0000 |       0.0000 |       0.0000 |       0.0000 |       0.0000 |       0.0000 |       0.0000 |       0.0000 |       0.0000 |       0.0000 |       0.0000 |       0.0000 |       0.0000 |       0.0000 |       0.0000 |       0.0000 |       0.0000 |       0.0000 |       0.0000 |       0.0000 |       0.0000 |       0.0000 |       0.0000 |       0.0000 |       0.0000 |       0.0000 |       0.0000 |       0.0000 |       0.0000 |       0.0000 |       0.0000 |       0.0000 |       0.0000 |       0.0000 |
itlb.inv_rate                               0.0000 |       0.0000 |       0.0000 |       0.0000 |       0.0000 |       0.0000 |       0.0000 |       0.0000 |       0.0000 |       0.0000 |       0.0000 |       0.0000 |       0.0000 |       0.0000 |       0.0000 |       0.0000 |       0.0000 |       0.0000 |       0.0000 |       0.0000 |       0.0000 |       0.0000 |       0.0000 |       0.0000 |       0.0000 |       0.0000 |       0.0000 |       0.0000 |       0.0000 |       0.0000 |       0.0000 |       0.0000 |       0.0000 |       0.0000 |       0.0000 |       0.0000 |       0.0000 |       0.0000 |       0.0000 |       0.0000 |       0.0000 |       0.0000 |       0.0000 |       0.0000 |
dtlb.accesses                               143033 |       143033 |       143033 |       143033 |       300015 |       300015 |       300015 |       300015 |       624426 |       624426 |       624426 |       624426 |      1318635 |      1318635 |      1318635 |      1318635 |      2769472 |      2769472 |      2769472 |      2769472 |      5794295 |      5794295 |      5794295 |      5794295 |     12165550 |     12165550 |     12165550 |     12165550 |     25267915 |     25267915 |     25267915 |     25267915 |     53154620 |     53154620 |     53154620 |     53154620 |    111343673 |    111343673 |    111343673 |    111343673 |    229059574 |    229059574 |    229059574 |    229059574 |
dtlb.hits                                   143021 |       143021 |       143021 |       143021 |       299999 |       299999 |       299999 |       299999 |       624402 |       624402 |       624402 |       624402 |      1318595 |      1318595 |      1318595 |      1318595 |      2769400 |      2769400 |      2769400 |      2769400 |      5794122 |      5794122 |      5794122 |      5794122 |     12164534 |     12164534 |     12164534 |     12164534 |     25265394 |     25265394 |     25265394 |     25265394 |     53147736 |     53147736 |     53147736 |     53147736 |    111326932 |    111326932 |    111326932 |    111326932 |    229024965 |    229024965 |    229024965 |    229024965 |
dtlb.misses                                     12 |           12 |           12 |           12 |           16 |           16 |           16 |           16 |           24 |           24 |           24 |           24 |           40 |           40 |           40 |           40 |           72 |           72 |           72 |           72 |          173 |          173 |          173 |          173 |         1016 |         1016 |         1016 |         1016 |         2521 |         2521 |         2521 |         2521 |         6884 |         6884 |         6884 |         6884 |        16741 |        16741 |        16741 |        16741 |        34609 |        34609 |        34609 |        34609 |
dtlb.replacements                                0 |            0 |            0 |            0 |            0 |            0 |            0 |            0 |            0 |            0 |            0 |            0 |            0 |            0 |            0 |            0 |            0 |            0 |            0 |            0 |           45 |           45 |           45 |           45 |          888 |          888 |          888 |          888 |         2393 |         2393 |         2393 |         2393 |         6756 |         6756 |         6756 |         6756 |        16613 |        16613 |        16613 |        16613 |        34481 |        34481 |        34481 |        34481 |
dtlb.writebacks                                  0 |            0 |            0 |            0 |            0 |            0 |            0 |            0 |            0 |            0 |            0 |            0 |            0 |            0 |            0 |            0 |            0 |            0 |            0 |            0 |           43 |           43 |           43 |           43 |          884 |          884 |          884 |          884 |         2385 |         2385 |         2385 |         2385 |         6737 |         6737 |         6737 |         6737 |        16580 |        16580 |        16580 |        16580 |        34419 |        34419 |        34419 |        34419 |
dtlb.invalidations                               0 |            0 |            0 |            0 |            0 |            0 |            0 |            0 |            0 |            0 |            0 |            0 |            0 |            0 |            0 |            0 |            0 |            0 |            0 |            0 |            0 |            0 |            0 |            0 |            0 |            0 |            0 |            0 |            0 |            0 |            0 |            0 |            0 |            0 |            0 |            0 |            0 |            0 |            0 |            0 |            0 |            0 |            0 |            0 |
dtlb.miss_rate                              0.0001 |       0.0001 |       0.0001 |       0.0001 |       0.0001 |       0.0001 |       0.0001 |       0.0001 |       0.0000 |       0.0000 |       0.0000 |       0.0000 |       0.0000 |       0.0000 |       0.0000 |       0.0000 |       0.0000 |       0.0000 |       0.0000 |       0.0000 |       0.0000 |       0.0000 |       0.0000 |       0.0000 |       0.0001 |       0.0001 |       0.0001 |       0.0001 |       0.0001 |       0.0001 |       0.0001 |       0.0001 |       0.0001 |       0.0001 |       0.0001 |       0.0001 |       0.0002 |       0.0002 |       0.0002 |       0.0002 |       0.0002 |       0.0002 |       0.0002 |       0.0002 |
dtlb.repl_rate                              0.0000 |       0.0000 |       0.0000 |       0.0000 |       0.0000 |       0.0000 |       0.0000 |       0.0000 |       0.0000 |       0.0000 |       0.0000 |       0.0000 |       0.0000 |       0.0000 |       0.0000 |       0.0000 |       0.0000 |       0.0000 |       0.0000 |       0.0000 |       0.0000 |       0.0000 |       0.0000 |       0.0000 |       0.0001 |       0.0001 |       0.0001 |       0.0001 |       0.0001 |       0.0001 |       0.0001 |       0.0001 |       0.0001 |       0.0001 |       0.0001 |       0.0001 |       0.0001 |       0.0001 |       0.0001 |       0.0001 |       0.0002 |       0.0002 |       0.0002 |       0.0002 |
dtlb.wb_rate                                0.0000 |       0.0000 |       0.0000 |       0.0000 |       0.0000 |       0.0000 |       0.0000 |       0.0000 |       0.0000 |       0.0000 |       0.0000 |       0.0000 |       0.0000 |       0.0000 |       0.0000 |       0.0000 |       0.0000 |       0.0000 |       0.0000 |       0.0000 |       0.0000 |       0.0000 |       0.0000 |       0.0000 |       0.0001 |       0.0001 |       0.0001 |       0.0001 |       0.0001 |       0.0001 |       0.0001 |       0.0001 |       0.0001 |       0.0001 |       0.0001 |       0.0001 |       0.0001 |       0.0001 |       0.0001 |       0.0001 |       0.0002 |       0.0002 |       0.0002 |       0.0002 |
dtlb.inv_rate                               0.0000 |       0.0000 |       0.0000 |       0.0000 |       0.0000 |       0.0000 |       0.0000 |       0.0000 |       0.0000 |       0.0000 |       0.0000 |       0.0000 |       0.0000 |       0.0000 |       0.0000 |       0.0000 |       0.0000 |       0.0000 |       0.0000 |       0.0000 |       0.0000 |       0.0000 |       0.0000 |       0.0000 |       0.0000 |       0.0000 |       0.0000 |       0.0000 |       0.0000 |       0.0000 |       0.0000 |       0.0000 |       0.0000 |       0.0000 |       0.0000 |       0.0000 |       0.0000 |       0.0000 |       0.0000 |       0.0000 |       0.0000 |       0.0000 |       0.0000 |       0.0000 |
ld_text_base                            0x00400000 |   0x00400000 |   0x00400000 |   0x00400000 |   0x00400000 |   0x00400000 |   0x00400000 |   0x00400000 |   0x00400000 |   0x00400000 |   0x00400000 |   0x00400000 |   0x00400000 |   0x00400000 |   0x00400000 |   0x00400000 |   0x00400000 |   0x00400000 |   0x00400000 |   0x00400000 |   0x00400000 |   0x00400000 |   0x00400000 |   0x00400000 |   0x00400000 |   0x00400000 |   0x00400000 |   0x00400000 |   0x00400000 |   0x00400000 |   0x00400000 |   0x00400000 |   0x00400000 |   0x00400000 |   0x00400000 |   0x00400000 |   0x00400000 |   0x00400000 |   0x00400000 |   0x00400000 |   0x00400000 |   0x00400000 |   0x00400000 |   0x00400000 |
ld_text_size                                 74064 |        74064 |        74064 |        74064 |        74096 |        74096 |        74096 |        74096 |        74112 |        74112 |        74112 |        74112 |        74128 |        74128 |        74128 |        74128 |        74128 |        74128 |        74128 |        74128 |        74128 |        74128 |        74128 |        74128 |        74128 |        74128 |        74128 |        74128 |        74128 |        74128 |        74128 |        74128 |        74128 |        74128 |        74128 |        74128 |        74128 |        74128 |        74128 |        74128 |        74128 |        74128 |        74128 |        74128 |
ld_data_base                            0x10000000 |   0x10000000 |   0x10000000 |   0x10000000 |   0x10000000 |   0x10000000 |   0x10000000 |   0x10000000 |   0x10000000 |   0x10000000 |   0x10000000 |   0x10000000 |   0x10000000 |   0x10000000 |   0x10000000 |   0x10000000 |   0x10000000 |   0x10000000 |   0x10000000 |   0x10000000 |   0x10000000 |   0x10000000 |   0x10000000 |   0x10000000 |   0x10000000 |   0x10000000 |   0x10000000 |   0x10000000 |   0x10000000 |   0x10000000 |   0x10000000 |   0x10000000 |   0x10000000 |   0x10000000 |   0x10000000 |   0x10000000 |   0x10000000 |   0x10000000 |   0x10000000 |   0x10000000 |   0x10000000 |   0x10000000 |   0x10000000 |   0x10000000 |
ld_data_size                                  8192 |         8192 |         8192 |         8192 |         8192 |         8192 |         8192 |         8192 |         8192 |         8192 |         8192 |         8192 |         8192 |         8192 |         8192 |         8192 |         8192 |         8192 |         8192 |         8192 |         8192 |         8192 |         8192 |         8192 |         8192 |         8192 |         8192 |         8192 |         8192 |         8192 |         8192 |         8192 |         8192 |         8192 |         8192 |         8192 |         8192 |         8192 |         8192 |         8192 |         8192 |         8192 |         8192 |         8192 |
ld_stack_base                           0x7fffc000 |   0x7fffc000 |   0x7fffc000 |   0x7fffc000 |   0x7fffc000 |   0x7fffc000 |   0x7fffc000 |   0x7fffc000 |   0x7fffc000 |   0x7fffc000 |   0x7fffc000 |   0x7fffc000 |   0x7fffc000 |   0x7fffc000 |   0x7fffc000 |   0x7fffc000 |   0x7fffc000 |   0x7fffc000 |   0x7fffc000 |   0x7fffc000 |   0x7fffc000 |   0x7fffc000 |   0x7fffc000 |   0x7fffc000 |   0x7fffc000 |   0x7fffc000 |   0x7fffc000 |   0x7fffc000 |   0x7fffc000 |   0x7fffc000 |   0x7fffc000 |   0x7fffc000 |   0x7fffc000 |   0x7fffc000 |   0x7fffc000 |   0x7fffc000 |   0x7fffc000 |   0x7fffc000 |   0x7fffc000 |   0x7fffc000 |   0x7fffc000 |   0x7fffc000 |   0x7fffc000 |   0x7fffc000 |
ld_stack_size                                16384 |        16384 |        16384 |        16384 |        16384 |        16384 |        16384 |        16384 |        16384 |        16384 |        16384 |        16384 |        16384 |        16384 |        16384 |        16384 |        16384 |        16384 |        16384 |        16384 |        16384 |        16384 |        16384 |        16384 |        16384 |        16384 |        16384 |        16384 |        16384 |        16384 |        16384 |        16384 |        16384 |        16384 |        16384 |        16384 |        16384 |        16384 |        16384 |        16384 |        16384 |        16384 |        16384 |        16384 |
ld_prog_entry                           0x00400140 |   0x00400140 |   0x00400140 |   0x00400140 |   0x00400140 |   0x00400140 |   0x00400140 |   0x00400140 |   0x00400140 |   0x00400140 |   0x00400140 |   0x00400140 |   0x00400140 |   0x00400140 |   0x00400140 |   0x00400140 |   0x00400140 |   0x00400140 |   0x00400140 |   0x00400140 |   0x00400140 |   0x00400140 |   0x00400140 |   0x00400140 |   0x00400140 |   0x00400140 |   0x00400140 |   0x00400140 |   0x00400140 |   0x00400140 |   0x00400140 |   0x00400140 |   0x00400140 |   0x00400140 |   0x00400140 |   0x00400140 |   0x00400140 |   0x00400140 |   0x00400140 |   0x00400140 |   0x00400140 |   0x00400140 |   0x00400140 |   0x00400140 |
ld_environ_base                         0x7fff8000 |   0x7fff8000 |   0x7fff8000 |   0x7fff8000 |   0x7fff8000 |   0x7fff8000 |   0x7fff8000 |   0x7fff8000 |   0x7fff8000 |   0x7fff8000 |   0x7fff8000 |   0x7fff8000 |   0x7fff8000 |   0x7fff8000 |   0x7fff8000 |   0x7fff8000 |   0x7fff8000 |   0x7fff8000 |   0x7fff8000 |   0x7fff8000 |   0x7fff8000 |   0x7fff8000 |   0x7fff8000 |   0x7fff8000 |   0x7fff8000 |   0x7fff8000 |   0x7fff8000 |   0x7fff8000 |   0x7fff8000 |   0x7fff8000 |   0x7fff8000 |   0x7fff8000 |   0x7fff8000 |   0x7fff8000 |   0x7fff8000 |   0x7fff8000 |   0x7fff8000 |   0x7fff8000 |   0x7fff8000 |   0x7fff8000 |   0x7fff8000 |   0x7fff8000 |   0x7fff8000 |   0x7fff8000 |
ld_target_big_endian                             0 |            0 |            0 |            0 |            0 |            0 |            0 |            0 |            0 |            0 |            0 |            0 |            0 |            0 |            0 |            0 |            0 |            0 |            0 |            0 |            0 |            0 |            0 |            0 |            0 |            0 |            0 |            0 |            0 |            0 |            0 |            0 |            0 |            0 |            0 |            0 |            0 |            0 |            0 |            0 |            0 |            0 |            0 |            0 |
mem.page_count                                  31 |           31 |           31 |           31 |           35 |           35 |           35 |           35 |           43 |           43 |           43 |           43 |           59 |           59 |           59 |           59 |           91 |           91 |           91 |           91 |          155 |          155 |          155 |          155 |          283 |          283 |          283 |          283 |          539 |          539 |          539 |          539 |         1051 |         1051 |         1051 |         1051 |         2075 |         2075 |         2075 |         2075 |         4123 |         4123 |         4123 |         4123 |
mem.page_mem                                  124k |         124k |         124k |         124k |         140k |         140k |         140k |         140k |         172k |         172k |         172k |         172k |         236k |         236k |         236k |         236k |         364k |         364k |         364k |         364k |         620k |         620k |         620k |         620k |        1132k |        1132k |        1132k |        1132k |        2156k |        2156k |        2156k |        2156k |        4204k |        4204k |        4204k |        4204k |        8300k |        8300k |        8300k |        8300k |       16492k |       16492k |       16492k |       16492k |
mem.ptab_misses                                 31 |           31 |           31 |           31 |           35 |           35 |           35 |           35 |           43 |           43 |           43 |           43 |           59 |           59 |           59 |           59 |           91 |           91 |           91 |           91 |          155 |          155 |          155 |          155 |          283 |          283 |          283 |          283 |          539 |          539 |          539 |          539 |         1051 |         1051 |         1051 |         1051 |         2075 |         2075 |         2075 |         2075 |         4123 |         4123 |         4123 |         4123 |
mem.ptab_accesses                          2663602 |      2663602 |      2663602 |      2663602 |      5170474 |      5170474 |      5170474 |      5170474 |     10373344 |     10373344 |     10373344 |     10373344 |     21662706 |     21662706 |     21662706 |     21662706 |     45367736 |     45367736 |     45367736 |     45367736 |     95266786 |     95266786 |     95266786 |     95266786 |    201408280 |    201408280 |    201408280 |    201408280 |    418545254 |    418545254 |    418545254 |    418545254 |    890946964 |    890946964 |    890946964 |    890946964 |   1886870446 |   1886870446 |   1886870446 |   1886870446 |   3870736604 |   3870736604 |   3870736604 |   3870736604 |
mem.ptab_miss_rate                          0.0000 |       0.0000 |       0.0000 |       0.0000 |       0.0000 |       0.0000 |       0.0000 |       0.0000 |       0.0000 |       0.0000 |       0.0000 |       0.0000 |       0.0000 |       0.0000 |       0.0000 |       0.0000 |       0.0000 |       0.0000 |       0.0000 |       0.0000 |       0.0000 |       0.0000 |       0.0000 |       0.0000 |       0.0000 |       0.0000 |       0.0000 |       0.0000 |       0.0000 |       0.0000 |       0.0000 |       0.0000 |       0.0000 |       0.0000 |       0.0000 |       0.0000 |       0.0000 |       0.0000 |       0.0000 |       0.0000 |       0.0000 |       0.0000 |       0.0000 |       0.0000 |
-------------------------------------------------------------------------------------------------
sim-bpred                                     4096 |         4096 |         4096 |         4096 |         4096 |         4096 |         4096 |         8192 |         8192 |         8192 |         8192 |         8192 |         8192 |         8192 |        16384 |        16384 |        16384 |        16384 |        16384 |        16384 |        16384 |        32768 |        32768 |        32768 |        32768 |        32768 |        32768 |        32768 |        65536 |        65536 |        65536 |        65536 |        65536 |        65536 |        65536 |       131072 |       131072 |       131072 |       131072 |       131072 |       131072 |       131072 |       262144 |       262144 |       262144 |       262144 |       262144 |       262144 |       262144 |       524288 |       524288 |       524288 |       524288 |       524288 |       524288 |       524288 |      1048576 |      1048576 |      1048576 |      1048576 |      1048576 |      1048576 |      1048576 |      2097152 |      2097152 |      2097152 |      2097152 |      2097152 |      2097152 |      2097152 |      4194304 |      4194304 |      4194304 |      4194304 |      4194304 |      4194304 |      4194304 |
-bpred bimod -bpred:bimod 512
-bpred bimod -bpred:bimod 1024
-bpred bimod -bpred:bimod 2048
-bpred 2lev -bpred:2lev 1 512 10 1
-bpred 2lev -bpred:2lev 1 1024 10 1
-bpred 2lev -bpred:2lev 1 2048 10 1
-bpred 2lev -bpred:2lev 1 4096 10 1
-------------------------------------------------------------------------------------------------
sim_num_insn                                479632 |       479632 |       479632 |       479632 |       479632 |       479632 |       479632 |      1027811 |      1027811 |      1027811 |      1027811 |      1027811 |      1027811 |      1027811 |      2166299 |      2166299 |      2166299 |      2166299 |      2166299 |      2166299 |      2166299 |      4641511 |      4641511 |      4641511 |      4641511 |      4641511 |      4641511 |      4641511 |      9842350 |      9842350 |      9842350 |      9842350 |      9842350 |      9842350 |      9842350 |     20804701 |     20804701 |     20804701 |     20804701 |     20804701 |     20804701 |     20804701 |     44154447 |     44154447 |     44154447 |     44154447 |     44154447 |     44154447 |     44154447 |     91887508 |     91887508 |     91887508 |     91887508 |     91887508 |     91887508 |     91887508 |    196044583 |    196044583 |    196044583 |    196044583 |    196044583 |    196044583 |    196044583 |    415930927 |    415930927 |    415930927 |    415930927 |    415930927 |    415930927 |    415930927 |    853039516 |    853039516 |    853039516 |    853039516 |    853039516 |    853039516 |    853039516 |
sim_num_refs                                126567 |       126567 |       126567 |       126567 |       126567 |       126567 |       126567 |       267165 |       267165 |       267165 |       267165 |       267165 |       267165 |       267165 |       558808 |       558808 |       558808 |       558808 |       558808 |       558808 |       558808 |      1187481 |      1187481 |      1187481 |      1187481 |      1187481 |      1187481 |      1187481 |      2507246 |      2507246 |      2507246 |      2507246 |      2507246 |      2507246 |      2507246 |      5269925 |      5269925 |      5269925 |      5269925 |      5269925 |      5269925 |      5269925 |     11116892 |     11116892 |     11116892 |     11116892 |     11116892 |     11116892 |     11116892 |     23170681 |     23170681 |     23170681 |     23170681 |     23170681 |     23170681 |     23170681 |     48960234 |     48960234 |     48960234 |     48960234 |     48960234 |     48960234 |     48960234 |    102954983 |    102954983 |    102954983 |    102954983 |    102954983 |    102954983 |    102954983 |    212282276 |    212282276 |    212282276 |    212282276 |    212282276 |    212282276 |    212282276 |
sim_elapsed_time                                 1 |            1 |            1 |            1 |            1 |            1 |            1 |            1 |            1 |            1 |            1 |            1 |            1 |            1 |            1 |            1 |            1 |            1 |            1 |            1 |            1 |            1 |            1 |            1 |            1 |            1 |            1 |            1 |            2 |            1 |            1 |            2 |            1 |            1 |            1 |            3 |            3 |            3 |            2 |            3 |            3 |            3 |            6 |            5 |            6 |            6 |            5 |            6 |            6 |           12 |           12 |           11 |           12 |           12 |           12 |           12 |           25 |           25 |           25 |           26 |           25 |           26 |           25 |           53 |           53 |           53 |           53 |           54 |           53 |           55 |          108 |          109 |          108 |          110 |          110 |          110 |          112 |
sim_inst_rate                          479632.0000 |  479632.0000 |  479632.0000 |  479632.0000 |  479632.0000 |  479632.0000 |  479632.0000 | 1027811.0000 | 1027811.0000 | 1027811.0000 | 1027811.0000 | 1027811.0000 | 1027811.0000 | 1027811.0000 | 2166299.0000 | 2166299.0000 | 2166299.0000 | 2166299.0000 | 2166299.0000 | 2166299.0000 | 2166299.0000 | 4641511.0000 | 4641511.0000 | 4641511.0000 | 4641511.0000 | 4641511.0000 | 4641511.0000 | 4641511.0000 | 4921175.0000 | 9842350.0000 | 9842350.0000 | 4921175.0000 | 9842350.0000 | 9842350.0000 | 9842350.0000 | 6934900.3333 | 6934900.3333 | 6934900.3333 |10402350.5000 | 6934900.3333 | 6934900.3333 | 6934900.3333 | 7359074.5000 | 8830889.4000 | 7359074.5000 | 7359074.5000 | 8830889.4000 | 7359074.5000 | 7359074.5000 | 7657292.3333 | 7657292.3333 | 8353409.8182 | 7657292.3333 | 7657292.3333 | 7657292.3333 | 7657292.3333 | 7841783.3200 | 7841783.3200 | 7841783.3200 | 7540176.2692 | 7841783.3200 | 7540176.2692 | 7841783.3200 | 7847753.3396 | 7847753.3396 | 7847753.3396 | 7847753.3396 | 7702424.5741 | 7847753.3396 | 7562380.4909 | 7898514.0370 | 7826050.6055 | 7898514.0370 | 7754904.6909 | 7754904.6909 | 7754904.6909 | 7616424.2500 |
sim_num_branches                             75735 |        75735 |        75735 |        75735 |        75735 |        75735 |        75735 |       164341 |       164341 |       164341 |       164341 |       164341 |       164341 |       164341 |       349116 |       349116 |       349116 |       349116 |       349116 |       349116 |       349116 |       753540 |       753540 |       753540 |       753540 |       753540 |       753540 |       753540 |      1609817 |      1609817 |      1609817 |      1609817 |      1609817 |      1609817 |      1609817 |      3421491 |      3421491 |      3421491 |      3421491 |      3421491 |      3421491 |      3421491 |      7297079 |      7297079 |      7297079 |      7297079 |      7297079 |      7297079 |      7297079 |     15251393 |     15251393 |     15251393 |     15251393 |     15251393 |     15251393 |     15251393 |     32713141 |     32713141 |     32713141 |     32713141 |     32713141 |     32713141 |     32713141 |     69565102 |     69565102 |     69565102 |     69565102 |     69565102 |     69565102 |     69565102 |    143084934 |    143084934 |    143084934 |    143084934 |    143084934 |    143084934 |    143084934 |
sim_IPB                                     6.3330 |       6.3330 |       6.3330 |       6.3330 |       6.3330 |       6.3330 |       6.3330 |       6.2541 |       6.2541 |       6.2541 |       6.2541 |       6.2541 |       6.2541 |       6.2541 |       6.2051 |       6.2051 |       6.2051 |       6.2051 |       6.2051 |       6.2051 |       6.2051 |       6.1596 |       6.1596 |       6.1596 |       6.1596 |       6.1596 |       6.1596 |       6.1596 |       6.1140 |       6.1140 |       6.1140 |       6.1140 |       6.1140 |       6.1140 |       6.1140 |       6.0806 |       6.0806 |       6.0806 |       6.0806 |       6.0806 |       6.0806 |       6.0806 |       6.0510 |       6.0510 |       6.0510 |       6.0510 |       6.0510 |       6.0510 |       6.0510 |       6.0249 |       6.0249 |       6.0249 |       6.0249 |       6.0249 |       6.0249 |       6.0249 |       5.9928 |       5.9928 |       5.9928 |       5.9928 |       5.9928 |       5.9928 |       5.9928 |       5.9790 |       5.9790 |       5.9790 |       5.9790 |       5.9790 |       5.9790 |       5.9790 |       5.9618 |       5.9618 |       5.9618 |       5.9618 |       5.9618 |       5.9618 |       5.9618 |
bpred_bimod.lookups                          75735 |        75735 |        75735 |xxxxxxxxxxxxx |xxxxxxxxxxxxx |xxxxxxxxxxxxx |xxxxxxxxxxxxx |       164341 |       164341 |       164341 |xxxxxxxxxxxxx |xxxxxxxxxxxxx |xxxxxxxxxxxxx |xxxxxxxxxxxxx |       349116 |       349116 |       349116 |xxxxxxxxxxxxx |xxxxxxxxxxxxx |xxxxxxxxxxxxx |xxxxxxxxxxxxx |       753540 |       753540 |       753540 |xxxxxxxxxxxxx |xxxxxxxxxxxxx |xxxxxxxxxxxxx |xxxxxxxxxxxxx |      1609817 |      1609817 |      1609817 |xxxxxxxxxxxxx |xxxxxxxxxxxxx |xxxxxxxxxxxxx |xxxxxxxxxxxxx |      3421491 |      3421491 |      3421491 |xxxxxxxxxxxxx |xxxxxxxxxxxxx |xxxxxxxxxxxxx |xxxxxxxxxxxxx |      7297079 |      7297079 |      7297079 |xxxxxxxxxxxxx |xxxxxxxxxxxxx |xxxxxxxxxxxxx |xxxxxxxxxxxxx |     15251393 |     15251393 |     15251393 |xxxxxxxxxxxxx |xxxxxxxxxxxxx |xxxxxxxxxxxxx |xxxxxxxxxxxxx |     32713141 |     32713141 |     32713141 |xxxxxxxxxxxxx |xxxxxxxxxxxxx |xxxxxxxxxxxxx |xxxxxxxxxxxxx |     69565102 |     69565102 |     69565102 |xxxxxxxxxxxxx |xxxxxxxxxxxxx |xxxxxxxxxxxxx |xxxxxxxxxxxxx |    143084934 |    143084934 |    143084934 |
bpred_bimod.updates                          75735 |        75735 |        75735 |xxxxxxxxxxxxx |xxxxxxxxxxxxx |xxxxxxxxxxxxx |xxxxxxxxxxxxx |       164341 |       164341 |       164341 |xxxxxxxxxxxxx |xxxxxxxxxxxxx |xxxxxxxxxxxxx |xxxxxxxxxxxxx |       349116 |       349116 |       349116 |xxxxxxxxxxxxx |xxxxxxxxxxxxx |xxxxxxxxxxxxx |xxxxxxxxxxxxx |       753540 |       753540 |       753540 |xxxxxxxxxxxxx |xxxxxxxxxxxxx |xxxxxxxxxxxxx |xxxxxxxxxxxxx |      1609817 |      1609817 |      1609817 |xxxxxxxxxxxxx |xxxxxxxxxxxxx |xxxxxxxxxxxxx |xxxxxxxxxxxxx |      3421491 |      3421491 |      3421491 |xxxxxxxxxxxxx |xxxxxxxxxxxxx |xxxxxxxxxxxxx |xxxxxxxxxxxxx |      7297079 |      7297079 |      7297079 |xxxxxxxxxxxxx |xxxxxxxxxxxxx |xxxxxxxxxxxxx |xxxxxxxxxxxxx |     15251393 |     15251393 |     15251393 |xxxxxxxxxxxxx |xxxxxxxxxxxxx |xxxxxxxxxxxxx |xxxxxxxxxxxxx |     32713141 |     32713141 |     32713141 |xxxxxxxxxxxxx |xxxxxxxxxxxxx |xxxxxxxxxxxxx |xxxxxxxxxxxxx |     69565102 |     69565102 |     69565102 |xxxxxxxxxxxxx |xxxxxxxxxxxxx |xxxxxxxxxxxxx |xxxxxxxxxxxxx |    143084934 |    143084934 |    143084934 |
bpred_bimod.addr_hits                        53002 |        53002 |        53003 |xxxxxxxxxxxxx |xxxxxxxxxxxxx |xxxxxxxxxxxxx |xxxxxxxxxxxxx |       114781 |       114783 |       114786 |xxxxxxxxxxxxx |xxxxxxxxxxxxx |xxxxxxxxxxxxx |xxxxxxxxxxxxx |       241551 |       241553 |       241553 |xxxxxxxxxxxxx |xxxxxxxxxxxxx |xxxxxxxxxxxxx |xxxxxxxxxxxxx |       527620 |       527621 |       527622 |xxxxxxxxxxxxx |xxxxxxxxxxxxx |xxxxxxxxxxxxx |xxxxxxxxxxxxx |      1126715 |      1126716 |      1126716 |xxxxxxxxxxxxx |xxxxxxxxxxxxx |xxxxxxxxxxxxx |xxxxxxxxxxxxx |      2396572 |      2396572 |      2396572 |xxxxxxxxxxxxx |xxxxxxxxxxxxx |xxxxxxxxxxxxx |xxxxxxxxxxxxx |      5148726 |      5148728 |      5148729 |xxxxxxxxxxxxx |xxxxxxxxxxxxx |xxxxxxxxxxxxx |xxxxxxxxxxxxx |     10615628 |     10615631 |     10615632 |xxxxxxxxxxxxx |xxxxxxxxxxxxx |xxxxxxxxxxxxx |xxxxxxxxxxxxx |     23279906 |     23279908 |     23279908 |xxxxxxxxxxxxx |xxxxxxxxxxxxx |xxxxxxxxxxxxx |xxxxxxxxxxxxx |     50063644 |     50063645 |     50063645 |xxxxxxxxxxxxx |xxxxxxxxxxxxx |xxxxxxxxxxxxx |xxxxxxxxxxxxx |    101050283 |    101050287 |    101050288 |
bpred_bimod.dir_hits                         53121 |        53118 |        53119 |xxxxxxxxxxxxx |xxxxxxxxxxxxx |xxxxxxxxxxxxx |xxxxxxxxxxxxx |       114903 |       114903 |       114904 |xxxxxxxxxxxxx |xxxxxxxxxxxxx |xxxxxxxxxxxxx |xxxxxxxxxxxxx |       241670 |       241668 |       241668 |xxxxxxxxxxxxx |xxxxxxxxxxxxx |xxxxxxxxxxxxx |xxxxxxxxxxxxx |       527738 |       527736 |       527737 |xxxxxxxxxxxxx |xxxxxxxxxxxxx |xxxxxxxxxxxxx |xxxxxxxxxxxxx |      1126835 |      1126832 |      1126831 |xxxxxxxxxxxxx |xxxxxxxxxxxxx |xxxxxxxxxxxxx |xxxxxxxxxxxxx |      2396693 |      2396689 |      2396687 |xxxxxxxxxxxxx |xxxxxxxxxxxxx |xxxxxxxxxxxxx |xxxxxxxxxxxxx |      5148845 |      5148843 |      5148844 |xxxxxxxxxxxxx |xxxxxxxxxxxxx |xxxxxxxxxxxxx |xxxxxxxxxxxxx |     10615746 |     10615746 |     10615746 |xxxxxxxxxxxxx |xxxxxxxxxxxxx |xxxxxxxxxxxxx |xxxxxxxxxxxxx |     23280027 |     23280025 |     23280024 |xxxxxxxxxxxxx |xxxxxxxxxxxxx |xxxxxxxxxxxxx |xxxxxxxxxxxxx |     50063767 |     50063764 |     50063762 |xxxxxxxxxxxxx |xxxxxxxxxxxxx |xxxxxxxxxxxxx |xxxxxxxxxxxxx |    101050399 |    101050399 |    101050400 |
bpred_bimod.misses                           22614 |        22617 |        22616 |xxxxxxxxxxxxx |xxxxxxxxxxxxx |xxxxxxxxxxxxx |xxxxxxxxxxxxx |        49438 |        49438 |        49437 |xxxxxxxxxxxxx |xxxxxxxxxxxxx |xxxxxxxxxxxxx |xxxxxxxxxxxxx |       107446 |       107448 |       107448 |xxxxxxxxxxxxx |xxxxxxxxxxxxx |xxxxxxxxxxxxx |xxxxxxxxxxxxx |       225802 |       225804 |       225803 |xxxxxxxxxxxxx |xxxxxxxxxxxxx |xxxxxxxxxxxxx |xxxxxxxxxxxxx |       482982 |       482985 |       482986 |xxxxxxxxxxxxx |xxxxxxxxxxxxx |xxxxxxxxxxxxx |xxxxxxxxxxxxx |      1024798 |      1024802 |      1024804 |xxxxxxxxxxxxx |xxxxxxxxxxxxx |xxxxxxxxxxxxx |xxxxxxxxxxxxx |      2148234 |      2148236 |      2148235 |xxxxxxxxxxxxx |xxxxxxxxxxxxx |xxxxxxxxxxxxx |xxxxxxxxxxxxx |      4635647 |      4635647 |      4635647 |xxxxxxxxxxxxx |xxxxxxxxxxxxx |xxxxxxxxxxxxx |xxxxxxxxxxxxx |      9433114 |      9433116 |      9433117 |xxxxxxxxxxxxx |xxxxxxxxxxxxx |xxxxxxxxxxxxx |xxxxxxxxxxxxx |     19501335 |     19501338 |     19501340 |xxxxxxxxxxxxx |xxxxxxxxxxxxx |xxxxxxxxxxxxx |xxxxxxxxxxxxx |     42034535 |     42034535 |     42034534 |
bpred_bimod.jr_hits                             64 |           64 |           64 |xxxxxxxxxxxxx |xxxxxxxxxxxxx |xxxxxxxxxxxxx |xxxxxxxxxxxxx |           64 |           64 |           64 |xxxxxxxxxxxxx |xxxxxxxxxxxxx |xxxxxxxxxxxxx |xxxxxxxxxxxxx |           64 |           64 |           64 |xxxxxxxxxxxxx |xxxxxxxxxxxxx |xxxxxxxxxxxxx |xxxxxxxxxxxxx |           64 |           64 |           64 |xxxxxxxxxxxxx |xxxxxxxxxxxxx |xxxxxxxxxxxxx |xxxxxxxxxxxxx |           64 |           64 |           64 |xxxxxxxxxxxxx |xxxxxxxxxxxxx |xxxxxxxxxxxxx |xxxxxxxxxxxxx |           64 |           64 |           64 |xxxxxxxxxxxxx |xxxxxxxxxxxxx |xxxxxxxxxxxxx |xxxxxxxxxxxxx |           64 |           64 |           64 |xxxxxxxxxxxxx |xxxxxxxxxxxxx |xxxxxxxxxxxxx |xxxxxxxxxxxxx |           64 |           64 |           64 |xxxxxxxxxxxxx |xxxxxxxxxxxxx |xxxxxxxxxxxxx |xxxxxxxxxxxxx |           64 |           64 |           64 |xxxxxxxxxxxxx |xxxxxxxxxxxxx |xxxxxxxxxxxxx |xxxxxxxxxxxxx |           64 |           64 |           64 |xxxxxxxxxxxxx |xxxxxxxxxxxxx |xxxxxxxxxxxxx |xxxxxxxxxxxxx |           64 |           64 |           64 |
bpred_bimod.jr_seen                             64 |           64 |           64 |xxxxxxxxxxxxx |xxxxxxxxxxxxx |xxxxxxxxxxxxx |xxxxxxxxxxxxx |           64 |           64 |           64 |xxxxxxxxxxxxx |xxxxxxxxxxxxx |xxxxxxxxxxxxx |xxxxxxxxxxxxx |           64 |           64 |           64 |xxxxxxxxxxxxx |xxxxxxxxxxxxx |xxxxxxxxxxxxx |xxxxxxxxxxxxx |           64 |           64 |           64 |xxxxxxxxxxxxx |xxxxxxxxxxxxx |xxxxxxxxxxxxx |xxxxxxxxxxxxx |           64 |           64 |           64 |xxxxxxxxxxxxx |xxxxxxxxxxxxx |xxxxxxxxxxxxx |xxxxxxxxxxxxx |           64 |           64 |           64 |xxxxxxxxxxxxx |xxxxxxxxxxxxx |xxxxxxxxxxxxx |xxxxxxxxxxxxx |           64 |           64 |           64 |xxxxxxxxxxxxx |xxxxxxxxxxxxx |xxxxxxxxxxxxx |xxxxxxxxxxxxx |           64 |           64 |           64 |xxxxxxxxxxxxx |xxxxxxxxxxxxx |xxxxxxxxxxxxx |xxxxxxxxxxxxx |           64 |           64 |           64 |xxxxxxxxxxxxx |xxxxxxxxxxxxx |xxxxxxxxxxxxx |xxxxxxxxxxxxx |           64 |           64 |           64 |xxxxxxxxxxxxx |xxxxxxxxxxxxx |xxxxxxxxxxxxx |xxxxxxxxxxxxx |           64 |           64 |           64 |
bpred_bimod.jr_non_ras_hits.PP                   0 |            0 |            0 |xxxxxxxxxxxxx |xxxxxxxxxxxxx |xxxxxxxxxxxxx |xxxxxxxxxxxxx |            0 |            0 |            0 |xxxxxxxxxxxxx |xxxxxxxxxxxxx |xxxxxxxxxxxxx |xxxxxxxxxxxxx |            0 |            0 |            0 |xxxxxxxxxxxxx |xxxxxxxxxxxxx |xxxxxxxxxxxxx |xxxxxxxxxxxxx |            0 |            0 |            0 |xxxxxxxxxxxxx |xxxxxxxxxxxxx |xxxxxxxxxxxxx |xxxxxxxxxxxxx |            0 |            0 |            0 |xxxxxxxxxxxxx |xxxxxxxxxxxxx |xxxxxxxxxxxxx |xxxxxxxxxxxxx |            0 |            0 |            0 |xxxxxxxxxxxxx |xxxxxxxxxxxxx |xxxxxxxxxxxxx |xxxxxxxxxxxxx |            0 |            0 |            0 |xxxxxxxxxxxxx |xxxxxxxxxxxxx |xxxxxxxxxxxxx |xxxxxxxxxxxxx |            0 |            0 |            0 |xxxxxxxxxxxxx |xxxxxxxxxxxxx |xxxxxxxxxxxxx |xxxxxxxxxxxxx |            0 |            0 |            0 |xxxxxxxxxxxxx |xxxxxxxxxxxxx |xxxxxxxxxxxxx |xxxxxxxxxxxxx |            0 |            0 |            0 |xxxxxxxxxxxxx |xxxxxxxxxxxxx |xxxxxxxxxxxxx |xxxxxxxxxxxxx |            0 |            0 |            0 |
bpred_bimod.jr_non_ras_seen.PP                   0 |            0 |            0 |xxxxxxxxxxxxx |xxxxxxxxxxxxx |xxxxxxxxxxxxx |xxxxxxxxxxxxx |            0 |            0 |            0 |xxxxxxxxxxxxx |xxxxxxxxxxxxx |xxxxxxxxxxxxx |xxxxxxxxxxxxx |            0 |            0 |            0 |xxxxxxxxxxxxx |xxxxxxxxxxxxx |xxxxxxxxxxxxx |xxxxxxxxxxxxx |            0 |            0 |            0 |xxxxxxxxxxxxx |xxxxxxxxxxxxx |xxxxxxxxxxxxx |xxxxxxxxxxxxx |            0 |            0 |            0 |xxxxxxxxxxxxx |xxxxxxxxxxxxx |xxxxxxxxxxxxx |xxxxxxxxxxxxx |            0 |            0 |            0 |xxxxxxxxxxxxx |xxxxxxxxxxxxx |xxxxxxxxxxxxx |xxxxxxxxxxxxx |            0 |            0 |            0 |xxxxxxxxxxxxx |xxxxxxxxxxxxx |xxxxxxxxxxxxx |xxxxxxxxxxxxx |            0 |            0 |            0 |xxxxxxxxxxxxx |xxxxxxxxxxxxx |xxxxxxxxxxxxx |xxxxxxxxxxxxx |            0 |            0 |            0 |xxxxxxxxxxxxx |xxxxxxxxxxxxx |xxxxxxxxxxxxx |xxxxxxxxxxxxx |            0 |            0 |            0 |xxxxxxxxxxxxx |xxxxxxxxxxxxx |xxxxxxxxxxxxx |xxxxxxxxxxxxx |            0 |            0 |            0 |
bpred_bimod.bpred_addr_rate                 0.6998 |       0.6998 |       0.6998 |xxxxxxxxxxxxx |xxxxxxxxxxxxx |xxxxxxxxxxxxx |xxxxxxxxxxxxx |       0.6984 |       0.6984 |       0.6985 |xxxxxxxxxxxxx |xxxxxxxxxxxxx |xxxxxxxxxxxxx |xxxxxxxxxxxxx |       0.6919 |       0.6919 |       0.6919 |xxxxxxxxxxxxx |xxxxxxxxxxxxx |xxxxxxxxxxxxx |xxxxxxxxxxxxx |       0.7002 |       0.7002 |       0.7002 |xxxxxxxxxxxxx |xxxxxxxxxxxxx |xxxxxxxxxxxxx |xxxxxxxxxxxxx |       0.6999 |       0.6999 |       0.6999 |xxxxxxxxxxxxx |xxxxxxxxxxxxx |xxxxxxxxxxxxx |xxxxxxxxxxxxx |       0.7004 |       0.7004 |       0.7004 |xxxxxxxxxxxxx |xxxxxxxxxxxxx |xxxxxxxxxxxxx |xxxxxxxxxxxxx |       0.7056 |       0.7056 |       0.7056 |xxxxxxxxxxxxx |xxxxxxxxxxxxx |xxxxxxxxxxxxx |xxxxxxxxxxxxx |       0.6960 |       0.6960 |       0.6960 |xxxxxxxxxxxxx |xxxxxxxxxxxxx |xxxxxxxxxxxxx |xxxxxxxxxxxxx |       0.7116 |       0.7116 |       0.7116 |xxxxxxxxxxxxx |xxxxxxxxxxxxx |xxxxxxxxxxxxx |xxxxxxxxxxxxx |       0.7197 |       0.7197 |       0.7197 |xxxxxxxxxxxxx |xxxxxxxxxxxxx |xxxxxxxxxxxxx |xxxxxxxxxxxxx |       0.7062 |       0.7062 |       0.7062 |
bpred_bimod.bpred_dir_rate                  0.7014 |       0.7014 |       0.7014 |xxxxxxxxxxxxx |xxxxxxxxxxxxx |xxxxxxxxxxxxx |xxxxxxxxxxxxx |       0.6992 |       0.6992 |       0.6992 |xxxxxxxxxxxxx |xxxxxxxxxxxxx |xxxxxxxxxxxxx |xxxxxxxxxxxxx |       0.6922 |       0.6922 |       0.6922 |xxxxxxxxxxxxx |xxxxxxxxxxxxx |xxxxxxxxxxxxx |xxxxxxxxxxxxx |       0.7003 |       0.7003 |       0.7003 |xxxxxxxxxxxxx |xxxxxxxxxxxxx |xxxxxxxxxxxxx |xxxxxxxxxxxxx |       0.7000 |       0.7000 |       0.7000 |xxxxxxxxxxxxx |xxxxxxxxxxxxx |xxxxxxxxxxxxx |xxxxxxxxxxxxx |       0.7005 |       0.7005 |       0.7005 |xxxxxxxxxxxxx |xxxxxxxxxxxxx |xxxxxxxxxxxxx |xxxxxxxxxxxxx |       0.7056 |       0.7056 |       0.7056 |xxxxxxxxxxxxx |xxxxxxxxxxxxx |xxxxxxxxxxxxx |xxxxxxxxxxxxx |       0.6961 |       0.6961 |       0.6961 |xxxxxxxxxxxxx |xxxxxxxxxxxxx |xxxxxxxxxxxxx |xxxxxxxxxxxxx |       0.7116 |       0.7116 |       0.7116 |xxxxxxxxxxxxx |xxxxxxxxxxxxx |xxxxxxxxxxxxx |xxxxxxxxxxxxx |       0.7197 |       0.7197 |       0.7197 |xxxxxxxxxxxxx |xxxxxxxxxxxxx |xxxxxxxxxxxxx |xxxxxxxxxxxxx |       0.7062 |       0.7062 |       0.7062 |
bpred_bimod.bpred_jr_rate                   1.0000 |       1.0000 |       1.0000 |xxxxxxxxxxxxx |xxxxxxxxxxxxx |xxxxxxxxxxxxx |xxxxxxxxxxxxx |       1.0000 |       1.0000 |       1.0000 |xxxxxxxxxxxxx |xxxxxxxxxxxxx |xxxxxxxxxxxxx |xxxxxxxxxxxxx |       1.0000 |       1.0000 |       1.0000 |xxxxxxxxxxxxx |xxxxxxxxxxxxx |xxxxxxxxxxxxx |xxxxxxxxxxxxx |       1.0000 |       1.0000 |       1.0000 |xxxxxxxxxxxxx |xxxxxxxxxxxxx |xxxxxxxxxxxxx |xxxxxxxxxxxxx |       1.0000 |       1.0000 |       1.0000 |xxxxxxxxxxxxx |xxxxxxxxxxxxx |xxxxxxxxxxxxx |xxxxxxxxxxxxx |       1.0000 |       1.0000 |       1.0000 |xxxxxxxxxxxxx |xxxxxxxxxxxxx |xxxxxxxxxxxxx |xxxxxxxxxxxxx |       1.0000 |       1.0000 |       1.0000 |xxxxxxxxxxxxx |xxxxxxxxxxxxx |xxxxxxxxxxxxx |xxxxxxxxxxxxx |       1.0000 |       1.0000 |       1.0000 |xxxxxxxxxxxxx |xxxxxxxxxxxxx |xxxxxxxxxxxxx |xxxxxxxxxxxxx |       1.0000 |       1.0000 |       1.0000 |xxxxxxxxxxxxx |xxxxxxxxxxxxx |xxxxxxxxxxxxx |xxxxxxxxxxxxx |       1.0000 |       1.0000 |       1.0000 |xxxxxxxxxxxxx |xxxxxxxxxxxxx |xxxxxxxxxxxxx |xxxxxxxxxxxxx |       1.0000 |       1.0000 |       1.0000 |
bpred_bimod.bpred_jr_non_ras_rate.PP       <error: |      <error: |      <error: |xxxxxxxxxxxxx |xxxxxxxxxxxxx |xxxxxxxxxxxxx |xxxxxxxxxxxxx |      <error: |      <error: |      <error: |xxxxxxxxxxxxx |xxxxxxxxxxxxx |xxxxxxxxxxxxx |xxxxxxxxxxxxx |      <error: |      <error: |      <error: |xxxxxxxxxxxxx |xxxxxxxxxxxxx |xxxxxxxxxxxxx |xxxxxxxxxxxxx |      <error: |      <error: |      <error: |xxxxxxxxxxxxx |xxxxxxxxxxxxx |xxxxxxxxxxxxx |xxxxxxxxxxxxx |      <error: |      <error: |      <error: |xxxxxxxxxxxxx |xxxxxxxxxxxxx |xxxxxxxxxxxxx |xxxxxxxxxxxxx |      <error: |      <error: |      <error: |xxxxxxxxxxxxx |xxxxxxxxxxxxx |xxxxxxxxxxxxx |xxxxxxxxxxxxx |      <error: |      <error: |      <error: |xxxxxxxxxxxxx |xxxxxxxxxxxxx |xxxxxxxxxxxxx |xxxxxxxxxxxxx |      <error: |      <error: |      <error: |xxxxxxxxxxxxx |xxxxxxxxxxxxx |xxxxxxxxxxxxx |xxxxxxxxxxxxx |      <error: |      <error: |      <error: |xxxxxxxxxxxxx |xxxxxxxxxxxxx |xxxxxxxxxxxxx |xxxxxxxxxxxxx |      <error: |      <error: |      <error: |xxxxxxxxxxxxx |xxxxxxxxxxxxx |xxxxxxxxxxxxx |xxxxxxxxxxxxx |      <error: |      <error: |      <error: |
bpred_bimod.retstack_pushes                     66 |           66 |           66 |xxxxxxxxxxxxx |xxxxxxxxxxxxx |xxxxxxxxxxxxx |xxxxxxxxxxxxx |           66 |           66 |           66 |xxxxxxxxxxxxx |xxxxxxxxxxxxx |xxxxxxxxxxxxx |xxxxxxxxxxxxx |           66 |           66 |           66 |xxxxxxxxxxxxx |xxxxxxxxxxxxx |xxxxxxxxxxxxx |xxxxxxxxxxxxx |           66 |           66 |           66 |xxxxxxxxxxxxx |xxxxxxxxxxxxx |xxxxxxxxxxxxx |xxxxxxxxxxxxx |           66 |           66 |           66 |xxxxxxxxxxxxx |xxxxxxxxxxxxx |xxxxxxxxxxxxx |xxxxxxxxxxxxx |           66 |           66 |           66 |xxxxxxxxxxxxx |xxxxxxxxxxxxx |xxxxxxxxxxxxx |xxxxxxxxxxxxx |           66 |           66 |           66 |xxxxxxxxxxxxx |xxxxxxxxxxxxx |xxxxxxxxxxxxx |xxxxxxxxxxxxx |           66 |           66 |           66 |xxxxxxxxxxxxx |xxxxxxxxxxxxx |xxxxxxxxxxxxx |xxxxxxxxxxxxx |           66 |           66 |           66 |xxxxxxxxxxxxx |xxxxxxxxxxxxx |xxxxxxxxxxxxx |xxxxxxxxxxxxx |           66 |           66 |           66 |xxxxxxxxxxxxx |xxxxxxxxxxxxx |xxxxxxxxxxxxx |xxxxxxxxxxxxx |           66 |           66 |           66 |
bpred_bimod.retstack_pops                       64 |           64 |           64 |xxxxxxxxxxxxx |xxxxxxxxxxxxx |xxxxxxxxxxxxx |xxxxxxxxxxxxx |           64 |           64 |           64 |xxxxxxxxxxxxx |xxxxxxxxxxxxx |xxxxxxxxxxxxx |xxxxxxxxxxxxx |           64 |           64 |           64 |xxxxxxxxxxxxx |xxxxxxxxxxxxx |xxxxxxxxxxxxx |xxxxxxxxxxxxx |           64 |           64 |           64 |xxxxxxxxxxxxx |xxxxxxxxxxxxx |xxxxxxxxxxxxx |xxxxxxxxxxxxx |           64 |           64 |           64 |xxxxxxxxxxxxx |xxxxxxxxxxxxx |xxxxxxxxxxxxx |xxxxxxxxxxxxx |           64 |           64 |           64 |xxxxxxxxxxxxx |xxxxxxxxxxxxx |xxxxxxxxxxxxx |xxxxxxxxxxxxx |           64 |           64 |           64 |xxxxxxxxxxxxx |xxxxxxxxxxxxx |xxxxxxxxxxxxx |xxxxxxxxxxxxx |           64 |           64 |           64 |xxxxxxxxxxxxx |xxxxxxxxxxxxx |xxxxxxxxxxxxx |xxxxxxxxxxxxx |           64 |           64 |           64 |xxxxxxxxxxxxx |xxxxxxxxxxxxx |xxxxxxxxxxxxx |xxxxxxxxxxxxx |           64 |           64 |           64 |xxxxxxxxxxxxx |xxxxxxxxxxxxx |xxxxxxxxxxxxx |xxxxxxxxxxxxx |           64 |           64 |           64 |
bpred_bimod.used_ras.PP                         64 |           64 |           64 |xxxxxxxxxxxxx |xxxxxxxxxxxxx |xxxxxxxxxxxxx |xxxxxxxxxxxxx |           64 |           64 |           64 |xxxxxxxxxxxxx |xxxxxxxxxxxxx |xxxxxxxxxxxxx |xxxxxxxxxxxxx |           64 |           64 |           64 |xxxxxxxxxxxxx |xxxxxxxxxxxxx |xxxxxxxxxxxxx |xxxxxxxxxxxxx |           64 |           64 |           64 |xxxxxxxxxxxxx |xxxxxxxxxxxxx |xxxxxxxxxxxxx |xxxxxxxxxxxxx |           64 |           64 |           64 |xxxxxxxxxxxxx |xxxxxxxxxxxxx |xxxxxxxxxxxxx |xxxxxxxxxxxxx |           64 |           64 |           64 |xxxxxxxxxxxxx |xxxxxxxxxxxxx |xxxxxxxxxxxxx |xxxxxxxxxxxxx |           64 |           64 |           64 |xxxxxxxxxxxxx |xxxxxxxxxxxxx |xxxxxxxxxxxxx |xxxxxxxxxxxxx |           64 |           64 |           64 |xxxxxxxxxxxxx |xxxxxxxxxxxxx |xxxxxxxxxxxxx |xxxxxxxxxxxxx |           64 |           64 |           64 |xxxxxxxxxxxxx |xxxxxxxxxxxxx |xxxxxxxxxxxxx |xxxxxxxxxxxxx |           64 |           64 |           64 |xxxxxxxxxxxxx |xxxxxxxxxxxxx |xxxxxxxxxxxxx |xxxxxxxxxxxxx |           64 |           64 |           64 |
bpred_bimod.ras_hits.PP                         64 |           64 |           64 |xxxxxxxxxxxxx |xxxxxxxxxxxxx |xxxxxxxxxxxxx |xxxxxxxxxxxxx |           64 |           64 |           64 |xxxxxxxxxxxxx |xxxxxxxxxxxxx |xxxxxxxxxxxxx |xxxxxxxxxxxxx |           64 |           64 |           64 |xxxxxxxxxxxxx |xxxxxxxxxxxxx |xxxxxxxxxxxxx |xxxxxxxxxxxxx |           64 |           64 |           64 |xxxxxxxxxxxxx |xxxxxxxxxxxxx |xxxxxxxxxxxxx |xxxxxxxxxxxxx |           64 |           64 |           64 |xxxxxxxxxxxxx |xxxxxxxxxxxxx |xxxxxxxxxxxxx |xxxxxxxxxxxxx |           64 |           64 |           64 |xxxxxxxxxxxxx |xxxxxxxxxxxxx |xxxxxxxxxxxxx |xxxxxxxxxxxxx |           64 |           64 |           64 |xxxxxxxxxxxxx |xxxxxxxxxxxxx |xxxxxxxxxxxxx |xxxxxxxxxxxxx |           64 |           64 |           64 |xxxxxxxxxxxxx |xxxxxxxxxxxxx |xxxxxxxxxxxxx |xxxxxxxxxxxxx |           64 |           64 |           64 |xxxxxxxxxxxxx |xxxxxxxxxxxxx |xxxxxxxxxxxxx |xxxxxxxxxxxxx |           64 |           64 |           64 |xxxxxxxxxxxxx |xxxxxxxxxxxxx |xxxxxxxxxxxxx |xxxxxxxxxxxxx |           64 |           64 |           64 |
bpred_bimod.ras_rate.PP                     1.0000 |       1.0000 |       1.0000 |xxxxxxxxxxxxx |xxxxxxxxxxxxx |xxxxxxxxxxxxx |xxxxxxxxxxxxx |       1.0000 |       1.0000 |       1.0000 |xxxxxxxxxxxxx |xxxxxxxxxxxxx |xxxxxxxxxxxxx |xxxxxxxxxxxxx |       1.0000 |       1.0000 |       1.0000 |xxxxxxxxxxxxx |xxxxxxxxxxxxx |xxxxxxxxxxxxx |xxxxxxxxxxxxx |       1.0000 |       1.0000 |       1.0000 |xxxxxxxxxxxxx |xxxxxxxxxxxxx |xxxxxxxxxxxxx |xxxxxxxxxxxxx |       1.0000 |       1.0000 |       1.0000 |xxxxxxxxxxxxx |xxxxxxxxxxxxx |xxxxxxxxxxxxx |xxxxxxxxxxxxx |       1.0000 |       1.0000 |       1.0000 |xxxxxxxxxxxxx |xxxxxxxxxxxxx |xxxxxxxxxxxxx |xxxxxxxxxxxxx |       1.0000 |       1.0000 |       1.0000 |xxxxxxxxxxxxx |xxxxxxxxxxxxx |xxxxxxxxxxxxx |xxxxxxxxxxxxx |       1.0000 |       1.0000 |       1.0000 |xxxxxxxxxxxxx |xxxxxxxxxxxxx |xxxxxxxxxxxxx |xxxxxxxxxxxxx |       1.0000 |       1.0000 |       1.0000 |xxxxxxxxxxxxx |xxxxxxxxxxxxx |xxxxxxxxxxxxx |xxxxxxxxxxxxx |       1.0000 |       1.0000 |       1.0000 |xxxxxxxxxxxxx |xxxxxxxxxxxxx |xxxxxxxxxxxxx |xxxxxxxxxxxxx |       1.0000 |       1.0000 |       1.0000 |
bpred_2lev.lookups                   xxxxxxxxxxxxx |xxxxxxxxxxxxx |xxxxxxxxxxxxx |        75735 |        75735 |        75735 |        75735 |xxxxxxxxxxxxx |xxxxxxxxxxxxx |xxxxxxxxxxxxx |       164341 |       164341 |       164341 |       164341 |xxxxxxxxxxxxx |xxxxxxxxxxxxx |xxxxxxxxxxxxx |       349116 |       349116 |       349116 |       349116 |xxxxxxxxxxxxx |xxxxxxxxxxxxx |xxxxxxxxxxxxx |       753540 |       753540 |       753540 |       753540 |xxxxxxxxxxxxx |xxxxxxxxxxxxx |xxxxxxxxxxxxx |      1609817 |      1609817 |      1609817 |      1609817 |xxxxxxxxxxxxx |xxxxxxxxxxxxx |xxxxxxxxxxxxx |      3421491 |      3421491 |      3421491 |      3421491 |xxxxxxxxxxxxx |xxxxxxxxxxxxx |xxxxxxxxxxxxx |      7297079 |      7297079 |      7297079 |      7297079 |xxxxxxxxxxxxx |xxxxxxxxxxxxx |xxxxxxxxxxxxx |     15251393 |     15251393 |     15251393 |     15251393 |xxxxxxxxxxxxx |xxxxxxxxxxxxx |xxxxxxxxxxxxx |     32713141 |     32713141 |     32713141 |     32713141 |xxxxxxxxxxxxx |xxxxxxxxxxxxx |xxxxxxxxxxxxx |     69565102 |     69565102 |     69565102 |     69565102 |xxxxxxxxxxxxx |xxxxxxxxxxxxx |xxxxxxxxxxxxx |    143084934 |    143084934 |    143084934 |    143084934 |
[...]
bpred_2lev.retstack_pushes           xxxxxxxxxxxxx |xxxxxxxxxxxxx |xxxxxxxxxxxxx |           66 |           66 |           66 |           66 |xxxxxxxxxxxxx |xxxxxxxxxxxxx |xxxxxxxxxxxxx |           66 |           66 |           66 |           66 |xxxxxxxxxxxxx |xxxxxxxxxxxxx |xxxxxxxxxxxxx |           66 |           66 |           66 |           66 |xxxxxxxxxxxxx |xxxxxxxxxxxxx |xxxxxxxxxxxxx |           66 |           66 |           66 |           66 |xxxxxxxxxxxxx |xxxxxxxxxxxxx |xxxxxxxxxxxxx |           66 |           66 |           66 |           66 |xxxxxxxxxxxxx |xxxxxxxxxxxxx |xxxxxxxxxxxxx |           66 |           66 |           66 |           66 |xxxxxxxxxxxxx |xxxxxxxxxxxxx |xxxxxxxxxxxxx |           66 |           66 |           66 |           66 |xxxxxxxxxxxxx |xxxxxxxxxxxxx |xxxxxxxxxxxxx |           66 |           66 |           66 |           66 |xxxxxxxxxxxxx |xxxxxxxxxxxxx |xxxxxxxxxxxxx |           66 |           66 |           66 |           66 |xxxxxxxxxxxxx |xxxxxxxxxxxxx |xxxxxxxxxxxxx |           66 |           66 |           66 |           66 |xxxxxxxxxxxxx |xxxxxxxxxxxxx |xxxxxxxxxxxxx |           66 |           66 |           66 |           66 |
bpred_2lev.retstack_pops             xxxxxxxxxxxxx |xxxxxxxxxxxxx |xxxxxxxxxxxxx |           64 |           64 |           64 |           64 |xxxxxxxxxxxxx |xxxxxxxxxxxxx |xxxxxxxxxxxxx |           64 |           64 |           64 |           64 |xxxxxxxxxxxxx |xxxxxxxxxxxxx |xxxxxxxxxxxxx |           64 |           64 |           64 |           64 |xxxxxxxxxxxxx |xxxxxxxxxxxxx |xxxxxxxxxxxxx |           64 |           64 |           64 |           64 |xxxxxxxxxxxxx |xxxxxxxxxxxxx |xxxxxxxxxxxxx |           64 |           64 |           64 |           64 |xxxxxxxxxxxxx |xxxxxxxxxxxxx |xxxxxxxxxxxxx |           64 |           64 |           64 |           64 |xxxxxxxxxxxxx |xxxxxxxxxxxxx |xxxxxxxxxxxxx |           64 |           64 |           64 |           64 |xxxxxxxxxxxxx |xxxxxxxxxxxxx |xxxxxxxxxxxxx |           64 |           64 |           64 |           64 |xxxxxxxxxxxxx |xxxxxxxxxxxxx |xxxxxxxxxxxxx |           64 |           64 |           64 |           64 |xxxxxxxxxxxxx |xxxxxxxxxxxxx |xxxxxxxxxxxxx |           64 |           64 |           64 |           64 |xxxxxxxxxxxxx |xxxxxxxxxxxxx |xxxxxxxxxxxxx |           64 |           64 |           64 |           64 |
bpred_2lev.used_ras.PP               xxxxxxxxxxxxx |xxxxxxxxxxxxx |xxxxxxxxxxxxx |           64 |           64 |           64 |           64 |xxxxxxxxxxxxx |xxxxxxxxxxxxx |xxxxxxxxxxxxx |           64 |           64 |           64 |           64 |xxxxxxxxxxxxx |xxxxxxxxxxxxx |xxxxxxxxxxxxx |           64 |           64 |           64 |           64 |xxxxxxxxxxxxx |xxxxxxxxxxxxx |xxxxxxxxxxxxx |           64 |           64 |           64 |           64 |xxxxxxxxxxxxx |xxxxxxxxxxxxx |xxxxxxxxxxxxx |           64 |           64 |           64 |           64 |xxxxxxxxxxxxx |xxxxxxxxxxxxx |xxxxxxxxxxxxx |           64 |           64 |           64 |           64 |xxxxxxxxxxxxx |xxxxxxxxxxxxx |xxxxxxxxxxxxx |           64 |           64 |           64 |           64 |xxxxxxxxxxxxx |xxxxxxxxxxxxx |xxxxxxxxxxxxx |           64 |           64 |           64 |           64 |xxxxxxxxxxxxx |xxxxxxxxxxxxx |xxxxxxxxxxxxx |           64 |           64 |           64 |           64 |xxxxxxxxxxxxx |xxxxxxxxxxxxx |xxxxxxxxxxxxx |           64 |           64 |           64 |           64 |xxxxxxxxxxxxx |xxxxxxxxxxxxx |xxxxxxxxxxxxx |           64 |           64 |           64 |           64 |
bpred_2lev.ras_hits.PP               xxxxxxxxxxxxx |xxxxxxxxxxxxx |xxxxxxxxxxxxx |           64 |           64 |           64 |           64 |xxxxxxxxxxxxx |xxxxxxxxxxxxx |xxxxxxxxxxxxx |           64 |           64 |           64 |           64 |xxxxxxxxxxxxx |xxxxxxxxxxxxx |xxxxxxxxxxxxx |           64 |           64 |           64 |           64 |xxxxxxxxxxxxx |xxxxxxxxxxxxx |xxxxxxxxxxxxx |           64 |           64 |           64 |           64 |xxxxxxxxxxxxx |xxxxxxxxxxxxx |xxxxxxxxxxxxx |           64 |           64 |           64 |           64 |xxxxxxxxxxxxx |xxxxxxxxxxxxx |xxxxxxxxxxxxx |           64 |           64 |           64 |           64 |xxxxxxxxxxxxx |xxxxxxxxxxxxx |xxxxxxxxxxxxx |           64 |           64 |           64 |           64 |xxxxxxxxxxxxx |xxxxxxxxxxxxx |xxxxxxxxxxxxx |           64 |           64 |           64 |           64 |xxxxxxxxxxxxx |xxxxxxxxxxxxx |xxxxxxxxxxxxx |           64 |           64 |           64 |           64 |xxxxxxxxxxxxx |xxxxxxxxxxxxx |xxxxxxxxxxxxx |           64 |           64 |           64 |           64 |xxxxxxxxxxxxx |xxxxxxxxxxxxx |xxxxxxxxxxxxx |           64 |           64 |           64 |           64 |
bpred_2lev.ras_rate.PP               xxxxxxxxxxxxx |xxxxxxxxxxxxx |xxxxxxxxxxxxx |       1.0000 |       1.0000 |       1.0000 |       1.0000 |xxxxxxxxxxxxx |xxxxxxxxxxxxx |xxxxxxxxxxxxx |       1.0000 |       1.0000 |       1.0000 |       1.0000 |xxxxxxxxxxxxx |xxxxxxxxxxxxx |xxxxxxxxxxxxx |       1.0000 |       1.0000 |       1.0000 |       1.0000 |xxxxxxxxxxxxx |xxxxxxxxxxxxx |xxxxxxxxxxxxx |       1.0000 |       1.0000 |       1.0000 |       1.0000 |xxxxxxxxxxxxx |xxxxxxxxxxxxx |xxxxxxxxxxxxx |       1.0000 |       1.0000 |       1.0000 |       1.0000 |xxxxxxxxxxxxx |xxxxxxxxxxxxx |xxxxxxxxxxxxx |       1.0000 |       1.0000 |       1.0000 |       1.0000 |xxxxxxxxxxxxx |xxxxxxxxxxxxx |xxxxxxxxxxxxx |       1.0000 |       1.0000 |       1.0000 |       1.0000 |xxxxxxxxxxxxx |xxxxxxxxxxxxx |xxxxxxxxxxxxx |       1.0000 |       1.0000 |       1.0000 |       1.0000 |xxxxxxxxxxxxx |xxxxxxxxxxxxx |xxxxxxxxxxxxx |       1.0000 |       1.0000 |       1.0000 |       1.0000 |xxxxxxxxxxxxx |xxxxxxxxxxxxx |xxxxxxxxxxxxx |       1.0000 |       1.0000 |       1.0000 |       1.0000 |xxxxxxxxxxxxx |xxxxxxxxxxxxx |xxxxxxxxxxxxx |       1.0000 |       1.0000 |       1.0000 |       1.0000 |

Command list: 
	sslittle-na-sstrix-gcc -Wall -O3 -funroll-loops -finline-functions  -DRANDOM_SIZE=4096 -DOFFSET=5 -DSORT=base_quicksort7 sorts/base_quicksort71697747830.c simpleMain.c -o base_quicksort71395078952
	sim-cache -cache:dl1 dl1:256:32:1:l -cache:dl2 dl2:131072:32:1:l -cache:il1 il1:256:32:1:l -cache:il2 dl2 base_quicksort71395078952
	sim-cache -cache:dl1 dl1:256:32:1:l -cache:dl2 dl2:65536:32:1:l -cache:il1 il1:256:32:1:l -cache:il2 dl2 base_quicksort71395078952
	sim-cache -cache:dl1 dl1:1:32:256:l -cache:dl2 dl2:1:32:131072:l -cache:il1 il1:1:32:256:l -cache:il2 dl2 base_quicksort71395078952
	sim-cache -cache:dl1 dl1:1:32:256:l -cache:dl2 dl2:1:32:65536:l -cache:il1 il1:1:32:256:l -cache:il2 dl2 base_quicksort71395078952
	sim-bpred -bpred bimod -bpred:bimod 512 base_quicksort71395078952
	sim-bpred -bpred bimod -bpred:bimod 1024 base_quicksort71395078952
	sim-bpred -bpred bimod -bpred:bimod 2048 base_quicksort71395078952
	sim-bpred -bpred 2lev -bpred:2lev 1 512 10 1 base_quicksort71395078952
	sim-bpred -bpred 2lev -bpred:2lev 1 1024 10 1 base_quicksort71395078952
	sim-bpred -bpred 2lev -bpred:2lev 1 2048 10 1 base_quicksort71395078952
	sim-bpred -bpred 2lev -bpred:2lev 1 4096 10 1 base_quicksort71395078952
	sslittle-na-sstrix-gcc -Wall -O3 -funroll-loops -finline-functions  -DRANDOM_SIZE=8192 -DOFFSET=5 -DSORT=base_quicksort7 sorts/base_quicksort71697747830.c simpleMain.c -o base_quicksort71395078952
	sim-cache -cache:dl1 dl1:256:32:1:l -cache:dl2 dl2:131072:32:1:l -cache:il1 il1:256:32:1:l -cache:il2 dl2 base_quicksort71395078952
	sim-cache -cache:dl1 dl1:256:32:1:l -cache:dl2 dl2:65536:32:1:l -cache:il1 il1:256:32:1:l -cache:il2 dl2 base_quicksort71395078952
	sim-cache -cache:dl1 dl1:1:32:256:l -cache:dl2 dl2:1:32:131072:l -cache:il1 il1:1:32:256:l -cache:il2 dl2 base_quicksort71395078952
	sim-cache -cache:dl1 dl1:1:32:256:l -cache:dl2 dl2:1:32:65536:l -cache:il1 il1:1:32:256:l -cache:il2 dl2 base_quicksort71395078952
	sim-bpred -bpred bimod -bpred:bimod 512 base_quicksort71395078952
	sim-bpred -bpred bimod -bpred:bimod 1024 base_quicksort71395078952
	sim-bpred -bpred bimod -bpred:bimod 2048 base_quicksort71395078952
	sim-bpred -bpred 2lev -bpred:2lev 1 512 10 1 base_quicksort71395078952
	sim-bpred -bpred 2lev -bpred:2lev 1 1024 10 1 base_quicksort71395078952
	sim-bpred -bpred 2lev -bpred:2lev 1 2048 10 1 base_quicksort71395078952
	sim-bpred -bpred 2lev -bpred:2lev 1 4096 10 1 base_quicksort71395078952
	sslittle-na-sstrix-gcc -Wall -O3 -funroll-loops -finline-functions  -DRANDOM_SIZE=16384 -DOFFSET=5 -DSORT=base_quicksort7 sorts/base_quicksort71697747830.c simpleMain.c -o base_quicksort71395078952
	sim-cache -cache:dl1 dl1:256:32:1:l -cache:dl2 dl2:131072:32:1:l -cache:il1 il1:256:32:1:l -cache:il2 dl2 base_quicksort71395078952
	sim-cache -cache:dl1 dl1:256:32:1:l -cache:dl2 dl2:65536:32:1:l -cache:il1 il1:256:32:1:l -cache:il2 dl2 base_quicksort71395078952
	sim-cache -cache:dl1 dl1:1:32:256:l -cache:dl2 dl2:1:32:131072:l -cache:il1 il1:1:32:256:l -cache:il2 dl2 base_quicksort71395078952
	sim-cache -cache:dl1 dl1:1:32:256:l -cache:dl2 dl2:1:32:65536:l -cache:il1 il1:1:32:256:l -cache:il2 dl2 base_quicksort71395078952
	sim-bpred -bpred bimod -bpred:bimod 512 base_quicksort71395078952
	sim-bpred -bpred bimod -bpred:bimod 1024 base_quicksort71395078952
	sim-bpred -bpred bimod -bpred:bimod 2048 base_quicksort71395078952
	sim-bpred -bpred 2lev -bpred:2lev 1 512 10 1 base_quicksort71395078952
	sim-bpred -bpred 2lev -bpred:2lev 1 1024 10 1 base_quicksort71395078952
	sim-bpred -bpred 2lev -bpred:2lev 1 2048 10 1 base_quicksort71395078952
	sim-bpred -bpred 2lev -bpred:2lev 1 4096 10 1 base_quicksort71395078952
	sslittle-na-sstrix-gcc -Wall -O3 -funroll-loops -finline-functions  -DRANDOM_SIZE=32768 -DOFFSET=5 -DSORT=base_quicksort7 sorts/base_quicksort71697747830.c simpleMain.c -o base_quicksort71395078952
	sim-cache -cache:dl1 dl1:256:32:1:l -cache:dl2 dl2:131072:32:1:l -cache:il1 il1:256:32:1:l -cache:il2 dl2 base_quicksort71395078952
	sim-cache -cache:dl1 dl1:256:32:1:l -cache:dl2 dl2:65536:32:1:l -cache:il1 il1:256:32:1:l -cache:il2 dl2 base_quicksort71395078952
	sim-cache -cache:dl1 dl1:1:32:256:l -cache:dl2 dl2:1:32:131072:l -cache:il1 il1:1:32:256:l -cache:il2 dl2 base_quicksort71395078952
	sim-cache -cache:dl1 dl1:1:32:256:l -cache:dl2 dl2:1:32:65536:l -cache:il1 il1:1:32:256:l -cache:il2 dl2 base_quicksort71395078952
	sim-bpred -bpred bimod -bpred:bimod 512 base_quicksort71395078952
	sim-bpred -bpred bimod -bpred:bimod 1024 base_quicksort71395078952
	sim-bpred -bpred bimod -bpred:bimod 2048 base_quicksort71395078952
	sim-bpred -bpred 2lev -bpred:2lev 1 512 10 1 base_quicksort71395078952
	sim-bpred -bpred 2lev -bpred:2lev 1 1024 10 1 base_quicksort71395078952
	sim-bpred -bpred 2lev -bpred:2lev 1 2048 10 1 base_quicksort71395078952
	sim-bpred -bpred 2lev -bpred:2lev 1 4096 10 1 base_quicksort71395078952
	sslittle-na-sstrix-gcc -Wall -O3 -funroll-loops -finline-functions  -DRANDOM_SIZE=65536 -DOFFSET=5 -DSORT=base_quicksort7 sorts/base_quicksort71697747830.c simpleMain.c -o base_quicksort71395078952
	sim-cache -cache:dl1 dl1:256:32:1:l -cache:dl2 dl2:131072:32:1:l -cache:il1 il1:256:32:1:l -cache:il2 dl2 base_quicksort71395078952
	sim-cache -cache:dl1 dl1:256:32:1:l -cache:dl2 dl2:65536:32:1:l -cache:il1 il1:256:32:1:l -cache:il2 dl2 base_quicksort71395078952
	sim-cache -cache:dl1 dl1:1:32:256:l -cache:dl2 dl2:1:32:131072:l -cache:il1 il1:1:32:256:l -cache:il2 dl2 base_quicksort71395078952
	sim-cache -cache:dl1 dl1:1:32:256:l -cache:dl2 dl2:1:32:65536:l -cache:il1 il1:1:32:256:l -cache:il2 dl2 base_quicksort71395078952
	sim-bpred -bpred bimod -bpred:bimod 512 base_quicksort71395078952
	sim-bpred -bpred bimod -bpred:bimod 1024 base_quicksort71395078952
	sim-bpred -bpred bimod -bpred:bimod 2048 base_quicksort71395078952
	sim-bpred -bpred 2lev -bpred:2lev 1 512 10 1 base_quicksort71395078952
	sim-bpred -bpred 2lev -bpred:2lev 1 1024 10 1 base_quicksort71395078952
	sim-bpred -bpred 2lev -bpred:2lev 1 2048 10 1 base_quicksort71395078952
	sim-bpred -bpred 2lev -bpred:2lev 1 4096 10 1 base_quicksort71395078952
	sslittle-na-sstrix-gcc -Wall -O3 -funroll-loops -finline-functions  -DRANDOM_SIZE=131072 -DOFFSET=5 -DSORT=base_quicksort7 sorts/base_quicksort71697747830.c simpleMain.c -o base_quicksort71395078952
	sim-cache -cache:dl1 dl1:256:32:1:l -cache:dl2 dl2:131072:32:1:l -cache:il1 il1:256:32:1:l -cache:il2 dl2 base_quicksort71395078952
	sim-cache -cache:dl1 dl1:256:32:1:l -cache:dl2 dl2:65536:32:1:l -cache:il1 il1:256:32:1:l -cache:il2 dl2 base_quicksort71395078952
	sim-cache -cache:dl1 dl1:1:32:256:l -cache:dl2 dl2:1:32:131072:l -cache:il1 il1:1:32:256:l -cache:il2 dl2 base_quicksort71395078952
	sim-cache -cache:dl1 dl1:1:32:256:l -cache:dl2 dl2:1:32:65536:l -cache:il1 il1:1:32:256:l -cache:il2 dl2 base_quicksort71395078952
	sim-bpred -bpred bimod -bpred:bimod 512 base_quicksort71395078952
	sim-bpred -bpred bimod -bpred:bimod 1024 base_quicksort71395078952
	sim-bpred -bpred bimod -bpred:bimod 2048 base_quicksort71395078952
	sim-bpred -bpred 2lev -bpred:2lev 1 512 10 1 base_quicksort71395078952
	sim-bpred -bpred 2lev -bpred:2lev 1 1024 10 1 base_quicksort71395078952
	sim-bpred -bpred 2lev -bpred:2lev 1 2048 10 1 base_quicksort71395078952
	sim-bpred -bpred 2lev -bpred:2lev 1 4096 10 1 base_quicksort71395078952
	sslittle-na-sstrix-gcc -Wall -O3 -funroll-loops -finline-functions  -DRANDOM_SIZE=262144 -DOFFSET=5 -DSORT=base_quicksort7 sorts/base_quicksort71697747830.c simpleMain.c -o base_quicksort71395078952
	sim-cache -cache:dl1 dl1:256:32:1:l -cache:dl2 dl2:131072:32:1:l -cache:il1 il1:256:32:1:l -cache:il2 dl2 base_quicksort71395078952
	sim-cache -cache:dl1 dl1:256:32:1:l -cache:dl2 dl2:65536:32:1:l -cache:il1 il1:256:32:1:l -cache:il2 dl2 base_quicksort71395078952
	sim-cache -cache:dl1 dl1:1:32:256:l -cache:dl2 dl2:1:32:131072:l -cache:il1 il1:1:32:256:l -cache:il2 dl2 base_quicksort71395078952
	sim-cache -cache:dl1 dl1:1:32:256:l -cache:dl2 dl2:1:32:65536:l -cache:il1 il1:1:32:256:l -cache:il2 dl2 base_quicksort71395078952
	sim-bpred -bpred bimod -bpred:bimod 512 base_quicksort71395078952
	sim-bpred -bpred bimod -bpred:bimod 1024 base_quicksort71395078952
	sim-bpred -bpred bimod -bpred:bimod 2048 base_quicksort71395078952
	sim-bpred -bpred 2lev -bpred:2lev 1 512 10 1 base_quicksort71395078952
	sim-bpred -bpred 2lev -bpred:2lev 1 1024 10 1 base_quicksort71395078952
	sim-bpred -bpred 2lev -bpred:2lev 1 2048 10 1 base_quicksort71395078952
	sim-bpred -bpred 2lev -bpred:2lev 1 4096 10 1 base_quicksort71395078952
	sslittle-na-sstrix-gcc -Wall -O3 -funroll-loops -finline-functions  -DRANDOM_SIZE=524288 -DOFFSET=5 -DSORT=base_quicksort7 sorts/base_quicksort71697747830.c simpleMain.c -o base_quicksort71395078952
	sim-cache -cache:dl1 dl1:256:32:1:l -cache:dl2 dl2:131072:32:1:l -cache:il1 il1:256:32:1:l -cache:il2 dl2 base_quicksort71395078952
	sim-cache -cache:dl1 dl1:256:32:1:l -cache:dl2 dl2:65536:32:1:l -cache:il1 il1:256:32:1:l -cache:il2 dl2 base_quicksort71395078952
	sim-cache -cache:dl1 dl1:1:32:256:l -cache:dl2 dl2:1:32:131072:l -cache:il1 il1:1:32:256:l -cache:il2 dl2 base_quicksort71395078952
	sim-cache -cache:dl1 dl1:1:32:256:l -cache:dl2 dl2:1:32:65536:l -cache:il1 il1:1:32:256:l -cache:il2 dl2 base_quicksort71395078952
	sim-bpred -bpred bimod -bpred:bimod 512 base_quicksort71395078952
	sim-bpred -bpred bimod -bpred:bimod 1024 base_quicksort71395078952
	sim-bpred -bpred bimod -bpred:bimod 2048 base_quicksort71395078952
	sim-bpred -bpred 2lev -bpred:2lev 1 512 10 1 base_quicksort71395078952
	sim-bpred -bpred 2lev -bpred:2lev 1 1024 10 1 base_quicksort71395078952
	sim-bpred -bpred 2lev -bpred:2lev 1 2048 10 1 base_quicksort71395078952
	sim-bpred -bpred 2lev -bpred:2lev 1 4096 10 1 base_quicksort71395078952
	sslittle-na-sstrix-gcc -Wall -O3 -funroll-loops -finline-functions  -DRANDOM_SIZE=1048576 -DOFFSET=5 -DSORT=base_quicksort7 sorts/base_quicksort71697747830.c simpleMain.c -o base_quicksort71395078952
	sim-cache -cache:dl1 dl1:256:32:1:l -cache:dl2 dl2:131072:32:1:l -cache:il1 il1:256:32:1:l -cache:il2 dl2 base_quicksort71395078952
	sim-cache -cache:dl1 dl1:256:32:1:l -cache:dl2 dl2:65536:32:1:l -cache:il1 il1:256:32:1:l -cache:il2 dl2 base_quicksort71395078952
	sim-cache -cache:dl1 dl1:1:32:256:l -cache:dl2 dl2:1:32:131072:l -cache:il1 il1:1:32:256:l -cache:il2 dl2 base_quicksort71395078952
	sim-cache -cache:dl1 dl1:1:32:256:l -cache:dl2 dl2:1:32:65536:l -cache:il1 il1:1:32:256:l -cache:il2 dl2 base_quicksort71395078952
	sim-bpred -bpred bimod -bpred:bimod 512 base_quicksort71395078952
	sim-bpred -bpred bimod -bpred:bimod 1024 base_quicksort71395078952
	sim-bpred -bpred bimod -bpred:bimod 2048 base_quicksort71395078952
	sim-bpred -bpred 2lev -bpred:2lev 1 512 10 1 base_quicksort71395078952
	sim-bpred -bpred 2lev -bpred:2lev 1 1024 10 1 base_quicksort71395078952
	sim-bpred -bpred 2lev -bpred:2lev 1 2048 10 1 base_quicksort71395078952
	sim-bpred -bpred 2lev -bpred:2lev 1 4096 10 1 base_quicksort71395078952
	sslittle-na-sstrix-gcc -Wall -O3 -funroll-loops -finline-functions  -DRANDOM_SIZE=2097152 -DOFFSET=5 -DSORT=base_quicksort7 sorts/base_quicksort71697747830.c simpleMain.c -o base_quicksort71395078952
	sim-cache -cache:dl1 dl1:256:32:1:l -cache:dl2 dl2:131072:32:1:l -cache:il1 il1:256:32:1:l -cache:il2 dl2 base_quicksort71395078952
	sim-cache -cache:dl1 dl1:256:32:1:l -cache:dl2 dl2:65536:32:1:l -cache:il1 il1:256:32:1:l -cache:il2 dl2 base_quicksort71395078952
	sim-cache -cache:dl1 dl1:1:32:256:l -cache:dl2 dl2:1:32:131072:l -cache:il1 il1:1:32:256:l -cache:il2 dl2 base_quicksort71395078952
	sim-cache -cache:dl1 dl1:1:32:256:l -cache:dl2 dl2:1:32:65536:l -cache:il1 il1:1:32:256:l -cache:il2 dl2 base_quicksort71395078952
	sim-bpred -bpred bimod -bpred:bimod 512 base_quicksort71395078952
	sim-bpred -bpred bimod -bpred:bimod 1024 base_quicksort71395078952
	sim-bpred -bpred bimod -bpred:bimod 2048 base_quicksort71395078952
	sim-bpred -bpred 2lev -bpred:2lev 1 512 10 1 base_quicksort71395078952
	sim-bpred -bpred 2lev -bpred:2lev 1 1024 10 1 base_quicksort71395078952
	sim-bpred -bpred 2lev -bpred:2lev 1 2048 10 1 base_quicksort71395078952
	sim-bpred -bpred 2lev -bpred:2lev 1 4096 10 1 base_quicksort71395078952
	sslittle-na-sstrix-gcc -Wall -O3 -funroll-loops -finline-functions  -DRANDOM_SIZE=4194304 -DOFFSET=5 -DSORT=base_quicksort7 sorts/base_quicksort71697747830.c simpleMain.c -o base_quicksort71395078952
	sim-cache -cache:dl1 dl1:256:32:1:l -cache:dl2 dl2:131072:32:1:l -cache:il1 il1:256:32:1:l -cache:il2 dl2 base_quicksort71395078952
	sim-cache -cache:dl1 dl1:256:32:1:l -cache:dl2 dl2:65536:32:1:l -cache:il1 il1:256:32:1:l -cache:il2 dl2 base_quicksort71395078952
	sim-cache -cache:dl1 dl1:1:32:256:l -cache:dl2 dl2:1:32:131072:l -cache:il1 il1:1:32:256:l -cache:il2 dl2 base_quicksort71395078952
	sim-cache -cache:dl1 dl1:1:32:256:l -cache:dl2 dl2:1:32:65536:l -cache:il1 il1:1:32:256:l -cache:il2 dl2 base_quicksort71395078952
	sim-bpred -bpred bimod -bpred:bimod 512 base_quicksort71395078952
	sim-bpred -bpred bimod -bpred:bimod 1024 base_quicksort71395078952
	sim-bpred -bpred bimod -bpred:bimod 2048 base_quicksort71395078952
	sim-bpred -bpred 2lev -bpred:2lev 1 512 10 1 base_quicksort71395078952
	sim-bpred -bpred 2lev -bpred:2lev 1 1024 10 1 base_quicksort71395078952
	sim-bpred -bpred 2lev -bpred:2lev 1 2048 10 1 base_quicksort71395078952
	sim-bpred -bpred 2lev -bpred:2lev 1 4096 10 1 base_quicksort71395078952
