Mon Jun 27 14:39:01 2005
Run as: "./do_simple -c random.org2 -o 2 base_mergesort"
-------------------------------------------------------------------------------------------------
sim-cache                                     4096 |         4096 |         4096 |         4096 |         8192 |         8192 |         8192 |         8192 |        16384 |        16384 |        16384 |        16384 |        32768 |        32768 |        32768 |        32768 |        65536 |        65536 |        65536 |        65536 |       131072 |       131072 |       131072 |       131072 |       262144 |       262144 |       262144 |       262144 |       524288 |       524288 |       524288 |       524288 |      1048576 |      1048576 |      1048576 |      1048576 |      2097152 |      2097152 |      2097152 |      2097152 |      4194304 |      4194304 |      4194304 |      4194304 |
-cache:dl1 dl1:256:32:1:l -cache:dl2 dl2:131072:32:1:l -cache:il1 il1:256:32:1:l -cache:il2 dl2
-cache:dl1 dl1:256:32:1:l -cache:dl2 dl2:65536:32:1:l -cache:il1 il1:256:32:1:l -cache:il2 dl2
-cache:dl1 dl1:1:32:256:l -cache:dl2 dl2:1:32:131072:l -cache:il1 il1:1:32:256:l -cache:il2 dl2
-cache:dl1 dl1:1:32:256:l -cache:dl2 dl2:1:32:65536:l -cache:il1 il1:1:32:256:l -cache:il2 dl2
-------------------------------------------------------------------------------------------------
sim_num_insn                                752326 |       752326 |       752326 |       752326 |      1655652 |      1655652 |      1655652 |      1655652 |      3527647 |      3527647 |      3527647 |      3527647 |      7667595 |      7667595 |      7667595 |      7667595 |     16253158 |     16253158 |     16253158 |     16253158 |     34991006 |     34991006 |     34991006 |     34991006 |     73632941 |     73632941 |     73632941 |     73632941 |    157242479 |    157242479 |    157242479 |    157242479 |    329137425 |    329137425 |    329137425 |    329137425 |    698187282 |    698187282 |    698187282 |    698187282 |   1455231221 |   1455231221 |   1455231221 |   1455231221 |
sim_num_refs                                205878 |       205878 |       205878 |       205878 |       461597 |       461597 |       461597 |       461597 |       958912 |       958912 |       958912 |       958912 |      2126411 |      2126411 |      2126411 |      2126411 |      4413918 |      4413918 |      4413918 |      4413918 |      9676103 |      9676103 |      9676103 |      9676103 |     20000566 |     20000566 |     20000566 |     20000566 |     43408933 |     43408933 |     43408933 |     43408933 |     89437406 |     89437406 |     89437406 |     89437406 |    192511849 |    192511849 |    192511849 |    192511849 |    395526530 |    395526530 |    395526530 |    395526530 |
sim_elapsed_time                                 1 |            1 |            9 |            5 |            1 |            1 |           14 |            8 |            1 |            1 |           25 |           13 |            2 |            2 |           44 |           22 |            4 |            4 |           83 |           41 |            9 |            9 |          153 |           71 |           19 |           19 |          262 |          100 |           40 |           41 |          363 |          124 |           84 |           83 |          415 |          174 |          178 |          177 |          523 |          282 |          368 |          368 |          744 |          500 |
sim_inst_rate                          752326.0000 |  752326.0000 |   83591.7778 |  150465.2000 | 1655652.0000 | 1655652.0000 |  118260.8571 |  206956.5000 | 3527647.0000 | 3527647.0000 |  141105.8800 |  271357.4615 | 3833797.5000 | 3833797.5000 |  174263.5227 |  348527.0455 | 4063289.5000 | 4063289.5000 |  195821.1807 |  396418.4878 | 3887889.5556 | 3887889.5556 |  228699.3856 |  492831.0704 | 3875417.9474 | 3875417.9474 |  281041.7595 |  736329.4100 | 3931061.9750 | 3835182.4146 |  433174.8733 | 1268084.5081 | 3918302.6786 | 3965511.1446 |  793102.2289 | 1891594.3966 | 3922400.4607 | 3944560.9153 | 1334966.1224 | 2475841.4255 | 3954432.6658 | 3954432.6658 | 1955955.9422 | 2910462.4420 |
il1.accesses                                752326 |       752326 |       752326 |       752326 |      1655652 |      1655652 |      1655652 |      1655652 |      3527647 |      3527647 |      3527647 |      3527647 |      7667595 |      7667595 |      7667595 |      7667595 |     16253158 |     16253158 |     16253158 |     16253158 |     34991006 |     34991006 |     34991006 |     34991006 |     73632941 |     73632941 |     73632941 |     73632941 |    157242479 |    157242479 |    157242479 |    157242479 |    329137425 |    329137425 |    329137425 |    329137425 |    698187282 |    698187282 |    698187282 |    698187282 |   1455231221 |   1455231221 |   1455231221 |   1455231221 |
il1.hits                                    751852 |       751852 |       751905 |       751905 |      1655127 |      1655127 |      1655190 |      1655190 |      3527133 |      3527133 |      3527213 |      3527213 |      7667070 |      7667070 |      7667132 |      7667132 |     16252653 |     16252653 |     16252718 |     16252718 |     34990480 |     34990480 |     34990543 |     34990543 |     73632435 |     73632435 |     73632501 |     73632501 |    157241953 |    157241953 |    157242016 |    157242016 |    329136884 |    329136884 |    329136952 |    329136952 |    698186731 |    698186731 |    698186807 |    698186807 |   1455230680 |   1455230680 |   1455230748 |   1455230748 |
il1.misses                                     474 |          474 |          421 |          421 |          525 |          525 |          462 |          462 |          514 |          514 |          434 |          434 |          525 |          525 |          463 |          463 |          505 |          505 |          440 |          440 |          526 |          526 |          463 |          463 |          506 |          506 |          440 |          440 |          526 |          526 |          463 |          463 |          541 |          541 |          473 |          473 |          551 |          551 |          475 |          475 |          541 |          541 |          473 |          473 |
il1.replacements                               270 |          270 |          165 |          165 |          308 |          308 |          206 |          206 |          314 |          314 |          178 |          178 |          309 |          309 |          207 |          207 |          303 |          303 |          184 |          184 |          310 |          310 |          207 |          207 |          304 |          304 |          184 |          184 |          310 |          310 |          207 |          207 |          312 |          312 |          217 |          217 |          322 |          322 |          219 |          219 |          312 |          312 |          217 |          217 |
il1.writebacks                                   0 |            0 |            0 |            0 |            0 |            0 |            0 |            0 |            0 |            0 |            0 |            0 |            0 |            0 |            0 |            0 |            0 |            0 |            0 |            0 |            0 |            0 |            0 |            0 |            0 |            0 |            0 |            0 |            0 |            0 |            0 |            0 |            0 |            0 |            0 |            0 |            0 |            0 |            0 |            0 |            0 |            0 |            0 |            0 |
il1.invalidations                                0 |            0 |            0 |            0 |            0 |            0 |            0 |            0 |            0 |            0 |            0 |            0 |            0 |            0 |            0 |            0 |            0 |            0 |            0 |            0 |            0 |            0 |            0 |            0 |            0 |            0 |            0 |            0 |            0 |            0 |            0 |            0 |            0 |            0 |            0 |            0 |            0 |            0 |            0 |            0 |            0 |            0 |            0 |            0 |
il1.miss_rate                               0.0006 |       0.0006 |       0.0006 |       0.0006 |       0.0003 |       0.0003 |       0.0003 |       0.0003 |       0.0001 |       0.0001 |       0.0001 |       0.0001 |       0.0001 |       0.0001 |       0.0001 |       0.0001 |       0.0000 |       0.0000 |       0.0000 |       0.0000 |       0.0000 |       0.0000 |       0.0000 |       0.0000 |       0.0000 |       0.0000 |       0.0000 |       0.0000 |       0.0000 |       0.0000 |       0.0000 |       0.0000 |       0.0000 |       0.0000 |       0.0000 |       0.0000 |       0.0000 |       0.0000 |       0.0000 |       0.0000 |       0.0000 |       0.0000 |       0.0000 |       0.0000 |
il1.repl_rate                               0.0004 |       0.0004 |       0.0002 |       0.0002 |       0.0002 |       0.0002 |       0.0001 |       0.0001 |       0.0001 |       0.0001 |       0.0001 |       0.0001 |       0.0000 |       0.0000 |       0.0000 |       0.0000 |       0.0000 |       0.0000 |       0.0000 |       0.0000 |       0.0000 |       0.0000 |       0.0000 |       0.0000 |       0.0000 |       0.0000 |       0.0000 |       0.0000 |       0.0000 |       0.0000 |       0.0000 |       0.0000 |       0.0000 |       0.0000 |       0.0000 |       0.0000 |       0.0000 |       0.0000 |       0.0000 |       0.0000 |       0.0000 |       0.0000 |       0.0000 |       0.0000 |
il1.wb_rate                                 0.0000 |       0.0000 |       0.0000 |       0.0000 |       0.0000 |       0.0000 |       0.0000 |       0.0000 |       0.0000 |       0.0000 |       0.0000 |       0.0000 |       0.0000 |       0.0000 |       0.0000 |       0.0000 |       0.0000 |       0.0000 |       0.0000 |       0.0000 |       0.0000 |       0.0000 |       0.0000 |       0.0000 |       0.0000 |       0.0000 |       0.0000 |       0.0000 |       0.0000 |       0.0000 |       0.0000 |       0.0000 |       0.0000 |       0.0000 |       0.0000 |       0.0000 |       0.0000 |       0.0000 |       0.0000 |       0.0000 |       0.0000 |       0.0000 |       0.0000 |       0.0000 |
il1.inv_rate                                0.0000 |       0.0000 |       0.0000 |       0.0000 |       0.0000 |       0.0000 |       0.0000 |       0.0000 |       0.0000 |       0.0000 |       0.0000 |       0.0000 |       0.0000 |       0.0000 |       0.0000 |       0.0000 |       0.0000 |       0.0000 |       0.0000 |       0.0000 |       0.0000 |       0.0000 |       0.0000 |       0.0000 |       0.0000 |       0.0000 |       0.0000 |       0.0000 |       0.0000 |       0.0000 |       0.0000 |       0.0000 |       0.0000 |       0.0000 |       0.0000 |       0.0000 |       0.0000 |       0.0000 |       0.0000 |       0.0000 |       0.0000 |       0.0000 |       0.0000 |       0.0000 |
dl1.accesses                                222344 |       222344 |       222344 |       222344 |       494447 |       494447 |       494447 |       494447 |      1024530 |      1024530 |      1024530 |      1024530 |      2257565 |      2257565 |      2257565 |      2257565 |      4676144 |      4676144 |      4676144 |      4676144 |     10200473 |     10200473 |     10200473 |     10200473 |     21049224 |     21049224 |     21049224 |     21049224 |     45506167 |     45506167 |     45506167 |     45506167 |     93631792 |     93631792 |     93631792 |     93631792 |    200900539 |    200900539 |    200900539 |    200900539 |    412303828 |    412303828 |    412303828 |    412303828 |
dl1.hits                                    210408 |       210408 |       210618 |       210618 |       466704 |       466704 |       467347 |       467347 |       969134 |       969134 |       970794 |       970794 |      2130047 |      2130047 |      2134161 |      2134161 |      4419885 |      4419885 |      4429800 |      4429800 |      9619590 |      9619590 |      9642701 |      9642701 |     19881338 |     19881338 |     19934144 |     19934144 |     42894863 |     42894863 |     43014315 |     43014315 |     88378402 |     88378402 |     88647393 |     88647393 |    189289736 |    189289736 |    189884008 |    189884008 |    388967210 |    388967210 |    390271621 |    390271621 |
dl1.misses                                   11936 |        11936 |        11726 |        11726 |        27743 |        27743 |        27100 |        27100 |        55396 |        55396 |        53736 |        53736 |       127518 |       127518 |       123404 |       123404 |       256259 |       256259 |       246344 |       246344 |       580883 |       580883 |       557772 |       557772 |      1167886 |      1167886 |      1115080 |      1115080 |      2611304 |      2611304 |      2491852 |      2491852 |      5253390 |      5253390 |      4984399 |      4984399 |     11610803 |     11610803 |     11016531 |     11016531 |     23336618 |     23336618 |     22032207 |     22032207 |
dl1.replacements                             11680 |        11680 |        11470 |        11470 |        27487 |        27487 |        26844 |        26844 |        55140 |        55140 |        53480 |        53480 |       127262 |       127262 |       123148 |       123148 |       256003 |       256003 |       246088 |       246088 |       580627 |       580627 |       557516 |       557516 |      1167630 |      1167630 |      1114824 |      1114824 |      2611048 |      2611048 |      2491596 |      2491596 |      5253134 |      5253134 |      4984143 |      4984143 |     11610547 |     11610547 |     11016275 |     11016275 |     23336362 |     23336362 |     22031951 |     22031951 |
dl1.writebacks                                6562 |         6562 |         6449 |         6449 |        14839 |        14839 |        14650 |        14650 |        29491 |        29491 |        28994 |        28994 |        67019 |        67019 |        65881 |        65881 |       134235 |       134235 |       131457 |       131457 |       301795 |       301795 |       295381 |       295381 |       604968 |       604968 |       590458 |       590458 |      1344294 |      1344294 |      1311688 |      1311688 |      2696910 |      2696910 |      2623844 |      2623844 |      5931719 |      5931719 |      5771669 |      5771669 |     11892115 |     11892115 |     11543019 |     11543019 |
dl1.invalidations                                0 |            0 |            0 |            0 |            0 |            0 |            0 |            0 |            0 |            0 |            0 |            0 |            0 |            0 |            0 |            0 |            0 |            0 |            0 |            0 |            0 |            0 |            0 |            0 |            0 |            0 |            0 |            0 |            0 |            0 |            0 |            0 |            0 |            0 |            0 |            0 |            0 |            0 |            0 |            0 |            0 |            0 |            0 |            0 |
dl1.miss_rate                               0.0537 |       0.0537 |       0.0527 |       0.0527 |       0.0561 |       0.0561 |       0.0548 |       0.0548 |       0.0541 |       0.0541 |       0.0524 |       0.0524 |       0.0565 |       0.0565 |       0.0547 |       0.0547 |       0.0548 |       0.0548 |       0.0527 |       0.0527 |       0.0569 |       0.0569 |       0.0547 |       0.0547 |       0.0555 |       0.0555 |       0.0530 |       0.0530 |       0.0574 |       0.0574 |       0.0548 |       0.0548 |       0.0561 |       0.0561 |       0.0532 |       0.0532 |       0.0578 |       0.0578 |       0.0548 |       0.0548 |       0.0566 |       0.0566 |       0.0534 |       0.0534 |
dl1.repl_rate                               0.0525 |       0.0525 |       0.0516 |       0.0516 |       0.0556 |       0.0556 |       0.0543 |       0.0543 |       0.0538 |       0.0538 |       0.0522 |       0.0522 |       0.0564 |       0.0564 |       0.0545 |       0.0545 |       0.0547 |       0.0547 |       0.0526 |       0.0526 |       0.0569 |       0.0569 |       0.0547 |       0.0547 |       0.0555 |       0.0555 |       0.0530 |       0.0530 |       0.0574 |       0.0574 |       0.0548 |       0.0548 |       0.0561 |       0.0561 |       0.0532 |       0.0532 |       0.0578 |       0.0578 |       0.0548 |       0.0548 |       0.0566 |       0.0566 |       0.0534 |       0.0534 |
dl1.wb_rate                                 0.0295 |       0.0295 |       0.0290 |       0.0290 |       0.0300 |       0.0300 |       0.0296 |       0.0296 |       0.0288 |       0.0288 |       0.0283 |       0.0283 |       0.0297 |       0.0297 |       0.0292 |       0.0292 |       0.0287 |       0.0287 |       0.0281 |       0.0281 |       0.0296 |       0.0296 |       0.0290 |       0.0290 |       0.0287 |       0.0287 |       0.0281 |       0.0281 |       0.0295 |       0.0295 |       0.0288 |       0.0288 |       0.0288 |       0.0288 |       0.0280 |       0.0280 |       0.0295 |       0.0295 |       0.0287 |       0.0287 |       0.0288 |       0.0288 |       0.0280 |       0.0280 |
dl1.inv_rate                                0.0000 |       0.0000 |       0.0000 |       0.0000 |       0.0000 |       0.0000 |       0.0000 |       0.0000 |       0.0000 |       0.0000 |       0.0000 |       0.0000 |       0.0000 |       0.0000 |       0.0000 |       0.0000 |       0.0000 |       0.0000 |       0.0000 |       0.0000 |       0.0000 |       0.0000 |       0.0000 |       0.0000 |       0.0000 |       0.0000 |       0.0000 |       0.0000 |       0.0000 |       0.0000 |       0.0000 |       0.0000 |       0.0000 |       0.0000 |       0.0000 |       0.0000 |       0.0000 |       0.0000 |       0.0000 |       0.0000 |       0.0000 |       0.0000 |       0.0000 |       0.0000 |
dl2.accesses                                 18972 |        18972 |        18596 |        18596 |        43107 |        43107 |        42212 |        42212 |        85401 |        85401 |        83164 |        83164 |       195062 |       195062 |       189748 |       189748 |       390999 |       390999 |       378241 |       378241 |       883204 |       883204 |       853616 |       853616 |      1773360 |      1773360 |      1705978 |      1705978 |      3956124 |      3956124 |      3804003 |      3804003 |      7950841 |      7950841 |      7608716 |      7608716 |     17543073 |     17543073 |     16788675 |     16788675 |     35229274 |     35229274 |     33575699 |     33575699 |
dl2.hits                                     17098 |        17098 |        16748 |        16748 |        40193 |        40193 |        39328 |        39328 |        80462 |        80462 |        78258 |        78258 |       186001 |       186001 |       180719 |       180719 |       373766 |       373766 |       361041 |       361041 |       849567 |       849567 |       820011 |       820011 |      1706975 |      1657544 |      1639626 |      1528432 |      3767529 |      1660597 |      3440372 |      1312775 |      3361548 |      2967870 |      2626342 |      2626282 |      6526387 |      6526128 |      5776151 |      5776151 |     13196746 |     13195977 |     11551589 |     11551589 |
dl2.misses                                    1874 |         1874 |         1848 |         1848 |         2914 |         2914 |         2884 |         2884 |         4939 |         4939 |         4906 |         4906 |         9061 |         9061 |         9029 |         9029 |        17233 |        17233 |        17200 |        17200 |        33637 |        33637 |        33605 |        33605 |        66385 |       115816 |        66352 |       177546 |       188595 |      2295527 |       363631 |      2491228 |      4589293 |      4982971 |      4982374 |      4982434 |     11016686 |     11016945 |     11012524 |     11012524 |     22032528 |     22033297 |     22024110 |     22024110 |
dl2.replacements                               254 |          254 |            0 |            0 |          284 |          284 |            0 |            0 |          283 |          283 |            0 |            0 |          307 |          307 |            0 |            0 |          288 |          288 |            0 |            0 |          308 |          308 |            0 |            0 |          289 |        51391 |            0 |       112010 |        58633 |      2229991 |       232559 |      2425692 |      4458221 |      4917435 |      4851302 |      4916898 |     10885614 |     10951409 |     10881452 |     10946988 |     21901456 |     21967761 |     21893038 |     21958574 |
dl2.writebacks                                 175 |          175 |            0 |            0 |          186 |          186 |            0 |            0 |          183 |          183 |            0 |            0 |          208 |          208 |            0 |            0 |          188 |          188 |            0 |            0 |          208 |          208 |            0 |            0 |          188 |        27965 |            0 |       111771 |        31873 |      1182778 |       232303 |      1278406 |      2449218 |      2581081 |      2557085 |      2589853 |      5641706 |      5707312 |      5703547 |      5736315 |     11455364 |     11499259 |     11472168 |     11504936 |
dl2.invalidations                                0 |            0 |            0 |            0 |            0 |            0 |            0 |            0 |            0 |            0 |            0 |            0 |            0 |            0 |            0 |            0 |            0 |            0 |            0 |            0 |            0 |            0 |            0 |            0 |            0 |            0 |            0 |            0 |            0 |            0 |            0 |            0 |            0 |            0 |            0 |            0 |            0 |            0 |            0 |            0 |            0 |            0 |            0 |            0 |
dl2.miss_rate                               0.0988 |       0.0988 |       0.0994 |       0.0994 |       0.0676 |       0.0676 |       0.0683 |       0.0683 |       0.0578 |       0.0578 |       0.0590 |       0.0590 |       0.0465 |       0.0465 |       0.0476 |       0.0476 |       0.0441 |       0.0441 |       0.0455 |       0.0455 |       0.0381 |       0.0381 |       0.0394 |       0.0394 |       0.0374 |       0.0653 |       0.0389 |       0.1041 |       0.0477 |       0.5802 |       0.0956 |       0.6549 |       0.5772 |       0.6267 |       0.6548 |       0.6548 |       0.6280 |       0.6280 |       0.6559 |       0.6559 |       0.6254 |       0.6254 |       0.6560 |       0.6560 |
dl2.repl_rate                               0.0134 |       0.0134 |       0.0000 |       0.0000 |       0.0066 |       0.0066 |       0.0000 |       0.0000 |       0.0033 |       0.0033 |       0.0000 |       0.0000 |       0.0016 |       0.0016 |       0.0000 |       0.0000 |       0.0007 |       0.0007 |       0.0000 |       0.0000 |       0.0003 |       0.0003 |       0.0000 |       0.0000 |       0.0002 |       0.0290 |       0.0000 |       0.0657 |       0.0148 |       0.5637 |       0.0611 |       0.6377 |       0.5607 |       0.6185 |       0.6376 |       0.6462 |       0.6205 |       0.6243 |       0.6481 |       0.6520 |       0.6217 |       0.6236 |       0.6521 |       0.6540 |
dl2.wb_rate                                 0.0092 |       0.0092 |       0.0000 |       0.0000 |       0.0043 |       0.0043 |       0.0000 |       0.0000 |       0.0021 |       0.0021 |       0.0000 |       0.0000 |       0.0011 |       0.0011 |       0.0000 |       0.0000 |       0.0005 |       0.0005 |       0.0000 |       0.0000 |       0.0002 |       0.0002 |       0.0000 |       0.0000 |       0.0001 |       0.0158 |       0.0000 |       0.0655 |       0.0081 |       0.2990 |       0.0611 |       0.3361 |       0.3080 |       0.3246 |       0.3361 |       0.3404 |       0.3216 |       0.3253 |       0.3397 |       0.3417 |       0.3252 |       0.3264 |       0.3417 |       0.3427 |
dl2.inv_rate                                0.0000 |       0.0000 |       0.0000 |       0.0000 |       0.0000 |       0.0000 |       0.0000 |       0.0000 |       0.0000 |       0.0000 |       0.0000 |       0.0000 |       0.0000 |       0.0000 |       0.0000 |       0.0000 |       0.0000 |       0.0000 |       0.0000 |       0.0000 |       0.0000 |       0.0000 |       0.0000 |       0.0000 |       0.0000 |       0.0000 |       0.0000 |       0.0000 |       0.0000 |       0.0000 |       0.0000 |       0.0000 |       0.0000 |       0.0000 |       0.0000 |       0.0000 |       0.0000 |       0.0000 |       0.0000 |       0.0000 |       0.0000 |       0.0000 |       0.0000 |       0.0000 |
itlb.accesses                               752326 |       752326 |       752326 |       752326 |      1655652 |      1655652 |      1655652 |      1655652 |      3527647 |      3527647 |      3527647 |      3527647 |      7667595 |      7667595 |      7667595 |      7667595 |     16253158 |     16253158 |     16253158 |     16253158 |     34991006 |     34991006 |     34991006 |     34991006 |     73632941 |     73632941 |     73632941 |     73632941 |    157242479 |    157242479 |    157242479 |    157242479 |    329137425 |    329137425 |    329137425 |    329137425 |    698187282 |    698187282 |    698187282 |    698187282 |   1455231221 |   1455231221 |   1455231221 |   1455231221 |
itlb.hits                                   752315 |       752315 |       752315 |       752315 |      1655641 |      1655641 |      1655641 |      1655641 |      3527637 |      3527637 |      3527637 |      3527637 |      7667585 |      7667585 |      7667585 |      7667585 |     16253148 |     16253148 |     16253148 |     16253148 |     34990996 |     34990996 |     34990996 |     34990996 |     73632931 |     73632931 |     73632931 |     73632931 |    157242469 |    157242469 |    157242469 |    157242469 |    329137415 |    329137415 |    329137415 |    329137415 |    698187272 |    698187272 |    698187272 |    698187272 |   1455231211 |   1455231211 |   1455231211 |   1455231211 |
itlb.misses                                     11 |           11 |           11 |           11 |           11 |           11 |           11 |           11 |           10 |           10 |           10 |           10 |           10 |           10 |           10 |           10 |           10 |           10 |           10 |           10 |           10 |           10 |           10 |           10 |           10 |           10 |           10 |           10 |           10 |           10 |           10 |           10 |           10 |           10 |           10 |           10 |           10 |           10 |           10 |           10 |           10 |           10 |           10 |           10 |
itlb.replacements                                0 |            0 |            0 |            0 |            0 |            0 |            0 |            0 |            0 |            0 |            0 |            0 |            0 |            0 |            0 |            0 |            0 |            0 |            0 |            0 |            0 |            0 |            0 |            0 |            0 |            0 |            0 |            0 |            0 |            0 |            0 |            0 |            0 |            0 |            0 |            0 |            0 |            0 |            0 |            0 |            0 |            0 |            0 |            0 |
itlb.writebacks                                  0 |            0 |            0 |            0 |            0 |            0 |            0 |            0 |            0 |            0 |            0 |            0 |            0 |            0 |            0 |            0 |            0 |            0 |            0 |            0 |            0 |            0 |            0 |            0 |            0 |            0 |            0 |            0 |            0 |            0 |            0 |            0 |            0 |            0 |            0 |            0 |            0 |            0 |            0 |            0 |            0 |            0 |            0 |            0 |
itlb.invalidations                               0 |            0 |            0 |            0 |            0 |            0 |            0 |            0 |            0 |            0 |            0 |            0 |            0 |            0 |            0 |            0 |            0 |            0 |            0 |            0 |            0 |            0 |            0 |            0 |            0 |            0 |            0 |            0 |            0 |            0 |            0 |            0 |            0 |            0 |            0 |            0 |            0 |            0 |            0 |            0 |            0 |            0 |            0 |            0 |
itlb.miss_rate                              0.0000 |       0.0000 |       0.0000 |       0.0000 |       0.0000 |       0.0000 |       0.0000 |       0.0000 |       0.0000 |       0.0000 |       0.0000 |       0.0000 |       0.0000 |       0.0000 |       0.0000 |       0.0000 |       0.0000 |       0.0000 |       0.0000 |       0.0000 |       0.0000 |       0.0000 |       0.0000 |       0.0000 |       0.0000 |       0.0000 |       0.0000 |       0.0000 |       0.0000 |       0.0000 |       0.0000 |       0.0000 |       0.0000 |       0.0000 |       0.0000 |       0.0000 |       0.0000 |       0.0000 |       0.0000 |       0.0000 |       0.0000 |       0.0000 |       0.0000 |       0.0000 |
itlb.repl_rate                              0.0000 |       0.0000 |       0.0000 |       0.0000 |       0.0000 |       0.0000 |       0.0000 |       0.0000 |       0.0000 |       0.0000 |       0.0000 |       0.0000 |       0.0000 |       0.0000 |       0.0000 |       0.0000 |       0.0000 |       0.0000 |       0.0000 |       0.0000 |       0.0000 |       0.0000 |       0.0000 |       0.0000 |       0.0000 |       0.0000 |       0.0000 |       0.0000 |       0.0000 |       0.0000 |       0.0000 |       0.0000 |       0.0000 |       0.0000 |       0.0000 |       0.0000 |       0.0000 |       0.0000 |       0.0000 |       0.0000 |       0.0000 |       0.0000 |       0.0000 |       0.0000 |
itlb.wb_rate                                0.0000 |       0.0000 |       0.0000 |       0.0000 |       0.0000 |       0.0000 |       0.0000 |       0.0000 |       0.0000 |       0.0000 |       0.0000 |       0.0000 |       0.0000 |       0.0000 |       0.0000 |       0.0000 |       0.0000 |       0.0000 |       0.0000 |       0.0000 |       0.0000 |       0.0000 |       0.0000 |       0.0000 |       0.0000 |       0.0000 |       0.0000 |       0.0000 |       0.0000 |       0.0000 |       0.0000 |       0.0000 |       0.0000 |       0.0000 |       0.0000 |       0.0000 |       0.0000 |       0.0000 |       0.0000 |       0.0000 |       0.0000 |       0.0000 |       0.0000 |       0.0000 |
itlb.inv_rate                               0.0000 |       0.0000 |       0.0000 |       0.0000 |       0.0000 |       0.0000 |       0.0000 |       0.0000 |       0.0000 |       0.0000 |       0.0000 |       0.0000 |       0.0000 |       0.0000 |       0.0000 |       0.0000 |       0.0000 |       0.0000 |       0.0000 |       0.0000 |       0.0000 |       0.0000 |       0.0000 |       0.0000 |       0.0000 |       0.0000 |       0.0000 |       0.0000 |       0.0000 |       0.0000 |       0.0000 |       0.0000 |       0.0000 |       0.0000 |       0.0000 |       0.0000 |       0.0000 |       0.0000 |       0.0000 |       0.0000 |       0.0000 |       0.0000 |       0.0000 |       0.0000 |
dtlb.accesses                               222344 |       222344 |       222344 |       222344 |       494447 |       494447 |       494447 |       494447 |      1024530 |      1024530 |      1024530 |      1024530 |      2257565 |      2257565 |      2257565 |      2257565 |      4676144 |      4676144 |      4676144 |      4676144 |     10200473 |     10200473 |     10200473 |     10200473 |     21049224 |     21049224 |     21049224 |     21049224 |     45506167 |     45506167 |     45506167 |     45506167 |     93631792 |     93631792 |     93631792 |     93631792 |    200900539 |    200900539 |    200900539 |    200900539 |    412303828 |    412303828 |    412303828 |    412303828 |
dtlb.hits                                   222329 |       222329 |       222329 |       222329 |       494424 |       494424 |       494424 |       494424 |      1024491 |      1024491 |      1024491 |      1024491 |      2257494 |      2257494 |      2257494 |      2257494 |      4675944 |      4675944 |      4675944 |      4675944 |     10196231 |     10196231 |     10196231 |     10196231 |     21040486 |     21040486 |     21040486 |     21040486 |     45486666 |     45486666 |     45486666 |     45486666 |     93592815 |     93592815 |     93592815 |     93592815 |    200814418 |    200814418 |    200814418 |    200814418 |    412131617 |    412131617 |    412131617 |    412131617 |
dtlb.misses                                     15 |           15 |           15 |           15 |           23 |           23 |           23 |           23 |           39 |           39 |           39 |           39 |           71 |           71 |           71 |           71 |          200 |          200 |          200 |          200 |         4242 |         4242 |         4242 |         4242 |         8738 |         8738 |         8738 |         8738 |        19501 |        19501 |        19501 |        19501 |        38977 |        38977 |        38977 |        38977 |        86121 |        86121 |        86121 |        86121 |       172211 |       172211 |       172211 |       172211 |
dtlb.replacements                                0 |            0 |            0 |            0 |            0 |            0 |            0 |            0 |            0 |            0 |            0 |            0 |            0 |            0 |            0 |            0 |           72 |           72 |           72 |           72 |         4114 |         4114 |         4114 |         4114 |         8610 |         8610 |         8610 |         8610 |        19373 |        19373 |        19373 |        19373 |        38849 |        38849 |        38849 |        38849 |        85993 |        85993 |        85993 |        85993 |       172083 |       172083 |       172083 |       172083 |
dtlb.writebacks                                  0 |            0 |            0 |            0 |            0 |            0 |            0 |            0 |            0 |            0 |            0 |            0 |            0 |            0 |            0 |            0 |           42 |           42 |           42 |           42 |         2152 |         2152 |         2152 |         2152 |         4564 |         4564 |         4564 |         4564 |        10205 |        10205 |        10205 |        10205 |        20458 |        20458 |        20458 |        20458 |        45063 |        45063 |        45063 |        45063 |        90172 |        90172 |        90172 |        90172 |
dtlb.invalidations                               0 |            0 |            0 |            0 |            0 |            0 |            0 |            0 |            0 |            0 |            0 |            0 |            0 |            0 |            0 |            0 |            0 |            0 |            0 |            0 |            0 |            0 |            0 |            0 |            0 |            0 |            0 |            0 |            0 |            0 |            0 |            0 |            0 |            0 |            0 |            0 |            0 |            0 |            0 |            0 |            0 |            0 |            0 |            0 |
dtlb.miss_rate                              0.0001 |       0.0001 |       0.0001 |       0.0001 |       0.0000 |       0.0000 |       0.0000 |       0.0000 |       0.0000 |       0.0000 |       0.0000 |       0.0000 |       0.0000 |       0.0000 |       0.0000 |       0.0000 |       0.0000 |       0.0000 |       0.0000 |       0.0000 |       0.0004 |       0.0004 |       0.0004 |       0.0004 |       0.0004 |       0.0004 |       0.0004 |       0.0004 |       0.0004 |       0.0004 |       0.0004 |       0.0004 |       0.0004 |       0.0004 |       0.0004 |       0.0004 |       0.0004 |       0.0004 |       0.0004 |       0.0004 |       0.0004 |       0.0004 |       0.0004 |       0.0004 |
dtlb.repl_rate                              0.0000 |       0.0000 |       0.0000 |       0.0000 |       0.0000 |       0.0000 |       0.0000 |       0.0000 |       0.0000 |       0.0000 |       0.0000 |       0.0000 |       0.0000 |       0.0000 |       0.0000 |       0.0000 |       0.0000 |       0.0000 |       0.0000 |       0.0000 |       0.0004 |       0.0004 |       0.0004 |       0.0004 |       0.0004 |       0.0004 |       0.0004 |       0.0004 |       0.0004 |       0.0004 |       0.0004 |       0.0004 |       0.0004 |       0.0004 |       0.0004 |       0.0004 |       0.0004 |       0.0004 |       0.0004 |       0.0004 |       0.0004 |       0.0004 |       0.0004 |       0.0004 |
dtlb.wb_rate                                0.0000 |       0.0000 |       0.0000 |       0.0000 |       0.0000 |       0.0000 |       0.0000 |       0.0000 |       0.0000 |       0.0000 |       0.0000 |       0.0000 |       0.0000 |       0.0000 |       0.0000 |       0.0000 |       0.0000 |       0.0000 |       0.0000 |       0.0000 |       0.0002 |       0.0002 |       0.0002 |       0.0002 |       0.0002 |       0.0002 |       0.0002 |       0.0002 |       0.0002 |       0.0002 |       0.0002 |       0.0002 |       0.0002 |       0.0002 |       0.0002 |       0.0002 |       0.0002 |       0.0002 |       0.0002 |       0.0002 |       0.0002 |       0.0002 |       0.0002 |       0.0002 |
dtlb.inv_rate                               0.0000 |       0.0000 |       0.0000 |       0.0000 |       0.0000 |       0.0000 |       0.0000 |       0.0000 |       0.0000 |       0.0000 |       0.0000 |       0.0000 |       0.0000 |       0.0000 |       0.0000 |       0.0000 |       0.0000 |       0.0000 |       0.0000 |       0.0000 |       0.0000 |       0.0000 |       0.0000 |       0.0000 |       0.0000 |       0.0000 |       0.0000 |       0.0000 |       0.0000 |       0.0000 |       0.0000 |       0.0000 |       0.0000 |       0.0000 |       0.0000 |       0.0000 |       0.0000 |       0.0000 |       0.0000 |       0.0000 |       0.0000 |       0.0000 |       0.0000 |       0.0000 |
ld_text_base                            0x00400000 |   0x00400000 |   0x00400000 |   0x00400000 |   0x00400000 |   0x00400000 |   0x00400000 |   0x00400000 |   0x00400000 |   0x00400000 |   0x00400000 |   0x00400000 |   0x00400000 |   0x00400000 |   0x00400000 |   0x00400000 |   0x00400000 |   0x00400000 |   0x00400000 |   0x00400000 |   0x00400000 |   0x00400000 |   0x00400000 |   0x00400000 |   0x00400000 |   0x00400000 |   0x00400000 |   0x00400000 |   0x00400000 |   0x00400000 |   0x00400000 |   0x00400000 |   0x00400000 |   0x00400000 |   0x00400000 |   0x00400000 |   0x00400000 |   0x00400000 |   0x00400000 |   0x00400000 |   0x00400000 |   0x00400000 |   0x00400000 |   0x00400000 |
ld_text_size                                 74928 |        74928 |        74928 |        74928 |        74960 |        74960 |        74960 |        74960 |        74976 |        74976 |        74976 |        74976 |        74992 |        74992 |        74992 |        74992 |        74992 |        74992 |        74992 |        74992 |        74992 |        74992 |        74992 |        74992 |        74992 |        74992 |        74992 |        74992 |        74992 |        74992 |        74992 |        74992 |        74992 |        74992 |        74992 |        74992 |        74992 |        74992 |        74992 |        74992 |        74992 |        74992 |        74992 |        74992 |
ld_data_base                            0x10000000 |   0x10000000 |   0x10000000 |   0x10000000 |   0x10000000 |   0x10000000 |   0x10000000 |   0x10000000 |   0x10000000 |   0x10000000 |   0x10000000 |   0x10000000 |   0x10000000 |   0x10000000 |   0x10000000 |   0x10000000 |   0x10000000 |   0x10000000 |   0x10000000 |   0x10000000 |   0x10000000 |   0x10000000 |   0x10000000 |   0x10000000 |   0x10000000 |   0x10000000 |   0x10000000 |   0x10000000 |   0x10000000 |   0x10000000 |   0x10000000 |   0x10000000 |   0x10000000 |   0x10000000 |   0x10000000 |   0x10000000 |   0x10000000 |   0x10000000 |   0x10000000 |   0x10000000 |   0x10000000 |   0x10000000 |   0x10000000 |   0x10000000 |
ld_data_size                                  8192 |         8192 |         8192 |         8192 |         8192 |         8192 |         8192 |         8192 |         8192 |         8192 |         8192 |         8192 |         8192 |         8192 |         8192 |         8192 |         8192 |         8192 |         8192 |         8192 |         8192 |         8192 |         8192 |         8192 |         8192 |         8192 |         8192 |         8192 |         8192 |         8192 |         8192 |         8192 |         8192 |         8192 |         8192 |         8192 |         8192 |         8192 |         8192 |         8192 |         8192 |         8192 |         8192 |         8192 |
ld_stack_base                           0x7fffc000 |   0x7fffc000 |   0x7fffc000 |   0x7fffc000 |   0x7fffc000 |   0x7fffc000 |   0x7fffc000 |   0x7fffc000 |   0x7fffc000 |   0x7fffc000 |   0x7fffc000 |   0x7fffc000 |   0x7fffc000 |   0x7fffc000 |   0x7fffc000 |   0x7fffc000 |   0x7fffc000 |   0x7fffc000 |   0x7fffc000 |   0x7fffc000 |   0x7fffc000 |   0x7fffc000 |   0x7fffc000 |   0x7fffc000 |   0x7fffc000 |   0x7fffc000 |   0x7fffc000 |   0x7fffc000 |   0x7fffc000 |   0x7fffc000 |   0x7fffc000 |   0x7fffc000 |   0x7fffc000 |   0x7fffc000 |   0x7fffc000 |   0x7fffc000 |   0x7fffc000 |   0x7fffc000 |   0x7fffc000 |   0x7fffc000 |   0x7fffc000 |   0x7fffc000 |   0x7fffc000 |   0x7fffc000 |
ld_stack_size                                16384 |        16384 |        16384 |        16384 |        16384 |        16384 |        16384 |        16384 |        16384 |        16384 |        16384 |        16384 |        16384 |        16384 |        16384 |        16384 |        16384 |        16384 |        16384 |        16384 |        16384 |        16384 |        16384 |        16384 |        16384 |        16384 |        16384 |        16384 |        16384 |        16384 |        16384 |        16384 |        16384 |        16384 |        16384 |        16384 |        16384 |        16384 |        16384 |        16384 |        16384 |        16384 |        16384 |        16384 |
ld_prog_entry                           0x00400140 |   0x00400140 |   0x00400140 |   0x00400140 |   0x00400140 |   0x00400140 |   0x00400140 |   0x00400140 |   0x00400140 |   0x00400140 |   0x00400140 |   0x00400140 |   0x00400140 |   0x00400140 |   0x00400140 |   0x00400140 |   0x00400140 |   0x00400140 |   0x00400140 |   0x00400140 |   0x00400140 |   0x00400140 |   0x00400140 |   0x00400140 |   0x00400140 |   0x00400140 |   0x00400140 |   0x00400140 |   0x00400140 |   0x00400140 |   0x00400140 |   0x00400140 |   0x00400140 |   0x00400140 |   0x00400140 |   0x00400140 |   0x00400140 |   0x00400140 |   0x00400140 |   0x00400140 |   0x00400140 |   0x00400140 |   0x00400140 |   0x00400140 |
ld_environ_base                         0x7fff8000 |   0x7fff8000 |   0x7fff8000 |   0x7fff8000 |   0x7fff8000 |   0x7fff8000 |   0x7fff8000 |   0x7fff8000 |   0x7fff8000 |   0x7fff8000 |   0x7fff8000 |   0x7fff8000 |   0x7fff8000 |   0x7fff8000 |   0x7fff8000 |   0x7fff8000 |   0x7fff8000 |   0x7fff8000 |   0x7fff8000 |   0x7fff8000 |   0x7fff8000 |   0x7fff8000 |   0x7fff8000 |   0x7fff8000 |   0x7fff8000 |   0x7fff8000 |   0x7fff8000 |   0x7fff8000 |   0x7fff8000 |   0x7fff8000 |   0x7fff8000 |   0x7fff8000 |   0x7fff8000 |   0x7fff8000 |   0x7fff8000 |   0x7fff8000 |   0x7fff8000 |   0x7fff8000 |   0x7fff8000 |   0x7fff8000 |   0x7fff8000 |   0x7fff8000 |   0x7fff8000 |   0x7fff8000 |
ld_target_big_endian                             0 |            0 |            0 |            0 |            0 |            0 |            0 |            0 |            0 |            0 |            0 |            0 |            0 |            0 |            0 |            0 |            0 |            0 |            0 |            0 |            0 |            0 |            0 |            0 |            0 |            0 |            0 |            0 |            0 |            0 |            0 |            0 |            0 |            0 |            0 |            0 |            0 |            0 |            0 |            0 |            0 |            0 |            0 |            0 |
mem.page_count                                  34 |           34 |           34 |           34 |           42 |           42 |           42 |           42 |           58 |           58 |           58 |           58 |           90 |           90 |           90 |           90 |          154 |          154 |          154 |          154 |          282 |          282 |          282 |          282 |          538 |          538 |          538 |          538 |         1050 |         1050 |         1050 |         1050 |         2080 |         2080 |         2080 |         2080 |         4134 |         4134 |         4134 |         4134 |         8242 |         8242 |         8242 |         8242 |
mem.page_mem                                  136k |         136k |         136k |         136k |         168k |         168k |         168k |         168k |         232k |         232k |         232k |         232k |         360k |         360k |         360k |         360k |         616k |         616k |         616k |         616k |        1128k |        1128k |        1128k |        1128k |        2152k |        2152k |        2152k |        2152k |        4200k |        4200k |        4200k |        4200k |        8320k |        8320k |        8320k |        8320k |       16536k |       16536k |       16536k |       16536k |       32968k |       32968k |       32968k |       32968k |
mem.ptab_misses                                 34 |           34 |           34 |           34 |           42 |           42 |           42 |           42 |           58 |           58 |           58 |           58 |           90 |           90 |           90 |           90 |          154 |          154 |          154 |          154 |          282 |          282 |          282 |          282 |          538 |          538 |          538 |          538 |         1050 |         1050 |         1050 |         1050 |       105555 |       105555 |       105555 |       105555 |       112281 |       112281 |       112281 |       112281 |       123511 |       123511 |       123511 |       123511 |
mem.ptab_accesses                          3918148 |      3918148 |      3918148 |      3918148 |      8075850 |      8075850 |      8075850 |      8075850 |     16624092 |     16624092 |     16624092 |     16624092 |     35650050 |     35650050 |     35650050 |     35650050 |     74829460 |     74829460 |     74829460 |     74829460 |    160829510 |    160829510 |    160829510 |    160829510 |    337094752 |    337094752 |    337094752 |    337094752 |    720446790 |    720446790 |    720446790 |    720446790 |   1504277824 |   1504277824 |   1504277824 |   1504277824 |   3195014746 |   3195014746 |   3195014746 |   3195014746 |   6645997080 |   6645997080 |   6645997080 |   6645997080 |
mem.ptab_miss_rate                          0.0000 |       0.0000 |       0.0000 |       0.0000 |       0.0000 |       0.0000 |       0.0000 |       0.0000 |       0.0000 |       0.0000 |       0.0000 |       0.0000 |       0.0000 |       0.0000 |       0.0000 |       0.0000 |       0.0000 |       0.0000 |       0.0000 |       0.0000 |       0.0000 |       0.0000 |       0.0000 |       0.0000 |       0.0000 |       0.0000 |       0.0000 |       0.0000 |       0.0000 |       0.0000 |       0.0000 |       0.0000 |       0.0001 |       0.0001 |       0.0001 |       0.0001 |       0.0000 |       0.0000 |       0.0000 |       0.0000 |       0.0000 |       0.0000 |       0.0000 |       0.0000 |
-------------------------------------------------------------------------------------------------
sim-bpred                                     4096 |         4096 |         4096 |         4096 |         4096 |         4096 |         4096 |         8192 |         8192 |         8192 |         8192 |         8192 |         8192 |         8192 |        16384 |        16384 |        16384 |        16384 |        16384 |        16384 |        16384 |        32768 |        32768 |        32768 |        32768 |        32768 |        32768 |        32768 |        65536 |        65536 |        65536 |        65536 |        65536 |        65536 |        65536 |       131072 |       131072 |       131072 |       131072 |       131072 |       131072 |       131072 |       262144 |       262144 |       262144 |       262144 |       262144 |       262144 |       262144 |       524288 |       524288 |       524288 |       524288 |       524288 |       524288 |       524288 |      1048576 |      1048576 |      1048576 |      1048576 |      1048576 |      1048576 |      1048576 |      2097152 |      2097152 |      2097152 |      2097152 |      2097152 |      2097152 |      2097152 |      4194304 |      4194304 |      4194304 |      4194304 |      4194304 |      4194304 |      4194304 |
-bpred bimod -bpred:bimod 512
-bpred bimod -bpred:bimod 1024
-bpred bimod -bpred:bimod 2048
-bpred 2lev -bpred:2lev 1 512 10 1
-bpred 2lev -bpred:2lev 1 1024 10 1
-bpred 2lev -bpred:2lev 1 2048 10 1
-bpred 2lev -bpred:2lev 1 4096 10 1
-------------------------------------------------------------------------------------------------
sim_num_insn                                752326 |       752326 |       752326 |       752326 |       752326 |       752326 |       752326 |      1655652 |      1655652 |      1655652 |      1655652 |      1655652 |      1655652 |      1655652 |      3527647 |      3527647 |      3527647 |      3527647 |      3527647 |      3527647 |      3527647 |      7667595 |      7667595 |      7667595 |      7667595 |      7667595 |      7667595 |      7667595 |     16253158 |     16253158 |     16253158 |     16253158 |     16253158 |     16253158 |     16253158 |     34991006 |     34991006 |     34991006 |     34991006 |     34991006 |     34991006 |     34991006 |     73632941 |     73632941 |     73632941 |     73632941 |     73632941 |     73632941 |     73632941 |    157242479 |    157242479 |    157242479 |    157242479 |    157242479 |    157242479 |    157242479 |    329137425 |    329137425 |    329137425 |    329137425 |    329137425 |    329137425 |    329137425 |    698187282 |    698187282 |    698187282 |    698187282 |    698187282 |    698187282 |    698187282 |   1455231221 |   1455231221 |   1455231221 |   1455231221 |   1455231221 |   1455231221 |   1455231221 |
sim_num_refs                                205878 |       205878 |       205878 |       205878 |       205878 |       205878 |       205878 |       461597 |       461597 |       461597 |       461597 |       461597 |       461597 |       461597 |       958912 |       958912 |       958912 |       958912 |       958912 |       958912 |       958912 |      2126411 |      2126411 |      2126411 |      2126411 |      2126411 |      2126411 |      2126411 |      4413918 |      4413918 |      4413918 |      4413918 |      4413918 |      4413918 |      4413918 |      9676103 |      9676103 |      9676103 |      9676103 |      9676103 |      9676103 |      9676103 |     20000566 |     20000566 |     20000566 |     20000566 |     20000566 |     20000566 |     20000566 |     43408933 |     43408933 |     43408933 |     43408933 |     43408933 |     43408933 |     43408933 |     89437406 |     89437406 |     89437406 |     89437406 |     89437406 |     89437406 |     89437406 |    192511849 |    192511849 |    192511849 |    192511849 |    192511849 |    192511849 |    192511849 |    395526530 |    395526530 |    395526530 |    395526530 |    395526530 |    395526530 |    395526530 |
sim_elapsed_time                                 1 |            1 |            1 |            1 |            1 |            1 |            1 |            1 |            1 |            1 |            1 |            1 |            1 |            1 |            1 |            1 |            1 |            1 |            1 |            1 |            1 |            1 |            1 |            1 |            1 |            1 |            1 |            1 |            1 |            2 |            2 |            2 |            2 |            2 |            2 |            4 |            4 |            4 |            3 |            6 |            4 |            3 |            8 |            9 |            8 |            8 |           11 |            8 |            8 |           16 |           20 |           17 |           16 |           24 |           17 |           17 |           34 |           41 |           35 |           35 |           51 |           35 |           35 |           73 |           87 |           74 |           74 |          106 |           75 |           75 |          152 |          182 |          152 |          153 |          221 |          156 |          154 |
sim_inst_rate                          752326.0000 |  752326.0000 |  752326.0000 |  752326.0000 |  752326.0000 |  752326.0000 |  752326.0000 | 1655652.0000 | 1655652.0000 | 1655652.0000 | 1655652.0000 | 1655652.0000 | 1655652.0000 | 1655652.0000 | 3527647.0000 | 3527647.0000 | 3527647.0000 | 3527647.0000 | 3527647.0000 | 3527647.0000 | 3527647.0000 | 7667595.0000 | 7667595.0000 | 7667595.0000 | 7667595.0000 | 7667595.0000 | 7667595.0000 | 7667595.0000 |16253158.0000 | 8126579.0000 | 8126579.0000 | 8126579.0000 | 8126579.0000 | 8126579.0000 | 8126579.0000 | 8747751.5000 | 8747751.5000 | 8747751.5000 |11663668.6667 | 5831834.3333 | 8747751.5000 |11663668.6667 | 9204117.6250 | 8181437.8889 | 9204117.6250 | 9204117.6250 | 6693903.7273 | 9204117.6250 | 9204117.6250 | 9827654.9375 | 7862123.9500 | 9249557.5882 | 9827654.9375 | 6551769.9583 | 9249557.5882 | 9249557.5882 | 9680512.5000 | 8027742.0732 | 9403926.4286 | 9403926.4286 | 6453675.0000 | 9403926.4286 | 9403926.4286 | 9564209.3425 | 8025141.1724 | 9434963.2703 | 9434963.2703 | 6586672.4717 | 9309163.7600 | 9309163.7600 | 9573889.6118 | 7995775.9396 | 9573889.6118 | 9511315.1699 | 6584756.6561 | 9328405.2628 | 9449553.3831 |
sim_num_branches                             94583 |        94583 |        94583 |        94583 |        94583 |        94583 |        94583 |       206074 |       206074 |       206074 |       206074 |       206074 |       206074 |       206074 |       441284 |       441284 |       441284 |       441284 |       441284 |       441284 |       441284 |       951044 |       951044 |       951044 |       951044 |       951044 |       951044 |       951044 |      2025218 |      2025218 |      2025218 |      2025218 |      2025218 |      2025218 |      2025218 |      4328694 |      4328694 |      4328694 |      4328694 |      4328694 |      4328694 |      4328694 |      9147300 |      9147300 |      9147300 |      9147300 |      9147300 |      9147300 |      9147300 |     19412334 |     19412334 |     19412334 |     19412334 |     19412334 |     19412334 |     19412334 |     40789759 |     40789759 |     40789759 |     40789759 |     40789759 |     40789759 |     40789759 |     86051569 |     86051569 |     86051569 |     86051569 |     86051569 |     86051569 |     86051569 |    179999467 |    179999467 |    179999467 |    179999467 |    179999467 |    179999467 |    179999467 |
sim_IPB                                     7.9541 |       7.9541 |       7.9541 |       7.9541 |       7.9541 |       7.9541 |       7.9541 |       8.0343 |       8.0343 |       8.0343 |       8.0343 |       8.0343 |       8.0343 |       8.0343 |       7.9941 |       7.9941 |       7.9941 |       7.9941 |       7.9941 |       7.9941 |       7.9941 |       8.0623 |       8.0623 |       8.0623 |       8.0623 |       8.0623 |       8.0623 |       8.0623 |       8.0254 |       8.0254 |       8.0254 |       8.0254 |       8.0254 |       8.0254 |       8.0254 |       8.0835 |       8.0835 |       8.0835 |       8.0835 |       8.0835 |       8.0835 |       8.0835 |       8.0497 |       8.0497 |       8.0497 |       8.0497 |       8.0497 |       8.0497 |       8.0497 |       8.1001 |       8.1001 |       8.1001 |       8.1001 |       8.1001 |       8.1001 |       8.1001 |       8.0691 |       8.0691 |       8.0691 |       8.0691 |       8.0691 |       8.0691 |       8.0691 |       8.1136 |       8.1136 |       8.1136 |       8.1136 |       8.1136 |       8.1136 |       8.1136 |       8.0846 |       8.0846 |       8.0846 |       8.0846 |       8.0846 |       8.0846 |       8.0846 |
bpred_bimod.lookups                          94583 |        94583 |        94583 |xxxxxxxxxxxxx |xxxxxxxxxxxxx |xxxxxxxxxxxxx |xxxxxxxxxxxxx |       206074 |       206074 |       206074 |xxxxxxxxxxxxx |xxxxxxxxxxxxx |xxxxxxxxxxxxx |xxxxxxxxxxxxx |       441284 |       441284 |       441284 |xxxxxxxxxxxxx |xxxxxxxxxxxxx |xxxxxxxxxxxxx |xxxxxxxxxxxxx |       951044 |       951044 |       951044 |xxxxxxxxxxxxx |xxxxxxxxxxxxx |xxxxxxxxxxxxx |xxxxxxxxxxxxx |      2025218 |      2025218 |      2025218 |xxxxxxxxxxxxx |xxxxxxxxxxxxx |xxxxxxxxxxxxx |xxxxxxxxxxxxx |      4328694 |      4328694 |      4328694 |xxxxxxxxxxxxx |xxxxxxxxxxxxx |xxxxxxxxxxxxx |xxxxxxxxxxxxx |      9147300 |      9147300 |      9147300 |xxxxxxxxxxxxx |xxxxxxxxxxxxx |xxxxxxxxxxxxx |xxxxxxxxxxxxx |     19412334 |     19412334 |     19412334 |xxxxxxxxxxxxx |xxxxxxxxxxxxx |xxxxxxxxxxxxx |xxxxxxxxxxxxx |     40789759 |     40789759 |     40789759 |xxxxxxxxxxxxx |xxxxxxxxxxxxx |xxxxxxxxxxxxx |xxxxxxxxxxxxx |     86051569 |     86051569 |     86051569 |xxxxxxxxxxxxx |xxxxxxxxxxxxx |xxxxxxxxxxxxx |xxxxxxxxxxxxx |    179999467 |    179999467 |    179999467 |
bpred_bimod.updates                          94583 |        94583 |        94583 |xxxxxxxxxxxxx |xxxxxxxxxxxxx |xxxxxxxxxxxxx |xxxxxxxxxxxxx |       206074 |       206074 |       206074 |xxxxxxxxxxxxx |xxxxxxxxxxxxx |xxxxxxxxxxxxx |xxxxxxxxxxxxx |       441284 |       441284 |       441284 |xxxxxxxxxxxxx |xxxxxxxxxxxxx |xxxxxxxxxxxxx |xxxxxxxxxxxxx |       951044 |       951044 |       951044 |xxxxxxxxxxxxx |xxxxxxxxxxxxx |xxxxxxxxxxxxx |xxxxxxxxxxxxx |      2025218 |      2025218 |      2025218 |xxxxxxxxxxxxx |xxxxxxxxxxxxx |xxxxxxxxxxxxx |xxxxxxxxxxxxx |      4328694 |      4328694 |      4328694 |xxxxxxxxxxxxx |xxxxxxxxxxxxx |xxxxxxxxxxxxx |xxxxxxxxxxxxx |      9147300 |      9147300 |      9147300 |xxxxxxxxxxxxx |xxxxxxxxxxxxx |xxxxxxxxxxxxx |xxxxxxxxxxxxx |     19412334 |     19412334 |     19412334 |xxxxxxxxxxxxx |xxxxxxxxxxxxx |xxxxxxxxxxxxx |xxxxxxxxxxxxx |     40789759 |     40789759 |     40789759 |xxxxxxxxxxxxx |xxxxxxxxxxxxx |xxxxxxxxxxxxx |xxxxxxxxxxxxx |     86051569 |     86051569 |     86051569 |xxxxxxxxxxxxx |xxxxxxxxxxxxx |xxxxxxxxxxxxx |xxxxxxxxxxxxx |    179999467 |    179999467 |    179999467 |
bpred_bimod.addr_hits                        69453 |        69455 |        69458 |xxxxxxxxxxxxx |xxxxxxxxxxxxx |xxxxxxxxxxxxx |xxxxxxxxxxxxx |       151735 |       151738 |       151743 |xxxxxxxxxxxxx |xxxxxxxxxxxxx |xxxxxxxxxxxxx |xxxxxxxxxxxxx |       324474 |       324480 |       324485 |xxxxxxxxxxxxx |xxxxxxxxxxxxx |xxxxxxxxxxxxx |xxxxxxxxxxxxx |       701252 |       701255 |       701258 |xxxxxxxxxxxxx |xxxxxxxxxxxxx |xxxxxxxxxxxxx |xxxxxxxxxxxxx |      1492630 |      1492632 |      1492637 |xxxxxxxxxxxxx |xxxxxxxxxxxxx |xxxxxxxxxxxxx |xxxxxxxxxxxxx |      3197585 |      3197588 |      3197592 |xxxxxxxxxxxxx |xxxxxxxxxxxxx |xxxxxxxxxxxxx |xxxxxxxxxxxxx |      6755430 |      6755432 |      6755437 |xxxxxxxxxxxxx |xxxxxxxxxxxxx |xxxxxxxxxxxxx |xxxxxxxxxxxxx |     14365650 |     14365653 |     14365656 |xxxxxxxxxxxxx |xxxxxxxxxxxxx |xxxxxxxxxxxxx |xxxxxxxxxxxxx |     30174763 |     30174766 |     30174769 |xxxxxxxxxxxxx |xxxxxxxxxxxxx |xxxxxxxxxxxxx |xxxxxxxxxxxxx |     63773992 |     63773995 |     63773997 |xxxxxxxxxxxxx |xxxxxxxxxxxxx |xxxxxxxxxxxxx |xxxxxxxxxxxxx |    133342604 |    133342607 |    133342610 |
bpred_bimod.dir_hits                         69566 |        69567 |        69569 |xxxxxxxxxxxxx |xxxxxxxxxxxxx |xxxxxxxxxxxxx |xxxxxxxxxxxxx |       151856 |       151858 |       151864 |xxxxxxxxxxxxx |xxxxxxxxxxxxx |xxxxxxxxxxxxx |xxxxxxxxxxxxx |       324592 |       324594 |       324599 |xxxxxxxxxxxxx |xxxxxxxxxxxxx |xxxxxxxxxxxxx |xxxxxxxxxxxxx |       701375 |       701376 |       701378 |xxxxxxxxxxxxx |xxxxxxxxxxxxx |xxxxxxxxxxxxx |xxxxxxxxxxxxx |      1492747 |      1492747 |      1492751 |xxxxxxxxxxxxx |xxxxxxxxxxxxx |xxxxxxxxxxxxx |xxxxxxxxxxxxx |      3197710 |      3197711 |      3197714 |xxxxxxxxxxxxx |xxxxxxxxxxxxx |xxxxxxxxxxxxx |xxxxxxxxxxxxx |      6755549 |      6755549 |      6755553 |xxxxxxxxxxxxx |xxxxxxxxxxxxx |xxxxxxxxxxxxx |xxxxxxxxxxxxx |     14365775 |     14365776 |     14365778 |xxxxxxxxxxxxx |xxxxxxxxxxxxx |xxxxxxxxxxxxx |xxxxxxxxxxxxx |     30174893 |     30174894 |     30174896 |xxxxxxxxxxxxx |xxxxxxxxxxxxx |xxxxxxxxxxxxx |xxxxxxxxxxxxx |     63774123 |     63774124 |     63774125 |xxxxxxxxxxxxx |xxxxxxxxxxxxx |xxxxxxxxxxxxx |xxxxxxxxxxxxx |    133342734 |    133342735 |    133342737 |
bpred_bimod.misses                           25017 |        25016 |        25014 |xxxxxxxxxxxxx |xxxxxxxxxxxxx |xxxxxxxxxxxxx |xxxxxxxxxxxxx |        54218 |        54216 |        54210 |xxxxxxxxxxxxx |xxxxxxxxxxxxx |xxxxxxxxxxxxx |xxxxxxxxxxxxx |       116692 |       116690 |       116685 |xxxxxxxxxxxxx |xxxxxxxxxxxxx |xxxxxxxxxxxxx |xxxxxxxxxxxxx |       249669 |       249668 |       249666 |xxxxxxxxxxxxx |xxxxxxxxxxxxx |xxxxxxxxxxxxx |xxxxxxxxxxxxx |       532471 |       532471 |       532467 |xxxxxxxxxxxxx |xxxxxxxxxxxxx |xxxxxxxxxxxxx |xxxxxxxxxxxxx |      1130984 |      1130983 |      1130980 |xxxxxxxxxxxxx |xxxxxxxxxxxxx |xxxxxxxxxxxxx |xxxxxxxxxxxxx |      2391751 |      2391751 |      2391747 |xxxxxxxxxxxxx |xxxxxxxxxxxxx |xxxxxxxxxxxxx |xxxxxxxxxxxxx |      5046559 |      5046558 |      5046556 |xxxxxxxxxxxxx |xxxxxxxxxxxxx |xxxxxxxxxxxxx |xxxxxxxxxxxxx |     10614866 |     10614865 |     10614863 |xxxxxxxxxxxxx |xxxxxxxxxxxxx |xxxxxxxxxxxxx |xxxxxxxxxxxxx |     22277446 |     22277445 |     22277444 |xxxxxxxxxxxxx |xxxxxxxxxxxxx |xxxxxxxxxxxxx |xxxxxxxxxxxxx |     46656733 |     46656732 |     46656730 |
bpred_bimod.jr_hits                             61 |           61 |           61 |xxxxxxxxxxxxx |xxxxxxxxxxxxx |xxxxxxxxxxxxx |xxxxxxxxxxxxx |           71 |           71 |           71 |xxxxxxxxxxxxx |xxxxxxxxxxxxx |xxxxxxxxxxxxx |xxxxxxxxxxxxx |           69 |           69 |           69 |xxxxxxxxxxxxx |xxxxxxxxxxxxx |xxxxxxxxxxxxx |xxxxxxxxxxxxx |           71 |           71 |           71 |xxxxxxxxxxxxx |xxxxxxxxxxxxx |xxxxxxxxxxxxx |xxxxxxxxxxxxx |           69 |           69 |           69 |xxxxxxxxxxxxx |xxxxxxxxxxxxx |xxxxxxxxxxxxx |xxxxxxxxxxxxx |           71 |           71 |           71 |xxxxxxxxxxxxx |xxxxxxxxxxxxx |xxxxxxxxxxxxx |xxxxxxxxxxxxx |           69 |           69 |           69 |xxxxxxxxxxxxx |xxxxxxxxxxxxx |xxxxxxxxxxxxx |xxxxxxxxxxxxx |           71 |           71 |           71 |xxxxxxxxxxxxx |xxxxxxxxxxxxx |xxxxxxxxxxxxx |xxxxxxxxxxxxx |           72 |           72 |           72 |xxxxxxxxxxxxx |xxxxxxxxxxxxx |xxxxxxxxxxxxx |xxxxxxxxxxxxx |           75 |           75 |           75 |xxxxxxxxxxxxx |xxxxxxxxxxxxx |xxxxxxxxxxxxx |xxxxxxxxxxxxx |           72 |           72 |           72 |
bpred_bimod.jr_seen                             61 |           61 |           61 |xxxxxxxxxxxxx |xxxxxxxxxxxxx |xxxxxxxxxxxxx |xxxxxxxxxxxxx |           73 |           73 |           73 |xxxxxxxxxxxxx |xxxxxxxxxxxxx |xxxxxxxxxxxxx |xxxxxxxxxxxxx |           70 |           70 |           70 |xxxxxxxxxxxxx |xxxxxxxxxxxxx |xxxxxxxxxxxxx |xxxxxxxxxxxxx |           73 |           73 |           73 |xxxxxxxxxxxxx |xxxxxxxxxxxxx |xxxxxxxxxxxxx |xxxxxxxxxxxxx |           70 |           70 |           70 |xxxxxxxxxxxxx |xxxxxxxxxxxxx |xxxxxxxxxxxxx |xxxxxxxxxxxxx |           73 |           73 |           73 |xxxxxxxxxxxxx |xxxxxxxxxxxxx |xxxxxxxxxxxxx |xxxxxxxxxxxxx |           70 |           70 |           70 |xxxxxxxxxxxxx |xxxxxxxxxxxxx |xxxxxxxxxxxxx |xxxxxxxxxxxxx |           73 |           73 |           73 |xxxxxxxxxxxxx |xxxxxxxxxxxxx |xxxxxxxxxxxxx |xxxxxxxxxxxxx |           73 |           73 |           73 |xxxxxxxxxxxxx |xxxxxxxxxxxxx |xxxxxxxxxxxxx |xxxxxxxxxxxxx |           76 |           76 |           76 |xxxxxxxxxxxxx |xxxxxxxxxxxxx |xxxxxxxxxxxxx |xxxxxxxxxxxxx |           73 |           73 |           73 |
bpred_bimod.jr_non_ras_hits.PP                   0 |            0 |            0 |xxxxxxxxxxxxx |xxxxxxxxxxxxx |xxxxxxxxxxxxx |xxxxxxxxxxxxx |            0 |            0 |            0 |xxxxxxxxxxxxx |xxxxxxxxxxxxx |xxxxxxxxxxxxx |xxxxxxxxxxxxx |            0 |            0 |            0 |xxxxxxxxxxxxx |xxxxxxxxxxxxx |xxxxxxxxxxxxx |xxxxxxxxxxxxx |            0 |            0 |            0 |xxxxxxxxxxxxx |xxxxxxxxxxxxx |xxxxxxxxxxxxx |xxxxxxxxxxxxx |            0 |            0 |            0 |xxxxxxxxxxxxx |xxxxxxxxxxxxx |xxxxxxxxxxxxx |xxxxxxxxxxxxx |            0 |            0 |            0 |xxxxxxxxxxxxx |xxxxxxxxxxxxx |xxxxxxxxxxxxx |xxxxxxxxxxxxx |            0 |            0 |            0 |xxxxxxxxxxxxx |xxxxxxxxxxxxx |xxxxxxxxxxxxx |xxxxxxxxxxxxx |            0 |            0 |            0 |xxxxxxxxxxxxx |xxxxxxxxxxxxx |xxxxxxxxxxxxx |xxxxxxxxxxxxx |            0 |            0 |            0 |xxxxxxxxxxxxx |xxxxxxxxxxxxx |xxxxxxxxxxxxx |xxxxxxxxxxxxx |            1 |            1 |            1 |xxxxxxxxxxxxx |xxxxxxxxxxxxx |xxxxxxxxxxxxx |xxxxxxxxxxxxx |            0 |            0 |            0 |
bpred_bimod.jr_non_ras_seen.PP                   0 |            0 |            0 |xxxxxxxxxxxxx |xxxxxxxxxxxxx |xxxxxxxxxxxxx |xxxxxxxxxxxxx |            1 |            1 |            1 |xxxxxxxxxxxxx |xxxxxxxxxxxxx |xxxxxxxxxxxxx |xxxxxxxxxxxxx |            0 |            0 |            0 |xxxxxxxxxxxxx |xxxxxxxxxxxxx |xxxxxxxxxxxxx |xxxxxxxxxxxxx |            1 |            1 |            1 |xxxxxxxxxxxxx |xxxxxxxxxxxxx |xxxxxxxxxxxxx |xxxxxxxxxxxxx |            0 |            0 |            0 |xxxxxxxxxxxxx |xxxxxxxxxxxxx |xxxxxxxxxxxxx |xxxxxxxxxxxxx |            1 |            1 |            1 |xxxxxxxxxxxxx |xxxxxxxxxxxxx |xxxxxxxxxxxxx |xxxxxxxxxxxxx |            0 |            0 |            0 |xxxxxxxxxxxxx |xxxxxxxxxxxxx |xxxxxxxxxxxxx |xxxxxxxxxxxxx |            1 |            1 |            1 |xxxxxxxxxxxxx |xxxxxxxxxxxxx |xxxxxxxxxxxxx |xxxxxxxxxxxxx |            1 |            1 |            1 |xxxxxxxxxxxxx |xxxxxxxxxxxxx |xxxxxxxxxxxxx |xxxxxxxxxxxxx |            2 |            2 |            2 |xxxxxxxxxxxxx |xxxxxxxxxxxxx |xxxxxxxxxxxxx |xxxxxxxxxxxxx |            1 |            1 |            1 |
bpred_bimod.bpred_addr_rate                 0.7343 |       0.7343 |       0.7344 |xxxxxxxxxxxxx |xxxxxxxxxxxxx |xxxxxxxxxxxxx |xxxxxxxxxxxxx |       0.7363 |       0.7363 |       0.7364 |xxxxxxxxxxxxx |xxxxxxxxxxxxx |xxxxxxxxxxxxx |xxxxxxxxxxxxx |       0.7353 |       0.7353 |       0.7353 |xxxxxxxxxxxxx |xxxxxxxxxxxxx |xxxxxxxxxxxxx |xxxxxxxxxxxxx |       0.7373 |       0.7374 |       0.7374 |xxxxxxxxxxxxx |xxxxxxxxxxxxx |xxxxxxxxxxxxx |xxxxxxxxxxxxx |       0.7370 |       0.7370 |       0.7370 |xxxxxxxxxxxxx |xxxxxxxxxxxxx |xxxxxxxxxxxxx |xxxxxxxxxxxxx |       0.7387 |       0.7387 |       0.7387 |xxxxxxxxxxxxx |xxxxxxxxxxxxx |xxxxxxxxxxxxx |xxxxxxxxxxxxx |       0.7385 |       0.7385 |       0.7385 |xxxxxxxxxxxxx |xxxxxxxxxxxxx |xxxxxxxxxxxxx |xxxxxxxxxxxxx |       0.7400 |       0.7400 |       0.7400 |xxxxxxxxxxxxx |xxxxxxxxxxxxx |xxxxxxxxxxxxx |xxxxxxxxxxxxx |       0.7398 |       0.7398 |       0.7398 |xxxxxxxxxxxxx |xxxxxxxxxxxxx |xxxxxxxxxxxxx |xxxxxxxxxxxxx |       0.7411 |       0.7411 |       0.7411 |xxxxxxxxxxxxx |xxxxxxxxxxxxx |xxxxxxxxxxxxx |xxxxxxxxxxxxx |       0.7408 |       0.7408 |       0.7408 |
bpred_bimod.bpred_dir_rate                  0.7355 |       0.7355 |       0.7355 |xxxxxxxxxxxxx |xxxxxxxxxxxxx |xxxxxxxxxxxxx |xxxxxxxxxxxxx |       0.7369 |       0.7369 |       0.7369 |xxxxxxxxxxxxx |xxxxxxxxxxxxx |xxxxxxxxxxxxx |xxxxxxxxxxxxx |       0.7356 |       0.7356 |       0.7356 |xxxxxxxxxxxxx |xxxxxxxxxxxxx |xxxxxxxxxxxxx |xxxxxxxxxxxxx |       0.7375 |       0.7375 |       0.7375 |xxxxxxxxxxxxx |xxxxxxxxxxxxx |xxxxxxxxxxxxx |xxxxxxxxxxxxx |       0.7371 |       0.7371 |       0.7371 |xxxxxxxxxxxxx |xxxxxxxxxxxxx |xxxxxxxxxxxxx |xxxxxxxxxxxxx |       0.7387 |       0.7387 |       0.7387 |xxxxxxxxxxxxx |xxxxxxxxxxxxx |xxxxxxxxxxxxx |xxxxxxxxxxxxx |       0.7385 |       0.7385 |       0.7385 |xxxxxxxxxxxxx |xxxxxxxxxxxxx |xxxxxxxxxxxxx |xxxxxxxxxxxxx |       0.7400 |       0.7400 |       0.7400 |xxxxxxxxxxxxx |xxxxxxxxxxxxx |xxxxxxxxxxxxx |xxxxxxxxxxxxx |       0.7398 |       0.7398 |       0.7398 |xxxxxxxxxxxxx |xxxxxxxxxxxxx |xxxxxxxxxxxxx |xxxxxxxxxxxxx |       0.7411 |       0.7411 |       0.7411 |xxxxxxxxxxxxx |xxxxxxxxxxxxx |xxxxxxxxxxxxx |xxxxxxxxxxxxx |       0.7408 |       0.7408 |       0.7408 |
bpred_bimod.bpred_jr_rate                   1.0000 |       1.0000 |       1.0000 |xxxxxxxxxxxxx |xxxxxxxxxxxxx |xxxxxxxxxxxxx |xxxxxxxxxxxxx |       0.9726 |       0.9726 |       0.9726 |xxxxxxxxxxxxx |xxxxxxxxxxxxx |xxxxxxxxxxxxx |xxxxxxxxxxxxx |       0.9857 |       0.9857 |       0.9857 |xxxxxxxxxxxxx |xxxxxxxxxxxxx |xxxxxxxxxxxxx |xxxxxxxxxxxxx |       0.9726 |       0.9726 |       0.9726 |xxxxxxxxxxxxx |xxxxxxxxxxxxx |xxxxxxxxxxxxx |xxxxxxxxxxxxx |       0.9857 |       0.9857 |       0.9857 |xxxxxxxxxxxxx |xxxxxxxxxxxxx |xxxxxxxxxxxxx |xxxxxxxxxxxxx |       0.9726 |       0.9726 |       0.9726 |xxxxxxxxxxxxx |xxxxxxxxxxxxx |xxxxxxxxxxxxx |xxxxxxxxxxxxx |       0.9857 |       0.9857 |       0.9857 |xxxxxxxxxxxxx |xxxxxxxxxxxxx |xxxxxxxxxxxxx |xxxxxxxxxxxxx |       0.9726 |       0.9726 |       0.9726 |xxxxxxxxxxxxx |xxxxxxxxxxxxx |xxxxxxxxxxxxx |xxxxxxxxxxxxx |       0.9863 |       0.9863 |       0.9863 |xxxxxxxxxxxxx |xxxxxxxxxxxxx |xxxxxxxxxxxxx |xxxxxxxxxxxxx |       0.9868 |       0.9868 |       0.9868 |xxxxxxxxxxxxx |xxxxxxxxxxxxx |xxxxxxxxxxxxx |xxxxxxxxxxxxx |       0.9863 |       0.9863 |       0.9863 |
bpred_bimod.bpred_jr_non_ras_rate.PP       <error: |      <error: |      <error: |xxxxxxxxxxxxx |xxxxxxxxxxxxx |xxxxxxxxxxxxx |xxxxxxxxxxxxx |       0.0000 |       0.0000 |       0.0000 |xxxxxxxxxxxxx |xxxxxxxxxxxxx |xxxxxxxxxxxxx |xxxxxxxxxxxxx |      <error: |      <error: |      <error: |xxxxxxxxxxxxx |xxxxxxxxxxxxx |xxxxxxxxxxxxx |xxxxxxxxxxxxx |       0.0000 |       0.0000 |       0.0000 |xxxxxxxxxxxxx |xxxxxxxxxxxxx |xxxxxxxxxxxxx |xxxxxxxxxxxxx |      <error: |      <error: |      <error: |xxxxxxxxxxxxx |xxxxxxxxxxxxx |xxxxxxxxxxxxx |xxxxxxxxxxxxx |       0.0000 |       0.0000 |       0.0000 |xxxxxxxxxxxxx |xxxxxxxxxxxxx |xxxxxxxxxxxxx |xxxxxxxxxxxxx |      <error: |      <error: |      <error: |xxxxxxxxxxxxx |xxxxxxxxxxxxx |xxxxxxxxxxxxx |xxxxxxxxxxxxx |       0.0000 |       0.0000 |       0.0000 |xxxxxxxxxxxxx |xxxxxxxxxxxxx |xxxxxxxxxxxxx |xxxxxxxxxxxxx |       0.0000 |       0.0000 |       0.0000 |xxxxxxxxxxxxx |xxxxxxxxxxxxx |xxxxxxxxxxxxx |xxxxxxxxxxxxx |       0.5000 |       0.5000 |       0.5000 |xxxxxxxxxxxxx |xxxxxxxxxxxxx |xxxxxxxxxxxxx |xxxxxxxxxxxxx |       0.0000 |       0.0000 |       0.0000 |
bpred_bimod.retstack_pushes                     63 |           63 |           63 |xxxxxxxxxxxxx |xxxxxxxxxxxxx |xxxxxxxxxxxxx |xxxxxxxxxxxxx |           74 |           74 |           74 |xxxxxxxxxxxxx |xxxxxxxxxxxxx |xxxxxxxxxxxxx |xxxxxxxxxxxxx |           72 |           72 |           72 |xxxxxxxxxxxxx |xxxxxxxxxxxxx |xxxxxxxxxxxxx |xxxxxxxxxxxxx |           74 |           74 |           74 |xxxxxxxxxxxxx |xxxxxxxxxxxxx |xxxxxxxxxxxxx |xxxxxxxxxxxxx |           72 |           72 |           72 |xxxxxxxxxxxxx |xxxxxxxxxxxxx |xxxxxxxxxxxxx |xxxxxxxxxxxxx |           74 |           74 |           74 |xxxxxxxxxxxxx |xxxxxxxxxxxxx |xxxxxxxxxxxxx |xxxxxxxxxxxxx |           72 |           72 |           72 |xxxxxxxxxxxxx |xxxxxxxxxxxxx |xxxxxxxxxxxxx |xxxxxxxxxxxxx |           74 |           74 |           74 |xxxxxxxxxxxxx |xxxxxxxxxxxxx |xxxxxxxxxxxxx |xxxxxxxxxxxxx |           74 |           74 |           74 |xxxxxxxxxxxxx |xxxxxxxxxxxxx |xxxxxxxxxxxxx |xxxxxxxxxxxxx |           76 |           76 |           76 |xxxxxxxxxxxxx |xxxxxxxxxxxxx |xxxxxxxxxxxxx |xxxxxxxxxxxxx |           74 |           74 |           74 |
bpred_bimod.retstack_pops                       61 |           61 |           61 |xxxxxxxxxxxxx |xxxxxxxxxxxxx |xxxxxxxxxxxxx |xxxxxxxxxxxxx |           72 |           72 |           72 |xxxxxxxxxxxxx |xxxxxxxxxxxxx |xxxxxxxxxxxxx |xxxxxxxxxxxxx |           70 |           70 |           70 |xxxxxxxxxxxxx |xxxxxxxxxxxxx |xxxxxxxxxxxxx |xxxxxxxxxxxxx |           72 |           72 |           72 |xxxxxxxxxxxxx |xxxxxxxxxxxxx |xxxxxxxxxxxxx |xxxxxxxxxxxxx |           70 |           70 |           70 |xxxxxxxxxxxxx |xxxxxxxxxxxxx |xxxxxxxxxxxxx |xxxxxxxxxxxxx |           72 |           72 |           72 |xxxxxxxxxxxxx |xxxxxxxxxxxxx |xxxxxxxxxxxxx |xxxxxxxxxxxxx |           70 |           70 |           70 |xxxxxxxxxxxxx |xxxxxxxxxxxxx |xxxxxxxxxxxxx |xxxxxxxxxxxxx |           72 |           72 |           72 |xxxxxxxxxxxxx |xxxxxxxxxxxxx |xxxxxxxxxxxxx |xxxxxxxxxxxxx |           72 |           72 |           72 |xxxxxxxxxxxxx |xxxxxxxxxxxxx |xxxxxxxxxxxxx |xxxxxxxxxxxxx |           74 |           74 |           74 |xxxxxxxxxxxxx |xxxxxxxxxxxxx |xxxxxxxxxxxxx |xxxxxxxxxxxxx |           72 |           72 |           72 |
bpred_bimod.used_ras.PP                         61 |           61 |           61 |xxxxxxxxxxxxx |xxxxxxxxxxxxx |xxxxxxxxxxxxx |xxxxxxxxxxxxx |           72 |           72 |           72 |xxxxxxxxxxxxx |xxxxxxxxxxxxx |xxxxxxxxxxxxx |xxxxxxxxxxxxx |           70 |           70 |           70 |xxxxxxxxxxxxx |xxxxxxxxxxxxx |xxxxxxxxxxxxx |xxxxxxxxxxxxx |           72 |           72 |           72 |xxxxxxxxxxxxx |xxxxxxxxxxxxx |xxxxxxxxxxxxx |xxxxxxxxxxxxx |           70 |           70 |           70 |xxxxxxxxxxxxx |xxxxxxxxxxxxx |xxxxxxxxxxxxx |xxxxxxxxxxxxx |           72 |           72 |           72 |xxxxxxxxxxxxx |xxxxxxxxxxxxx |xxxxxxxxxxxxx |xxxxxxxxxxxxx |           70 |           70 |           70 |xxxxxxxxxxxxx |xxxxxxxxxxxxx |xxxxxxxxxxxxx |xxxxxxxxxxxxx |           72 |           72 |           72 |xxxxxxxxxxxxx |xxxxxxxxxxxxx |xxxxxxxxxxxxx |xxxxxxxxxxxxx |           72 |           72 |           72 |xxxxxxxxxxxxx |xxxxxxxxxxxxx |xxxxxxxxxxxxx |xxxxxxxxxxxxx |           74 |           74 |           74 |xxxxxxxxxxxxx |xxxxxxxxxxxxx |xxxxxxxxxxxxx |xxxxxxxxxxxxx |           72 |           72 |           72 |
bpred_bimod.ras_hits.PP                         61 |           61 |           61 |xxxxxxxxxxxxx |xxxxxxxxxxxxx |xxxxxxxxxxxxx |xxxxxxxxxxxxx |           71 |           71 |           71 |xxxxxxxxxxxxx |xxxxxxxxxxxxx |xxxxxxxxxxxxx |xxxxxxxxxxxxx |           69 |           69 |           69 |xxxxxxxxxxxxx |xxxxxxxxxxxxx |xxxxxxxxxxxxx |xxxxxxxxxxxxx |           71 |           71 |           71 |xxxxxxxxxxxxx |xxxxxxxxxxxxx |xxxxxxxxxxxxx |xxxxxxxxxxxxx |           69 |           69 |           69 |xxxxxxxxxxxxx |xxxxxxxxxxxxx |xxxxxxxxxxxxx |xxxxxxxxxxxxx |           71 |           71 |           71 |xxxxxxxxxxxxx |xxxxxxxxxxxxx |xxxxxxxxxxxxx |xxxxxxxxxxxxx |           69 |           69 |           69 |xxxxxxxxxxxxx |xxxxxxxxxxxxx |xxxxxxxxxxxxx |xxxxxxxxxxxxx |           71 |           71 |           71 |xxxxxxxxxxxxx |xxxxxxxxxxxxx |xxxxxxxxxxxxx |xxxxxxxxxxxxx |           72 |           72 |           72 |xxxxxxxxxxxxx |xxxxxxxxxxxxx |xxxxxxxxxxxxx |xxxxxxxxxxxxx |           74 |           74 |           74 |xxxxxxxxxxxxx |xxxxxxxxxxxxx |xxxxxxxxxxxxx |xxxxxxxxxxxxx |           72 |           72 |           72 |
bpred_bimod.ras_rate.PP                     1.0000 |       1.0000 |       1.0000 |xxxxxxxxxxxxx |xxxxxxxxxxxxx |xxxxxxxxxxxxx |xxxxxxxxxxxxx |       0.9861 |       0.9861 |       0.9861 |xxxxxxxxxxxxx |xxxxxxxxxxxxx |xxxxxxxxxxxxx |xxxxxxxxxxxxx |       0.9857 |       0.9857 |       0.9857 |xxxxxxxxxxxxx |xxxxxxxxxxxxx |xxxxxxxxxxxxx |xxxxxxxxxxxxx |       0.9861 |       0.9861 |       0.9861 |xxxxxxxxxxxxx |xxxxxxxxxxxxx |xxxxxxxxxxxxx |xxxxxxxxxxxxx |       0.9857 |       0.9857 |       0.9857 |xxxxxxxxxxxxx |xxxxxxxxxxxxx |xxxxxxxxxxxxx |xxxxxxxxxxxxx |       0.9861 |       0.9861 |       0.9861 |xxxxxxxxxxxxx |xxxxxxxxxxxxx |xxxxxxxxxxxxx |xxxxxxxxxxxxx |       0.9857 |       0.9857 |       0.9857 |xxxxxxxxxxxxx |xxxxxxxxxxxxx |xxxxxxxxxxxxx |xxxxxxxxxxxxx |       0.9861 |       0.9861 |       0.9861 |xxxxxxxxxxxxx |xxxxxxxxxxxxx |xxxxxxxxxxxxx |xxxxxxxxxxxxx |       1.0000 |       1.0000 |       1.0000 |xxxxxxxxxxxxx |xxxxxxxxxxxxx |xxxxxxxxxxxxx |xxxxxxxxxxxxx |       1.0000 |       1.0000 |       1.0000 |xxxxxxxxxxxxx |xxxxxxxxxxxxx |xxxxxxxxxxxxx |xxxxxxxxxxxxx |       1.0000 |       1.0000 |       1.0000 |
bpred_2lev.lookups                   xxxxxxxxxxxxx |xxxxxxxxxxxxx |xxxxxxxxxxxxx |        94583 |        94583 |        94583 |        94583 |xxxxxxxxxxxxx |xxxxxxxxxxxxx |xxxxxxxxxxxxx |       206074 |       206074 |       206074 |       206074 |xxxxxxxxxxxxx |xxxxxxxxxxxxx |xxxxxxxxxxxxx |       441284 |       441284 |       441284 |       441284 |xxxxxxxxxxxxx |xxxxxxxxxxxxx |xxxxxxxxxxxxx |       951044 |       951044 |       951044 |       951044 |xxxxxxxxxxxxx |xxxxxxxxxxxxx |xxxxxxxxxxxxx |      2025218 |      2025218 |      2025218 |      2025218 |xxxxxxxxxxxxx |xxxxxxxxxxxxx |xxxxxxxxxxxxx |      4328694 |      4328694 |      4328694 |      4328694 |xxxxxxxxxxxxx |xxxxxxxxxxxxx |xxxxxxxxxxxxx |      9147300 |      9147300 |      9147300 |      9147300 |xxxxxxxxxxxxx |xxxxxxxxxxxxx |xxxxxxxxxxxxx |     19412334 |     19412334 |     19412334 |     19412334 |xxxxxxxxxxxxx |xxxxxxxxxxxxx |xxxxxxxxxxxxx |     40789759 |     40789759 |     40789759 |     40789759 |xxxxxxxxxxxxx |xxxxxxxxxxxxx |xxxxxxxxxxxxx |     86051569 |     86051569 |     86051569 |     86051569 |xxxxxxxxxxxxx |xxxxxxxxxxxxx |xxxxxxxxxxxxx |    179999467 |    179999467 |    179999467 |    179999467 |
[...]
bpred_2lev.retstack_pushes           xxxxxxxxxxxxx |xxxxxxxxxxxxx |xxxxxxxxxxxxx |           63 |           63 |           63 |           63 |xxxxxxxxxxxxx |xxxxxxxxxxxxx |xxxxxxxxxxxxx |           74 |           74 |           74 |           74 |xxxxxxxxxxxxx |xxxxxxxxxxxxx |xxxxxxxxxxxxx |           72 |           72 |           72 |           72 |xxxxxxxxxxxxx |xxxxxxxxxxxxx |xxxxxxxxxxxxx |           74 |           74 |           74 |           74 |xxxxxxxxxxxxx |xxxxxxxxxxxxx |xxxxxxxxxxxxx |           72 |           72 |           72 |           72 |xxxxxxxxxxxxx |xxxxxxxxxxxxx |xxxxxxxxxxxxx |           74 |           74 |           74 |           74 |xxxxxxxxxxxxx |xxxxxxxxxxxxx |xxxxxxxxxxxxx |           72 |           72 |           72 |           72 |xxxxxxxxxxxxx |xxxxxxxxxxxxx |xxxxxxxxxxxxx |           74 |           74 |           74 |           74 |xxxxxxxxxxxxx |xxxxxxxxxxxxx |xxxxxxxxxxxxx |           74 |           74 |           74 |           74 |xxxxxxxxxxxxx |xxxxxxxxxxxxx |xxxxxxxxxxxxx |           76 |           76 |           76 |           76 |xxxxxxxxxxxxx |xxxxxxxxxxxxx |xxxxxxxxxxxxx |           74 |           74 |           74 |           74 |
bpred_2lev.retstack_pops             xxxxxxxxxxxxx |xxxxxxxxxxxxx |xxxxxxxxxxxxx |           61 |           61 |           61 |           61 |xxxxxxxxxxxxx |xxxxxxxxxxxxx |xxxxxxxxxxxxx |           72 |           72 |           72 |           72 |xxxxxxxxxxxxx |xxxxxxxxxxxxx |xxxxxxxxxxxxx |           70 |           70 |           70 |           70 |xxxxxxxxxxxxx |xxxxxxxxxxxxx |xxxxxxxxxxxxx |           72 |           72 |           72 |           72 |xxxxxxxxxxxxx |xxxxxxxxxxxxx |xxxxxxxxxxxxx |           70 |           70 |           70 |           70 |xxxxxxxxxxxxx |xxxxxxxxxxxxx |xxxxxxxxxxxxx |           72 |           72 |           72 |           72 |xxxxxxxxxxxxx |xxxxxxxxxxxxx |xxxxxxxxxxxxx |           70 |           70 |           70 |           70 |xxxxxxxxxxxxx |xxxxxxxxxxxxx |xxxxxxxxxxxxx |           72 |           72 |           72 |           72 |xxxxxxxxxxxxx |xxxxxxxxxxxxx |xxxxxxxxxxxxx |           72 |           72 |           72 |           72 |xxxxxxxxxxxxx |xxxxxxxxxxxxx |xxxxxxxxxxxxx |           74 |           74 |           74 |           74 |xxxxxxxxxxxxx |xxxxxxxxxxxxx |xxxxxxxxxxxxx |           72 |           72 |           72 |           72 |
bpred_2lev.used_ras.PP               xxxxxxxxxxxxx |xxxxxxxxxxxxx |xxxxxxxxxxxxx |           61 |           61 |           61 |           61 |xxxxxxxxxxxxx |xxxxxxxxxxxxx |xxxxxxxxxxxxx |           72 |           72 |           72 |           72 |xxxxxxxxxxxxx |xxxxxxxxxxxxx |xxxxxxxxxxxxx |           70 |           70 |           70 |           70 |xxxxxxxxxxxxx |xxxxxxxxxxxxx |xxxxxxxxxxxxx |           72 |           72 |           72 |           72 |xxxxxxxxxxxxx |xxxxxxxxxxxxx |xxxxxxxxxxxxx |           70 |           70 |           70 |           70 |xxxxxxxxxxxxx |xxxxxxxxxxxxx |xxxxxxxxxxxxx |           72 |           72 |           72 |           72 |xxxxxxxxxxxxx |xxxxxxxxxxxxx |xxxxxxxxxxxxx |           70 |           70 |           70 |           70 |xxxxxxxxxxxxx |xxxxxxxxxxxxx |xxxxxxxxxxxxx |           72 |           72 |           72 |           72 |xxxxxxxxxxxxx |xxxxxxxxxxxxx |xxxxxxxxxxxxx |           72 |           72 |           72 |           72 |xxxxxxxxxxxxx |xxxxxxxxxxxxx |xxxxxxxxxxxxx |           74 |           74 |           74 |           74 |xxxxxxxxxxxxx |xxxxxxxxxxxxx |xxxxxxxxxxxxx |           72 |           72 |           72 |           72 |
bpred_2lev.ras_hits.PP               xxxxxxxxxxxxx |xxxxxxxxxxxxx |xxxxxxxxxxxxx |           61 |           61 |           61 |           61 |xxxxxxxxxxxxx |xxxxxxxxxxxxx |xxxxxxxxxxxxx |           71 |           71 |           71 |           71 |xxxxxxxxxxxxx |xxxxxxxxxxxxx |xxxxxxxxxxxxx |           69 |           69 |           69 |           69 |xxxxxxxxxxxxx |xxxxxxxxxxxxx |xxxxxxxxxxxxx |           71 |           71 |           71 |           71 |xxxxxxxxxxxxx |xxxxxxxxxxxxx |xxxxxxxxxxxxx |           69 |           69 |           69 |           69 |xxxxxxxxxxxxx |xxxxxxxxxxxxx |xxxxxxxxxxxxx |           71 |           71 |           71 |           71 |xxxxxxxxxxxxx |xxxxxxxxxxxxx |xxxxxxxxxxxxx |           69 |           69 |           69 |           69 |xxxxxxxxxxxxx |xxxxxxxxxxxxx |xxxxxxxxxxxxx |           71 |           71 |           71 |           71 |xxxxxxxxxxxxx |xxxxxxxxxxxxx |xxxxxxxxxxxxx |           72 |           72 |           72 |           72 |xxxxxxxxxxxxx |xxxxxxxxxxxxx |xxxxxxxxxxxxx |           74 |           74 |           74 |           74 |xxxxxxxxxxxxx |xxxxxxxxxxxxx |xxxxxxxxxxxxx |           72 |           72 |           72 |           72 |
bpred_2lev.ras_rate.PP               xxxxxxxxxxxxx |xxxxxxxxxxxxx |xxxxxxxxxxxxx |       1.0000 |       1.0000 |       1.0000 |       1.0000 |xxxxxxxxxxxxx |xxxxxxxxxxxxx |xxxxxxxxxxxxx |       0.9861 |       0.9861 |       0.9861 |       0.9861 |xxxxxxxxxxxxx |xxxxxxxxxxxxx |xxxxxxxxxxxxx |       0.9857 |       0.9857 |       0.9857 |       0.9857 |xxxxxxxxxxxxx |xxxxxxxxxxxxx |xxxxxxxxxxxxx |       0.9861 |       0.9861 |       0.9861 |       0.9861 |xxxxxxxxxxxxx |xxxxxxxxxxxxx |xxxxxxxxxxxxx |       0.9857 |       0.9857 |       0.9857 |       0.9857 |xxxxxxxxxxxxx |xxxxxxxxxxxxx |xxxxxxxxxxxxx |       0.9861 |       0.9861 |       0.9861 |       0.9861 |xxxxxxxxxxxxx |xxxxxxxxxxxxx |xxxxxxxxxxxxx |       0.9857 |       0.9857 |       0.9857 |       0.9857 |xxxxxxxxxxxxx |xxxxxxxxxxxxx |xxxxxxxxxxxxx |       0.9861 |       0.9861 |       0.9861 |       0.9861 |xxxxxxxxxxxxx |xxxxxxxxxxxxx |xxxxxxxxxxxxx |       1.0000 |       1.0000 |       1.0000 |       1.0000 |xxxxxxxxxxxxx |xxxxxxxxxxxxx |xxxxxxxxxxxxx |       1.0000 |       1.0000 |       1.0000 |       1.0000 |xxxxxxxxxxxxx |xxxxxxxxxxxxx |xxxxxxxxxxxxx |       1.0000 |       1.0000 |       1.0000 |       1.0000 |

Command list: 
	sslittle-na-sstrix-gcc -Wall -O3 -funroll-loops -finline-functions  -DRANDOM_SIZE=4096 -DOFFSET=2 -DSORT=base_mergesort sorts/base_mergesort1440465312.c simpleMain.c -o base_mergesort457510465
	sim-cache -cache:dl1 dl1:256:32:1:l -cache:dl2 dl2:131072:32:1:l -cache:il1 il1:256:32:1:l -cache:il2 dl2 base_mergesort457510465
	sim-cache -cache:dl1 dl1:256:32:1:l -cache:dl2 dl2:65536:32:1:l -cache:il1 il1:256:32:1:l -cache:il2 dl2 base_mergesort457510465
	sim-cache -cache:dl1 dl1:1:32:256:l -cache:dl2 dl2:1:32:131072:l -cache:il1 il1:1:32:256:l -cache:il2 dl2 base_mergesort457510465
	sim-cache -cache:dl1 dl1:1:32:256:l -cache:dl2 dl2:1:32:65536:l -cache:il1 il1:1:32:256:l -cache:il2 dl2 base_mergesort457510465
	sim-bpred -bpred bimod -bpred:bimod 512 base_mergesort457510465
	sim-bpred -bpred bimod -bpred:bimod 1024 base_mergesort457510465
	sim-bpred -bpred bimod -bpred:bimod 2048 base_mergesort457510465
	sim-bpred -bpred 2lev -bpred:2lev 1 512 10 1 base_mergesort457510465
	sim-bpred -bpred 2lev -bpred:2lev 1 1024 10 1 base_mergesort457510465
	sim-bpred -bpred 2lev -bpred:2lev 1 2048 10 1 base_mergesort457510465
	sim-bpred -bpred 2lev -bpred:2lev 1 4096 10 1 base_mergesort457510465
	sslittle-na-sstrix-gcc -Wall -O3 -funroll-loops -finline-functions  -DRANDOM_SIZE=8192 -DOFFSET=2 -DSORT=base_mergesort sorts/base_mergesort1440465312.c simpleMain.c -o base_mergesort457510465
	sim-cache -cache:dl1 dl1:256:32:1:l -cache:dl2 dl2:131072:32:1:l -cache:il1 il1:256:32:1:l -cache:il2 dl2 base_mergesort457510465
	sim-cache -cache:dl1 dl1:256:32:1:l -cache:dl2 dl2:65536:32:1:l -cache:il1 il1:256:32:1:l -cache:il2 dl2 base_mergesort457510465
	sim-cache -cache:dl1 dl1:1:32:256:l -cache:dl2 dl2:1:32:131072:l -cache:il1 il1:1:32:256:l -cache:il2 dl2 base_mergesort457510465
	sim-cache -cache:dl1 dl1:1:32:256:l -cache:dl2 dl2:1:32:65536:l -cache:il1 il1:1:32:256:l -cache:il2 dl2 base_mergesort457510465
	sim-bpred -bpred bimod -bpred:bimod 512 base_mergesort457510465
	sim-bpred -bpred bimod -bpred:bimod 1024 base_mergesort457510465
	sim-bpred -bpred bimod -bpred:bimod 2048 base_mergesort457510465
	sim-bpred -bpred 2lev -bpred:2lev 1 512 10 1 base_mergesort457510465
	sim-bpred -bpred 2lev -bpred:2lev 1 1024 10 1 base_mergesort457510465
	sim-bpred -bpred 2lev -bpred:2lev 1 2048 10 1 base_mergesort457510465
	sim-bpred -bpred 2lev -bpred:2lev 1 4096 10 1 base_mergesort457510465
	sslittle-na-sstrix-gcc -Wall -O3 -funroll-loops -finline-functions  -DRANDOM_SIZE=16384 -DOFFSET=2 -DSORT=base_mergesort sorts/base_mergesort1440465312.c simpleMain.c -o base_mergesort457510465
	sim-cache -cache:dl1 dl1:256:32:1:l -cache:dl2 dl2:131072:32:1:l -cache:il1 il1:256:32:1:l -cache:il2 dl2 base_mergesort457510465
	sim-cache -cache:dl1 dl1:256:32:1:l -cache:dl2 dl2:65536:32:1:l -cache:il1 il1:256:32:1:l -cache:il2 dl2 base_mergesort457510465
	sim-cache -cache:dl1 dl1:1:32:256:l -cache:dl2 dl2:1:32:131072:l -cache:il1 il1:1:32:256:l -cache:il2 dl2 base_mergesort457510465
	sim-cache -cache:dl1 dl1:1:32:256:l -cache:dl2 dl2:1:32:65536:l -cache:il1 il1:1:32:256:l -cache:il2 dl2 base_mergesort457510465
	sim-bpred -bpred bimod -bpred:bimod 512 base_mergesort457510465
	sim-bpred -bpred bimod -bpred:bimod 1024 base_mergesort457510465
	sim-bpred -bpred bimod -bpred:bimod 2048 base_mergesort457510465
	sim-bpred -bpred 2lev -bpred:2lev 1 512 10 1 base_mergesort457510465
	sim-bpred -bpred 2lev -bpred:2lev 1 1024 10 1 base_mergesort457510465
	sim-bpred -bpred 2lev -bpred:2lev 1 2048 10 1 base_mergesort457510465
	sim-bpred -bpred 2lev -bpred:2lev 1 4096 10 1 base_mergesort457510465
	sslittle-na-sstrix-gcc -Wall -O3 -funroll-loops -finline-functions  -DRANDOM_SIZE=32768 -DOFFSET=2 -DSORT=base_mergesort sorts/base_mergesort1440465312.c simpleMain.c -o base_mergesort457510465
	sim-cache -cache:dl1 dl1:256:32:1:l -cache:dl2 dl2:131072:32:1:l -cache:il1 il1:256:32:1:l -cache:il2 dl2 base_mergesort457510465
	sim-cache -cache:dl1 dl1:256:32:1:l -cache:dl2 dl2:65536:32:1:l -cache:il1 il1:256:32:1:l -cache:il2 dl2 base_mergesort457510465
	sim-cache -cache:dl1 dl1:1:32:256:l -cache:dl2 dl2:1:32:131072:l -cache:il1 il1:1:32:256:l -cache:il2 dl2 base_mergesort457510465
	sim-cache -cache:dl1 dl1:1:32:256:l -cache:dl2 dl2:1:32:65536:l -cache:il1 il1:1:32:256:l -cache:il2 dl2 base_mergesort457510465
	sim-bpred -bpred bimod -bpred:bimod 512 base_mergesort457510465
	sim-bpred -bpred bimod -bpred:bimod 1024 base_mergesort457510465
	sim-bpred -bpred bimod -bpred:bimod 2048 base_mergesort457510465
	sim-bpred -bpred 2lev -bpred:2lev 1 512 10 1 base_mergesort457510465
	sim-bpred -bpred 2lev -bpred:2lev 1 1024 10 1 base_mergesort457510465
	sim-bpred -bpred 2lev -bpred:2lev 1 2048 10 1 base_mergesort457510465
	sim-bpred -bpred 2lev -bpred:2lev 1 4096 10 1 base_mergesort457510465
	sslittle-na-sstrix-gcc -Wall -O3 -funroll-loops -finline-functions  -DRANDOM_SIZE=65536 -DOFFSET=2 -DSORT=base_mergesort sorts/base_mergesort1440465312.c simpleMain.c -o base_mergesort457510465
	sim-cache -cache:dl1 dl1:256:32:1:l -cache:dl2 dl2:131072:32:1:l -cache:il1 il1:256:32:1:l -cache:il2 dl2 base_mergesort457510465
	sim-cache -cache:dl1 dl1:256:32:1:l -cache:dl2 dl2:65536:32:1:l -cache:il1 il1:256:32:1:l -cache:il2 dl2 base_mergesort457510465
	sim-cache -cache:dl1 dl1:1:32:256:l -cache:dl2 dl2:1:32:131072:l -cache:il1 il1:1:32:256:l -cache:il2 dl2 base_mergesort457510465
	sim-cache -cache:dl1 dl1:1:32:256:l -cache:dl2 dl2:1:32:65536:l -cache:il1 il1:1:32:256:l -cache:il2 dl2 base_mergesort457510465
	sim-bpred -bpred bimod -bpred:bimod 512 base_mergesort457510465
	sim-bpred -bpred bimod -bpred:bimod 1024 base_mergesort457510465
	sim-bpred -bpred bimod -bpred:bimod 2048 base_mergesort457510465
	sim-bpred -bpred 2lev -bpred:2lev 1 512 10 1 base_mergesort457510465
	sim-bpred -bpred 2lev -bpred:2lev 1 1024 10 1 base_mergesort457510465
	sim-bpred -bpred 2lev -bpred:2lev 1 2048 10 1 base_mergesort457510465
	sim-bpred -bpred 2lev -bpred:2lev 1 4096 10 1 base_mergesort457510465
	sslittle-na-sstrix-gcc -Wall -O3 -funroll-loops -finline-functions  -DRANDOM_SIZE=131072 -DOFFSET=2 -DSORT=base_mergesort sorts/base_mergesort1440465312.c simpleMain.c -o base_mergesort457510465
	sim-cache -cache:dl1 dl1:256:32:1:l -cache:dl2 dl2:131072:32:1:l -cache:il1 il1:256:32:1:l -cache:il2 dl2 base_mergesort457510465
	sim-cache -cache:dl1 dl1:256:32:1:l -cache:dl2 dl2:65536:32:1:l -cache:il1 il1:256:32:1:l -cache:il2 dl2 base_mergesort457510465
	sim-cache -cache:dl1 dl1:1:32:256:l -cache:dl2 dl2:1:32:131072:l -cache:il1 il1:1:32:256:l -cache:il2 dl2 base_mergesort457510465
	sim-cache -cache:dl1 dl1:1:32:256:l -cache:dl2 dl2:1:32:65536:l -cache:il1 il1:1:32:256:l -cache:il2 dl2 base_mergesort457510465
	sim-bpred -bpred bimod -bpred:bimod 512 base_mergesort457510465
	sim-bpred -bpred bimod -bpred:bimod 1024 base_mergesort457510465
	sim-bpred -bpred bimod -bpred:bimod 2048 base_mergesort457510465
	sim-bpred -bpred 2lev -bpred:2lev 1 512 10 1 base_mergesort457510465
	sim-bpred -bpred 2lev -bpred:2lev 1 1024 10 1 base_mergesort457510465
	sim-bpred -bpred 2lev -bpred:2lev 1 2048 10 1 base_mergesort457510465
	sim-bpred -bpred 2lev -bpred:2lev 1 4096 10 1 base_mergesort457510465
	sslittle-na-sstrix-gcc -Wall -O3 -funroll-loops -finline-functions  -DRANDOM_SIZE=262144 -DOFFSET=2 -DSORT=base_mergesort sorts/base_mergesort1440465312.c simpleMain.c -o base_mergesort457510465
	sim-cache -cache:dl1 dl1:256:32:1:l -cache:dl2 dl2:131072:32:1:l -cache:il1 il1:256:32:1:l -cache:il2 dl2 base_mergesort457510465
	sim-cache -cache:dl1 dl1:256:32:1:l -cache:dl2 dl2:65536:32:1:l -cache:il1 il1:256:32:1:l -cache:il2 dl2 base_mergesort457510465
	sim-cache -cache:dl1 dl1:1:32:256:l -cache:dl2 dl2:1:32:131072:l -cache:il1 il1:1:32:256:l -cache:il2 dl2 base_mergesort457510465
	sim-cache -cache:dl1 dl1:1:32:256:l -cache:dl2 dl2:1:32:65536:l -cache:il1 il1:1:32:256:l -cache:il2 dl2 base_mergesort457510465
	sim-bpred -bpred bimod -bpred:bimod 512 base_mergesort457510465
	sim-bpred -bpred bimod -bpred:bimod 1024 base_mergesort457510465
	sim-bpred -bpred bimod -bpred:bimod 2048 base_mergesort457510465
	sim-bpred -bpred 2lev -bpred:2lev 1 512 10 1 base_mergesort457510465
	sim-bpred -bpred 2lev -bpred:2lev 1 1024 10 1 base_mergesort457510465
	sim-bpred -bpred 2lev -bpred:2lev 1 2048 10 1 base_mergesort457510465
	sim-bpred -bpred 2lev -bpred:2lev 1 4096 10 1 base_mergesort457510465
	sslittle-na-sstrix-gcc -Wall -O3 -funroll-loops -finline-functions  -DRANDOM_SIZE=524288 -DOFFSET=2 -DSORT=base_mergesort sorts/base_mergesort1440465312.c simpleMain.c -o base_mergesort457510465
	sim-cache -cache:dl1 dl1:256:32:1:l -cache:dl2 dl2:131072:32:1:l -cache:il1 il1:256:32:1:l -cache:il2 dl2 base_mergesort457510465
	sim-cache -cache:dl1 dl1:256:32:1:l -cache:dl2 dl2:65536:32:1:l -cache:il1 il1:256:32:1:l -cache:il2 dl2 base_mergesort457510465
	sim-cache -cache:dl1 dl1:1:32:256:l -cache:dl2 dl2:1:32:131072:l -cache:il1 il1:1:32:256:l -cache:il2 dl2 base_mergesort457510465
	sim-cache -cache:dl1 dl1:1:32:256:l -cache:dl2 dl2:1:32:65536:l -cache:il1 il1:1:32:256:l -cache:il2 dl2 base_mergesort457510465
	sim-bpred -bpred bimod -bpred:bimod 512 base_mergesort457510465
	sim-bpred -bpred bimod -bpred:bimod 1024 base_mergesort457510465
	sim-bpred -bpred bimod -bpred:bimod 2048 base_mergesort457510465
	sim-bpred -bpred 2lev -bpred:2lev 1 512 10 1 base_mergesort457510465
	sim-bpred -bpred 2lev -bpred:2lev 1 1024 10 1 base_mergesort457510465
	sim-bpred -bpred 2lev -bpred:2lev 1 2048 10 1 base_mergesort457510465
	sim-bpred -bpred 2lev -bpred:2lev 1 4096 10 1 base_mergesort457510465
	sslittle-na-sstrix-gcc -Wall -O3 -funroll-loops -finline-functions  -DRANDOM_SIZE=1048576 -DOFFSET=2 -DSORT=base_mergesort sorts/base_mergesort1440465312.c simpleMain.c -o base_mergesort457510465
	sim-cache -cache:dl1 dl1:256:32:1:l -cache:dl2 dl2:131072:32:1:l -cache:il1 il1:256:32:1:l -cache:il2 dl2 base_mergesort457510465
	sim-cache -cache:dl1 dl1:256:32:1:l -cache:dl2 dl2:65536:32:1:l -cache:il1 il1:256:32:1:l -cache:il2 dl2 base_mergesort457510465
	sim-cache -cache:dl1 dl1:1:32:256:l -cache:dl2 dl2:1:32:131072:l -cache:il1 il1:1:32:256:l -cache:il2 dl2 base_mergesort457510465
	sim-cache -cache:dl1 dl1:1:32:256:l -cache:dl2 dl2:1:32:65536:l -cache:il1 il1:1:32:256:l -cache:il2 dl2 base_mergesort457510465
	sim-bpred -bpred bimod -bpred:bimod 512 base_mergesort457510465
	sim-bpred -bpred bimod -bpred:bimod 1024 base_mergesort457510465
	sim-bpred -bpred bimod -bpred:bimod 2048 base_mergesort457510465
	sim-bpred -bpred 2lev -bpred:2lev 1 512 10 1 base_mergesort457510465
	sim-bpred -bpred 2lev -bpred:2lev 1 1024 10 1 base_mergesort457510465
	sim-bpred -bpred 2lev -bpred:2lev 1 2048 10 1 base_mergesort457510465
	sim-bpred -bpred 2lev -bpred:2lev 1 4096 10 1 base_mergesort457510465
	sslittle-na-sstrix-gcc -Wall -O3 -funroll-loops -finline-functions  -DRANDOM_SIZE=2097152 -DOFFSET=2 -DSORT=base_mergesort sorts/base_mergesort1440465312.c simpleMain.c -o base_mergesort457510465
	sim-cache -cache:dl1 dl1:256:32:1:l -cache:dl2 dl2:131072:32:1:l -cache:il1 il1:256:32:1:l -cache:il2 dl2 base_mergesort457510465
	sim-cache -cache:dl1 dl1:256:32:1:l -cache:dl2 dl2:65536:32:1:l -cache:il1 il1:256:32:1:l -cache:il2 dl2 base_mergesort457510465
	sim-cache -cache:dl1 dl1:1:32:256:l -cache:dl2 dl2:1:32:131072:l -cache:il1 il1:1:32:256:l -cache:il2 dl2 base_mergesort457510465
	sim-cache -cache:dl1 dl1:1:32:256:l -cache:dl2 dl2:1:32:65536:l -cache:il1 il1:1:32:256:l -cache:il2 dl2 base_mergesort457510465
	sim-bpred -bpred bimod -bpred:bimod 512 base_mergesort457510465
	sim-bpred -bpred bimod -bpred:bimod 1024 base_mergesort457510465
	sim-bpred -bpred bimod -bpred:bimod 2048 base_mergesort457510465
	sim-bpred -bpred 2lev -bpred:2lev 1 512 10 1 base_mergesort457510465
	sim-bpred -bpred 2lev -bpred:2lev 1 1024 10 1 base_mergesort457510465
	sim-bpred -bpred 2lev -bpred:2lev 1 2048 10 1 base_mergesort457510465
	sim-bpred -bpred 2lev -bpred:2lev 1 4096 10 1 base_mergesort457510465
	sslittle-na-sstrix-gcc -Wall -O3 -funroll-loops -finline-functions  -DRANDOM_SIZE=4194304 -DOFFSET=2 -DSORT=base_mergesort sorts/base_mergesort1440465312.c simpleMain.c -o base_mergesort457510465
	sim-cache -cache:dl1 dl1:256:32:1:l -cache:dl2 dl2:131072:32:1:l -cache:il1 il1:256:32:1:l -cache:il2 dl2 base_mergesort457510465
	sim-cache -cache:dl1 dl1:256:32:1:l -cache:dl2 dl2:65536:32:1:l -cache:il1 il1:256:32:1:l -cache:il2 dl2 base_mergesort457510465
	sim-cache -cache:dl1 dl1:1:32:256:l -cache:dl2 dl2:1:32:131072:l -cache:il1 il1:1:32:256:l -cache:il2 dl2 base_mergesort457510465
	sim-cache -cache:dl1 dl1:1:32:256:l -cache:dl2 dl2:1:32:65536:l -cache:il1 il1:1:32:256:l -cache:il2 dl2 base_mergesort457510465
	sim-bpred -bpred bimod -bpred:bimod 512 base_mergesort457510465
	sim-bpred -bpred bimod -bpred:bimod 1024 base_mergesort457510465
	sim-bpred -bpred bimod -bpred:bimod 2048 base_mergesort457510465
	sim-bpred -bpred 2lev -bpred:2lev 1 512 10 1 base_mergesort457510465
	sim-bpred -bpred 2lev -bpred:2lev 1 1024 10 1 base_mergesort457510465
	sim-bpred -bpred 2lev -bpred:2lev 1 2048 10 1 base_mergesort457510465
	sim-bpred -bpred 2lev -bpred:2lev 1 4096 10 1 base_mergesort457510465
