Thu Aug  4 02:14:46 2005
Run as: "./do_simple -c random.org9 -o 9 base_quicksort"
-------------------------------------------------------------------------------------------------
sim-cache                                     4096 |         4096 |         4096 |         4096 |         8192 |         8192 |         8192 |         8192 |        16384 |        16384 |        16384 |        16384 |        32768 |        32768 |        32768 |        32768 |        65536 |        65536 |        65536 |        65536 |       131072 |       131072 |       131072 |       131072 |       262144 |       262144 |       262144 |       262144 |       524288 |       524288 |       524288 |       524288 |      1048576 |      1048576 |      1048576 |      1048576 |      2097152 |      2097152 |      2097152 |      2097152 |      4194304 |      4194304 |      4194304 |      4194304 |
-cache:dl1 dl1:256:32:1:l -cache:dl2 dl2:131072:32:1:l -cache:il1 il1:256:32:1:l -cache:il2 dl2
-cache:dl1 dl1:256:32:1:l -cache:dl2 dl2:65536:32:1:l -cache:il1 il1:256:32:1:l -cache:il2 dl2
-cache:dl1 dl1:1:32:256:l -cache:dl2 dl2:1:32:131072:l -cache:il1 il1:1:32:256:l -cache:il2 dl2
-cache:dl1 dl1:1:32:256:l -cache:dl2 dl2:1:32:65536:l -cache:il1 il1:1:32:256:l -cache:il2 dl2
-------------------------------------------------------------------------------------------------
sim_num_insn                                469795 |       469795 |       469795 |       469795 |       991142 |       991142 |       991142 |       991142 |      2119924 |      2119924 |      2119924 |      2119924 |      4597528 |      4597528 |      4597528 |      4597528 |      9814431 |      9814431 |      9814431 |      9814431 |     20801137 |     20801137 |     20801137 |     20801137 |     43837941 |     43837941 |     43837941 |     43837941 |     96157791 |     96157791 |     96157791 |     96157791 |    196859835 |    196859835 |    196859835 |    196859835 |    406918181 |    406918181 |    406918181 |    406918181 |    859288303 |    859288303 |    859288303 |    859288303 |
sim_num_refs                                125109 |       125109 |       125109 |       125109 |       261677 |       261677 |       261677 |       261677 |       552350 |       552350 |       552350 |       552350 |      1178656 |      1178656 |      1178656 |      1178656 |      2498185 |      2498185 |      2498185 |      2498185 |      5270110 |      5270110 |      5270110 |      5270110 |     11071536 |     11071536 |     11071536 |     11071536 |     23786505 |     23786505 |     23786505 |     23786505 |     49032281 |     49032281 |     49032281 |     49032281 |    101708225 |    101708225 |    101708225 |    101708225 |    213236799 |    213236799 |    213236799 |    213236799 |
sim_elapsed_time                                 1 |            1 |            8 |            3 |            1 |            1 |            9 |            5 |            1 |            1 |           15 |            8 |            2 |            1 |           26 |           14 |            3 |            2 |           47 |           25 |            6 |            6 |           89 |           44 |           12 |           12 |          163 |           77 |           25 |           26 |          282 |          110 |           52 |           52 |          392 |          139 |          108 |          107 |          452 |          199 |          227 |          226 |          579 |          327 |
sim_inst_rate                          469795.0000 |  469795.0000 |   58724.3750 |  156598.3333 |  991142.0000 |  991142.0000 |  110126.8889 |  198228.4000 | 2119924.0000 | 2119924.0000 |  141328.2667 |  264990.5000 | 2298764.0000 | 4597528.0000 |  176828.0000 |  328394.8571 | 3271477.0000 | 4907215.5000 |  208817.6809 |  392577.2400 | 3466856.1667 | 3466856.1667 |  233720.6404 |  472753.1136 | 3653161.7500 | 3653161.7500 |  268944.4233 |  569323.9091 | 3846311.6400 | 3698376.5769 |  340985.0745 |  874161.7364 | 3785766.0577 | 3785766.0577 |  502193.4566 | 1416257.8058 | 3767760.9352 | 3802973.6542 |  900261.4624 | 2044814.9799 | 3785411.0264 | 3802160.6327 | 1484090.3333 | 2627792.9755 |
il1.accesses                                469795 |       469795 |       469795 |       469795 |       991142 |       991142 |       991142 |       991142 |      2119924 |      2119924 |      2119924 |      2119924 |      4597528 |      4597528 |      4597528 |      4597528 |      9814431 |      9814431 |      9814431 |      9814431 |     20801137 |     20801137 |     20801137 |     20801137 |     43837941 |     43837941 |     43837941 |     43837941 |     96157791 |     96157791 |     96157791 |     96157791 |    196859835 |    196859835 |    196859835 |    196859835 |    406918181 |    406918181 |    406918181 |    406918181 |    859288303 |    859288303 |    859288303 |    859288303 |
il1.hits                                    469347 |       469347 |       469378 |       469378 |       990692 |       990692 |       990723 |       990723 |      2119462 |      2119462 |      2119502 |      2119502 |      4597077 |      4597077 |      4597108 |      4597108 |      9813980 |      9813980 |      9814011 |      9814011 |     20800687 |     20800687 |     20800718 |     20800718 |     43837491 |     43837491 |     43837522 |     43837522 |     96157341 |     96157341 |     96157372 |     96157372 |    196859385 |    196859385 |    196859416 |    196859416 |    406917731 |    406917731 |    406917762 |    406917762 |    859287853 |    859287853 |    859287884 |    859287884 |
il1.misses                                     448 |          448 |          417 |          417 |          450 |          450 |          419 |          419 |          462 |          462 |          422 |          422 |          451 |          451 |          420 |          420 |          451 |          451 |          420 |          420 |          450 |          450 |          419 |          419 |          450 |          450 |          419 |          419 |          450 |          450 |          419 |          419 |          450 |          450 |          419 |          419 |          450 |          450 |          419 |          419 |          450 |          450 |          419 |          419 |
il1.replacements                               210 |          210 |          161 |          161 |          212 |          212 |          163 |          163 |          225 |          225 |          166 |          166 |          213 |          213 |          164 |          164 |          213 |          213 |          164 |          164 |          213 |          213 |          163 |          163 |          213 |          213 |          163 |          163 |          213 |          213 |          163 |          163 |          213 |          213 |          163 |          163 |          213 |          213 |          163 |          163 |          213 |          213 |          163 |          163 |
il1.writebacks                                   0 |            0 |            0 |            0 |            0 |            0 |            0 |            0 |            0 |            0 |            0 |            0 |            0 |            0 |            0 |            0 |            0 |            0 |            0 |            0 |            0 |            0 |            0 |            0 |            0 |            0 |            0 |            0 |            0 |            0 |            0 |            0 |            0 |            0 |            0 |            0 |            0 |            0 |            0 |            0 |            0 |            0 |            0 |            0 |
il1.invalidations                                0 |            0 |            0 |            0 |            0 |            0 |            0 |            0 |            0 |            0 |            0 |            0 |            0 |            0 |            0 |            0 |            0 |            0 |            0 |            0 |            0 |            0 |            0 |            0 |            0 |            0 |            0 |            0 |            0 |            0 |            0 |            0 |            0 |            0 |            0 |            0 |            0 |            0 |            0 |            0 |            0 |            0 |            0 |            0 |
il1.miss_rate                               0.0010 |       0.0010 |       0.0009 |       0.0009 |       0.0005 |       0.0005 |       0.0004 |       0.0004 |       0.0002 |       0.0002 |       0.0002 |       0.0002 |       0.0001 |       0.0001 |       0.0001 |       0.0001 |       0.0000 |       0.0000 |       0.0000 |       0.0000 |       0.0000 |       0.0000 |       0.0000 |       0.0000 |       0.0000 |       0.0000 |       0.0000 |       0.0000 |       0.0000 |       0.0000 |       0.0000 |       0.0000 |       0.0000 |       0.0000 |       0.0000 |       0.0000 |       0.0000 |       0.0000 |       0.0000 |       0.0000 |       0.0000 |       0.0000 |       0.0000 |       0.0000 |
il1.repl_rate                               0.0004 |       0.0004 |       0.0003 |       0.0003 |       0.0002 |       0.0002 |       0.0002 |       0.0002 |       0.0001 |       0.0001 |       0.0001 |       0.0001 |       0.0000 |       0.0000 |       0.0000 |       0.0000 |       0.0000 |       0.0000 |       0.0000 |       0.0000 |       0.0000 |       0.0000 |       0.0000 |       0.0000 |       0.0000 |       0.0000 |       0.0000 |       0.0000 |       0.0000 |       0.0000 |       0.0000 |       0.0000 |       0.0000 |       0.0000 |       0.0000 |       0.0000 |       0.0000 |       0.0000 |       0.0000 |       0.0000 |       0.0000 |       0.0000 |       0.0000 |       0.0000 |
il1.wb_rate                                 0.0000 |       0.0000 |       0.0000 |       0.0000 |       0.0000 |       0.0000 |       0.0000 |       0.0000 |       0.0000 |       0.0000 |       0.0000 |       0.0000 |       0.0000 |       0.0000 |       0.0000 |       0.0000 |       0.0000 |       0.0000 |       0.0000 |       0.0000 |       0.0000 |       0.0000 |       0.0000 |       0.0000 |       0.0000 |       0.0000 |       0.0000 |       0.0000 |       0.0000 |       0.0000 |       0.0000 |       0.0000 |       0.0000 |       0.0000 |       0.0000 |       0.0000 |       0.0000 |       0.0000 |       0.0000 |       0.0000 |       0.0000 |       0.0000 |       0.0000 |       0.0000 |
il1.inv_rate                                0.0000 |       0.0000 |       0.0000 |       0.0000 |       0.0000 |       0.0000 |       0.0000 |       0.0000 |       0.0000 |       0.0000 |       0.0000 |       0.0000 |       0.0000 |       0.0000 |       0.0000 |       0.0000 |       0.0000 |       0.0000 |       0.0000 |       0.0000 |       0.0000 |       0.0000 |       0.0000 |       0.0000 |       0.0000 |       0.0000 |       0.0000 |       0.0000 |       0.0000 |       0.0000 |       0.0000 |       0.0000 |       0.0000 |       0.0000 |       0.0000 |       0.0000 |       0.0000 |       0.0000 |       0.0000 |       0.0000 |       0.0000 |       0.0000 |       0.0000 |       0.0000 |
dl1.accesses                                141575 |       141575 |       141575 |       141575 |       294527 |       294527 |       294527 |       294527 |       617968 |       617968 |       617968 |       617968 |      1309810 |      1309810 |      1309810 |      1309810 |      2760411 |      2760411 |      2760411 |      2760411 |      5794480 |      5794480 |      5794480 |      5794480 |     12120194 |     12120194 |     12120194 |     12120194 |     25883739 |     25883739 |     25883739 |     25883739 |     53226667 |     53226667 |     53226667 |     53226667 |    110096915 |    110096915 |    110096915 |    110096915 |    230014097 |    230014097 |    230014097 |    230014097 |
dl1.hits                                    138973 |       138973 |       138874 |       138874 |       288765 |       288765 |       288784 |       288784 |       605072 |       605072 |       604876 |       604876 |      1277318 |      1277318 |      1277275 |      1277275 |      2686319 |      2686319 |      2686549 |      2686549 |      5625510 |      5625510 |      5626512 |      5626512 |     11750901 |     11750901 |     11752511 |     11752511 |     24983378 |     24983378 |     24988907 |     24988907 |     51386558 |     51386558 |     51399994 |     51399994 |    106230411 |    106230411 |    106270980 |    106270980 |    221500148 |    221500148 |    221592007 |    221592007 |
dl1.misses                                    2602 |         2602 |         2701 |         2701 |         5762 |         5762 |         5743 |         5743 |        12896 |        12896 |        13092 |        13092 |        32492 |        32492 |        32535 |        32535 |        74092 |        74092 |        73862 |        73862 |       168970 |       168970 |       167968 |       167968 |       369293 |       369293 |       367683 |       367683 |       900361 |       900361 |       894832 |       894832 |      1840109 |      1840109 |      1826673 |      1826673 |      3866504 |      3866504 |      3825935 |      3825935 |      8513949 |      8513949 |      8422090 |      8422090 |
dl1.replacements                              2346 |         2346 |         2445 |         2445 |         5506 |         5506 |         5487 |         5487 |        12640 |        12640 |        12836 |        12836 |        32236 |        32236 |        32279 |        32279 |        73836 |        73836 |        73606 |        73606 |       168714 |       168714 |       167712 |       167712 |       369037 |       369037 |       367427 |       367427 |       900105 |       900105 |       894576 |       894576 |      1839853 |      1839853 |      1826417 |      1826417 |      3866248 |      3866248 |      3825679 |      3825679 |      8513693 |      8513693 |      8421834 |      8421834 |
dl1.writebacks                                2266 |         2266 |         2377 |         2377 |         5363 |         5363 |         5384 |         5384 |        12413 |        12413 |        12661 |        12661 |        30361 |        30361 |        30665 |        30665 |        68268 |        68268 |        68733 |        68733 |       158651 |       158651 |       159150 |       159150 |       347872 |       347872 |       349467 |       349467 |       787233 |       787233 |       789057 |       789057 |      1688791 |      1688791 |      1692111 |      1692111 |      3600729 |      3600729 |      3599739 |      3599739 |      7828410 |      7828410 |      7823500 |      7823500 |
dl1.invalidations                                0 |            0 |            0 |            0 |            0 |            0 |            0 |            0 |            0 |            0 |            0 |            0 |            0 |            0 |            0 |            0 |            0 |            0 |            0 |            0 |            0 |            0 |            0 |            0 |            0 |            0 |            0 |            0 |            0 |            0 |            0 |            0 |            0 |            0 |            0 |            0 |            0 |            0 |            0 |            0 |            0 |            0 |            0 |            0 |
dl1.miss_rate                               0.0184 |       0.0184 |       0.0191 |       0.0191 |       0.0196 |       0.0196 |       0.0195 |       0.0195 |       0.0209 |       0.0209 |       0.0212 |       0.0212 |       0.0248 |       0.0248 |       0.0248 |       0.0248 |       0.0268 |       0.0268 |       0.0268 |       0.0268 |       0.0292 |       0.0292 |       0.0290 |       0.0290 |       0.0305 |       0.0305 |       0.0303 |       0.0303 |       0.0348 |       0.0348 |       0.0346 |       0.0346 |       0.0346 |       0.0346 |       0.0343 |       0.0343 |       0.0351 |       0.0351 |       0.0348 |       0.0348 |       0.0370 |       0.0370 |       0.0366 |       0.0366 |
dl1.repl_rate                               0.0166 |       0.0166 |       0.0173 |       0.0173 |       0.0187 |       0.0187 |       0.0186 |       0.0186 |       0.0205 |       0.0205 |       0.0208 |       0.0208 |       0.0246 |       0.0246 |       0.0246 |       0.0246 |       0.0267 |       0.0267 |       0.0267 |       0.0267 |       0.0291 |       0.0291 |       0.0289 |       0.0289 |       0.0304 |       0.0304 |       0.0303 |       0.0303 |       0.0348 |       0.0348 |       0.0346 |       0.0346 |       0.0346 |       0.0346 |       0.0343 |       0.0343 |       0.0351 |       0.0351 |       0.0347 |       0.0347 |       0.0370 |       0.0370 |       0.0366 |       0.0366 |
dl1.wb_rate                                 0.0160 |       0.0160 |       0.0168 |       0.0168 |       0.0182 |       0.0182 |       0.0183 |       0.0183 |       0.0201 |       0.0201 |       0.0205 |       0.0205 |       0.0232 |       0.0232 |       0.0234 |       0.0234 |       0.0247 |       0.0247 |       0.0249 |       0.0249 |       0.0274 |       0.0274 |       0.0275 |       0.0275 |       0.0287 |       0.0287 |       0.0288 |       0.0288 |       0.0304 |       0.0304 |       0.0305 |       0.0305 |       0.0317 |       0.0317 |       0.0318 |       0.0318 |       0.0327 |       0.0327 |       0.0327 |       0.0327 |       0.0340 |       0.0340 |       0.0340 |       0.0340 |
dl1.inv_rate                                0.0000 |       0.0000 |       0.0000 |       0.0000 |       0.0000 |       0.0000 |       0.0000 |       0.0000 |       0.0000 |       0.0000 |       0.0000 |       0.0000 |       0.0000 |       0.0000 |       0.0000 |       0.0000 |       0.0000 |       0.0000 |       0.0000 |       0.0000 |       0.0000 |       0.0000 |       0.0000 |       0.0000 |       0.0000 |       0.0000 |       0.0000 |       0.0000 |       0.0000 |       0.0000 |       0.0000 |       0.0000 |       0.0000 |       0.0000 |       0.0000 |       0.0000 |       0.0000 |       0.0000 |       0.0000 |       0.0000 |       0.0000 |       0.0000 |       0.0000 |       0.0000 |
dl2.accesses                                  5316 |         5316 |         5495 |         5495 |        11575 |        11575 |        11546 |        11546 |        25771 |        25771 |        26175 |        26175 |        63304 |        63304 |        63620 |        63620 |       142811 |       142811 |       143015 |       143015 |       328071 |       328071 |       327537 |       327537 |       717615 |       717615 |       717569 |       717569 |      1688044 |      1688044 |      1684308 |      1684308 |      3529350 |      3529350 |      3519203 |      3519203 |      7467683 |      7467683 |      7426093 |      7426093 |     16342809 |     16342809 |     16246009 |     16246009 |
dl2.hits                                      3954 |         3954 |         4143 |         4143 |         9699 |         9699 |         9680 |         9680 |        22872 |        22872 |        23291 |        23291 |        58363 |        58363 |        58689 |        58689 |       133773 |       133773 |       133987 |       133987 |       310842 |       310842 |       310318 |       310318 |       684002 |       684002 |       683966 |       683966 |      1621663 |      1620887 |      1617937 |      1589602 |      3396687 |      3077791 |      3350013 |      3015128 |      6502009 |      6221786 |      6411051 |      6117112 |     13682884 |     13072277 |     13459839 |     12801983 |
dl2.misses                                    1362 |         1362 |         1352 |         1352 |         1876 |         1876 |         1866 |         1866 |         2899 |         2899 |         2884 |         2884 |         4941 |         4941 |         4931 |         4931 |         9038 |         9038 |         9028 |         9028 |        17229 |        17229 |        17219 |        17219 |        33613 |        33613 |        33603 |        33603 |        66381 |        67157 |        66371 |        94706 |       132663 |       451559 |       169190 |       504075 |       965674 |      1245897 |      1015042 |      1308981 |      2659925 |      3270532 |      2786170 |      3444026 |
dl2.replacements                               144 |          144 |            0 |            0 |          144 |          144 |            0 |            0 |          150 |          150 |            0 |            0 |          144 |          144 |            0 |            0 |          144 |          144 |            0 |            0 |          144 |          144 |            0 |            0 |          144 |          144 |            0 |            0 |          144 |         1621 |            0 |        29170 |         1591 |       386023 |        38118 |       438539 |       834602 |      1180361 |       883970 |      1243445 |      2528853 |      3204996 |      2655098 |      3378490 |
dl2.writebacks                                  88 |           88 |            0 |            0 |           88 |           88 |            0 |            0 |           89 |           89 |            0 |            0 |           88 |           88 |            0 |            0 |           88 |           88 |            0 |            0 |           88 |           88 |            0 |            0 |           88 |           88 |            0 |            0 |           88 |         1305 |            0 |        28880 |         1285 |       381432 |        37828 |       433772 |       831066 |      1172423 |       880281 |      1234823 |      2434006 |      3057095 |      2553887 |      3203464 |
dl2.invalidations                                0 |            0 |            0 |            0 |            0 |            0 |            0 |            0 |            0 |            0 |            0 |            0 |            0 |            0 |            0 |            0 |            0 |            0 |            0 |            0 |            0 |            0 |            0 |            0 |            0 |            0 |            0 |            0 |            0 |            0 |            0 |            0 |            0 |            0 |            0 |            0 |            0 |            0 |            0 |            0 |            0 |            0 |            0 |            0 |
dl2.miss_rate                               0.2562 |       0.2562 |       0.2460 |       0.2460 |       0.1621 |       0.1621 |       0.1616 |       0.1616 |       0.1125 |       0.1125 |       0.1102 |       0.1102 |       0.0781 |       0.0781 |       0.0775 |       0.0775 |       0.0633 |       0.0633 |       0.0631 |       0.0631 |       0.0525 |       0.0525 |       0.0526 |       0.0526 |       0.0468 |       0.0468 |       0.0468 |       0.0468 |       0.0393 |       0.0398 |       0.0394 |       0.0562 |       0.0376 |       0.1279 |       0.0481 |       0.1432 |       0.1293 |       0.1668 |       0.1367 |       0.1763 |       0.1628 |       0.2001 |       0.1715 |       0.2120 |
dl2.repl_rate                               0.0271 |       0.0271 |       0.0000 |       0.0000 |       0.0124 |       0.0124 |       0.0000 |       0.0000 |       0.0058 |       0.0058 |       0.0000 |       0.0000 |       0.0023 |       0.0023 |       0.0000 |       0.0000 |       0.0010 |       0.0010 |       0.0000 |       0.0000 |       0.0004 |       0.0004 |       0.0000 |       0.0000 |       0.0002 |       0.0002 |       0.0000 |       0.0000 |       0.0001 |       0.0010 |       0.0000 |       0.0173 |       0.0005 |       0.1094 |       0.0108 |       0.1246 |       0.1118 |       0.1581 |       0.1190 |       0.1674 |       0.1547 |       0.1961 |       0.1634 |       0.2080 |
dl2.wb_rate                                 0.0166 |       0.0166 |       0.0000 |       0.0000 |       0.0076 |       0.0076 |       0.0000 |       0.0000 |       0.0035 |       0.0035 |       0.0000 |       0.0000 |       0.0014 |       0.0014 |       0.0000 |       0.0000 |       0.0006 |       0.0006 |       0.0000 |       0.0000 |       0.0003 |       0.0003 |       0.0000 |       0.0000 |       0.0001 |       0.0001 |       0.0000 |       0.0000 |       0.0001 |       0.0008 |       0.0000 |       0.0171 |       0.0004 |       0.1081 |       0.0107 |       0.1233 |       0.1113 |       0.1570 |       0.1185 |       0.1663 |       0.1489 |       0.1871 |       0.1572 |       0.1972 |
dl2.inv_rate                                0.0000 |       0.0000 |       0.0000 |       0.0000 |       0.0000 |       0.0000 |       0.0000 |       0.0000 |       0.0000 |       0.0000 |       0.0000 |       0.0000 |       0.0000 |       0.0000 |       0.0000 |       0.0000 |       0.0000 |       0.0000 |       0.0000 |       0.0000 |       0.0000 |       0.0000 |       0.0000 |       0.0000 |       0.0000 |       0.0000 |       0.0000 |       0.0000 |       0.0000 |       0.0000 |       0.0000 |       0.0000 |       0.0000 |       0.0000 |       0.0000 |       0.0000 |       0.0000 |       0.0000 |       0.0000 |       0.0000 |       0.0000 |       0.0000 |       0.0000 |       0.0000 |
itlb.accesses                               469795 |       469795 |       469795 |       469795 |       991142 |       991142 |       991142 |       991142 |      2119924 |      2119924 |      2119924 |      2119924 |      4597528 |      4597528 |      4597528 |      4597528 |      9814431 |      9814431 |      9814431 |      9814431 |     20801137 |     20801137 |     20801137 |     20801137 |     43837941 |     43837941 |     43837941 |     43837941 |     96157791 |     96157791 |     96157791 |     96157791 |    196859835 |    196859835 |    196859835 |    196859835 |    406918181 |    406918181 |    406918181 |    406918181 |    859288303 |    859288303 |    859288303 |    859288303 |
itlb.hits                                   469785 |       469785 |       469785 |       469785 |       991132 |       991132 |       991132 |       991132 |      2119914 |      2119914 |      2119914 |      2119914 |      4597518 |      4597518 |      4597518 |      4597518 |      9814421 |      9814421 |      9814421 |      9814421 |     20801127 |     20801127 |     20801127 |     20801127 |     43837931 |     43837931 |     43837931 |     43837931 |     96157781 |     96157781 |     96157781 |     96157781 |    196859825 |    196859825 |    196859825 |    196859825 |    406918171 |    406918171 |    406918171 |    406918171 |    859288293 |    859288293 |    859288293 |    859288293 |
itlb.misses                                     10 |           10 |           10 |           10 |           10 |           10 |           10 |           10 |           10 |           10 |           10 |           10 |           10 |           10 |           10 |           10 |           10 |           10 |           10 |           10 |           10 |           10 |           10 |           10 |           10 |           10 |           10 |           10 |           10 |           10 |           10 |           10 |           10 |           10 |           10 |           10 |           10 |           10 |           10 |           10 |           10 |           10 |           10 |           10 |
itlb.replacements                                0 |            0 |            0 |            0 |            0 |            0 |            0 |            0 |            0 |            0 |            0 |            0 |            0 |            0 |            0 |            0 |            0 |            0 |            0 |            0 |            0 |            0 |            0 |            0 |            0 |            0 |            0 |            0 |            0 |            0 |            0 |            0 |            0 |            0 |            0 |            0 |            0 |            0 |            0 |            0 |            0 |            0 |            0 |            0 |
itlb.writebacks                                  0 |            0 |            0 |            0 |            0 |            0 |            0 |            0 |            0 |            0 |            0 |            0 |            0 |            0 |            0 |            0 |            0 |            0 |            0 |            0 |            0 |            0 |            0 |            0 |            0 |            0 |            0 |            0 |            0 |            0 |            0 |            0 |            0 |            0 |            0 |            0 |            0 |            0 |            0 |            0 |            0 |            0 |            0 |            0 |
itlb.invalidations                               0 |            0 |            0 |            0 |            0 |            0 |            0 |            0 |            0 |            0 |            0 |            0 |            0 |            0 |            0 |            0 |            0 |            0 |            0 |            0 |            0 |            0 |            0 |            0 |            0 |            0 |            0 |            0 |            0 |            0 |            0 |            0 |            0 |            0 |            0 |            0 |            0 |            0 |            0 |            0 |            0 |            0 |            0 |            0 |
itlb.miss_rate                              0.0000 |       0.0000 |       0.0000 |       0.0000 |       0.0000 |       0.0000 |       0.0000 |       0.0000 |       0.0000 |       0.0000 |       0.0000 |       0.0000 |       0.0000 |       0.0000 |       0.0000 |       0.0000 |       0.0000 |       0.0000 |       0.0000 |       0.0000 |       0.0000 |       0.0000 |       0.0000 |       0.0000 |       0.0000 |       0.0000 |       0.0000 |       0.0000 |       0.0000 |       0.0000 |       0.0000 |       0.0000 |       0.0000 |       0.0000 |       0.0000 |       0.0000 |       0.0000 |       0.0000 |       0.0000 |       0.0000 |       0.0000 |       0.0000 |       0.0000 |       0.0000 |
itlb.repl_rate                              0.0000 |       0.0000 |       0.0000 |       0.0000 |       0.0000 |       0.0000 |       0.0000 |       0.0000 |       0.0000 |       0.0000 |       0.0000 |       0.0000 |       0.0000 |       0.0000 |       0.0000 |       0.0000 |       0.0000 |       0.0000 |       0.0000 |       0.0000 |       0.0000 |       0.0000 |       0.0000 |       0.0000 |       0.0000 |       0.0000 |       0.0000 |       0.0000 |       0.0000 |       0.0000 |       0.0000 |       0.0000 |       0.0000 |       0.0000 |       0.0000 |       0.0000 |       0.0000 |       0.0000 |       0.0000 |       0.0000 |       0.0000 |       0.0000 |       0.0000 |       0.0000 |
itlb.wb_rate                                0.0000 |       0.0000 |       0.0000 |       0.0000 |       0.0000 |       0.0000 |       0.0000 |       0.0000 |       0.0000 |       0.0000 |       0.0000 |       0.0000 |       0.0000 |       0.0000 |       0.0000 |       0.0000 |       0.0000 |       0.0000 |       0.0000 |       0.0000 |       0.0000 |       0.0000 |       0.0000 |       0.0000 |       0.0000 |       0.0000 |       0.0000 |       0.0000 |       0.0000 |       0.0000 |       0.0000 |       0.0000 |       0.0000 |       0.0000 |       0.0000 |       0.0000 |       0.0000 |       0.0000 |       0.0000 |       0.0000 |       0.0000 |       0.0000 |       0.0000 |       0.0000 |
itlb.inv_rate                               0.0000 |       0.0000 |       0.0000 |       0.0000 |       0.0000 |       0.0000 |       0.0000 |       0.0000 |       0.0000 |       0.0000 |       0.0000 |       0.0000 |       0.0000 |       0.0000 |       0.0000 |       0.0000 |       0.0000 |       0.0000 |       0.0000 |       0.0000 |       0.0000 |       0.0000 |       0.0000 |       0.0000 |       0.0000 |       0.0000 |       0.0000 |       0.0000 |       0.0000 |       0.0000 |       0.0000 |       0.0000 |       0.0000 |       0.0000 |       0.0000 |       0.0000 |       0.0000 |       0.0000 |       0.0000 |       0.0000 |       0.0000 |       0.0000 |       0.0000 |       0.0000 |
dtlb.accesses                               141575 |       141575 |       141575 |       141575 |       294527 |       294527 |       294527 |       294527 |       617968 |       617968 |       617968 |       617968 |      1309810 |      1309810 |      1309810 |      1309810 |      2760411 |      2760411 |      2760411 |      2760411 |      5794480 |      5794480 |      5794480 |      5794480 |     12120194 |     12120194 |     12120194 |     12120194 |     25883739 |     25883739 |     25883739 |     25883739 |     53226667 |     53226667 |     53226667 |     53226667 |    110096915 |    110096915 |    110096915 |    110096915 |    230014097 |    230014097 |    230014097 |    230014097 |
dtlb.hits                                   141563 |       141563 |       141563 |       141563 |       294511 |       294511 |       294511 |       294511 |       617944 |       617944 |       617944 |       617944 |      1309770 |      1309770 |      1309770 |      1309770 |      2760339 |      2760339 |      2760339 |      2760339 |      5794298 |      5794298 |      5794298 |      5794298 |     12119169 |     12119169 |     12119169 |     12119169 |     25880404 |     25880404 |     25880404 |     25880404 |     53219946 |     53219946 |     53219946 |     53219946 |    110081734 |    110081734 |    110081734 |    110081734 |    229977764 |    229977764 |    229977764 |    229977764 |
dtlb.misses                                     12 |           12 |           12 |           12 |           16 |           16 |           16 |           16 |           24 |           24 |           24 |           24 |           40 |           40 |           40 |           40 |           72 |           72 |           72 |           72 |          182 |          182 |          182 |          182 |         1025 |         1025 |         1025 |         1025 |         3335 |         3335 |         3335 |         3335 |         6721 |         6721 |         6721 |         6721 |        15181 |        15181 |        15181 |        15181 |        36333 |        36333 |        36333 |        36333 |
dtlb.replacements                                0 |            0 |            0 |            0 |            0 |            0 |            0 |            0 |            0 |            0 |            0 |            0 |            0 |            0 |            0 |            0 |            0 |            0 |            0 |            0 |           54 |           54 |           54 |           54 |          897 |          897 |          897 |          897 |         3207 |         3207 |         3207 |         3207 |         6593 |         6593 |         6593 |         6593 |        15053 |        15053 |        15053 |        15053 |        36205 |        36205 |        36205 |        36205 |
dtlb.writebacks                                  0 |            0 |            0 |            0 |            0 |            0 |            0 |            0 |            0 |            0 |            0 |            0 |            0 |            0 |            0 |            0 |            0 |            0 |            0 |            0 |           52 |           52 |           52 |           52 |          895 |          895 |          895 |          895 |         3205 |         3205 |         3205 |         3205 |         6591 |         6591 |         6591 |         6591 |        15051 |        15051 |        15051 |        15051 |        36203 |        36203 |        36203 |        36203 |
dtlb.invalidations                               0 |            0 |            0 |            0 |            0 |            0 |            0 |            0 |            0 |            0 |            0 |            0 |            0 |            0 |            0 |            0 |            0 |            0 |            0 |            0 |            0 |            0 |            0 |            0 |            0 |            0 |            0 |            0 |            0 |            0 |            0 |            0 |            0 |            0 |            0 |            0 |            0 |            0 |            0 |            0 |            0 |            0 |            0 |            0 |
dtlb.miss_rate                              0.0001 |       0.0001 |       0.0001 |       0.0001 |       0.0001 |       0.0001 |       0.0001 |       0.0001 |       0.0000 |       0.0000 |       0.0000 |       0.0000 |       0.0000 |       0.0000 |       0.0000 |       0.0000 |       0.0000 |       0.0000 |       0.0000 |       0.0000 |       0.0000 |       0.0000 |       0.0000 |       0.0000 |       0.0001 |       0.0001 |       0.0001 |       0.0001 |       0.0001 |       0.0001 |       0.0001 |       0.0001 |       0.0001 |       0.0001 |       0.0001 |       0.0001 |       0.0001 |       0.0001 |       0.0001 |       0.0001 |       0.0002 |       0.0002 |       0.0002 |       0.0002 |
dtlb.repl_rate                              0.0000 |       0.0000 |       0.0000 |       0.0000 |       0.0000 |       0.0000 |       0.0000 |       0.0000 |       0.0000 |       0.0000 |       0.0000 |       0.0000 |       0.0000 |       0.0000 |       0.0000 |       0.0000 |       0.0000 |       0.0000 |       0.0000 |       0.0000 |       0.0000 |       0.0000 |       0.0000 |       0.0000 |       0.0001 |       0.0001 |       0.0001 |       0.0001 |       0.0001 |       0.0001 |       0.0001 |       0.0001 |       0.0001 |       0.0001 |       0.0001 |       0.0001 |       0.0001 |       0.0001 |       0.0001 |       0.0001 |       0.0002 |       0.0002 |       0.0002 |       0.0002 |
dtlb.wb_rate                                0.0000 |       0.0000 |       0.0000 |       0.0000 |       0.0000 |       0.0000 |       0.0000 |       0.0000 |       0.0000 |       0.0000 |       0.0000 |       0.0000 |       0.0000 |       0.0000 |       0.0000 |       0.0000 |       0.0000 |       0.0000 |       0.0000 |       0.0000 |       0.0000 |       0.0000 |       0.0000 |       0.0000 |       0.0001 |       0.0001 |       0.0001 |       0.0001 |       0.0001 |       0.0001 |       0.0001 |       0.0001 |       0.0001 |       0.0001 |       0.0001 |       0.0001 |       0.0001 |       0.0001 |       0.0001 |       0.0001 |       0.0002 |       0.0002 |       0.0002 |       0.0002 |
dtlb.inv_rate                               0.0000 |       0.0000 |       0.0000 |       0.0000 |       0.0000 |       0.0000 |       0.0000 |       0.0000 |       0.0000 |       0.0000 |       0.0000 |       0.0000 |       0.0000 |       0.0000 |       0.0000 |       0.0000 |       0.0000 |       0.0000 |       0.0000 |       0.0000 |       0.0000 |       0.0000 |       0.0000 |       0.0000 |       0.0000 |       0.0000 |       0.0000 |       0.0000 |       0.0000 |       0.0000 |       0.0000 |       0.0000 |       0.0000 |       0.0000 |       0.0000 |       0.0000 |       0.0000 |       0.0000 |       0.0000 |       0.0000 |       0.0000 |       0.0000 |       0.0000 |       0.0000 |
ld_text_base                            0x00400000 |   0x00400000 |   0x00400000 |   0x00400000 |   0x00400000 |   0x00400000 |   0x00400000 |   0x00400000 |   0x00400000 |   0x00400000 |   0x00400000 |   0x00400000 |   0x00400000 |   0x00400000 |   0x00400000 |   0x00400000 |   0x00400000 |   0x00400000 |   0x00400000 |   0x00400000 |   0x00400000 |   0x00400000 |   0x00400000 |   0x00400000 |   0x00400000 |   0x00400000 |   0x00400000 |   0x00400000 |   0x00400000 |   0x00400000 |   0x00400000 |   0x00400000 |   0x00400000 |   0x00400000 |   0x00400000 |   0x00400000 |   0x00400000 |   0x00400000 |   0x00400000 |   0x00400000 |   0x00400000 |   0x00400000 |   0x00400000 |   0x00400000 |
ld_text_size                                 73456 |        73456 |        73456 |        73456 |        73488 |        73488 |        73488 |        73488 |        73504 |        73504 |        73504 |        73504 |        73520 |        73520 |        73520 |        73520 |        73520 |        73520 |        73520 |        73520 |        73520 |        73520 |        73520 |        73520 |        73520 |        73520 |        73520 |        73520 |        73520 |        73520 |        73520 |        73520 |        73520 |        73520 |        73520 |        73520 |        73520 |        73520 |        73520 |        73520 |        73520 |        73520 |        73520 |        73520 |
ld_data_base                            0x10000000 |   0x10000000 |   0x10000000 |   0x10000000 |   0x10000000 |   0x10000000 |   0x10000000 |   0x10000000 |   0x10000000 |   0x10000000 |   0x10000000 |   0x10000000 |   0x10000000 |   0x10000000 |   0x10000000 |   0x10000000 |   0x10000000 |   0x10000000 |   0x10000000 |   0x10000000 |   0x10000000 |   0x10000000 |   0x10000000 |   0x10000000 |   0x10000000 |   0x10000000 |   0x10000000 |   0x10000000 |   0x10000000 |   0x10000000 |   0x10000000 |   0x10000000 |   0x10000000 |   0x10000000 |   0x10000000 |   0x10000000 |   0x10000000 |   0x10000000 |   0x10000000 |   0x10000000 |   0x10000000 |   0x10000000 |   0x10000000 |   0x10000000 |
ld_data_size                                  8192 |         8192 |         8192 |         8192 |         8192 |         8192 |         8192 |         8192 |         8192 |         8192 |         8192 |         8192 |         8192 |         8192 |         8192 |         8192 |         8192 |         8192 |         8192 |         8192 |         8192 |         8192 |         8192 |         8192 |         8192 |         8192 |         8192 |         8192 |         8192 |         8192 |         8192 |         8192 |         8192 |         8192 |         8192 |         8192 |         8192 |         8192 |         8192 |         8192 |         8192 |         8192 |         8192 |         8192 |
ld_stack_base                           0x7fffc000 |   0x7fffc000 |   0x7fffc000 |   0x7fffc000 |   0x7fffc000 |   0x7fffc000 |   0x7fffc000 |   0x7fffc000 |   0x7fffc000 |   0x7fffc000 |   0x7fffc000 |   0x7fffc000 |   0x7fffc000 |   0x7fffc000 |   0x7fffc000 |   0x7fffc000 |   0x7fffc000 |   0x7fffc000 |   0x7fffc000 |   0x7fffc000 |   0x7fffc000 |   0x7fffc000 |   0x7fffc000 |   0x7fffc000 |   0x7fffc000 |   0x7fffc000 |   0x7fffc000 |   0x7fffc000 |   0x7fffc000 |   0x7fffc000 |   0x7fffc000 |   0x7fffc000 |   0x7fffc000 |   0x7fffc000 |   0x7fffc000 |   0x7fffc000 |   0x7fffc000 |   0x7fffc000 |   0x7fffc000 |   0x7fffc000 |   0x7fffc000 |   0x7fffc000 |   0x7fffc000 |   0x7fffc000 |
ld_stack_size                                16384 |        16384 |        16384 |        16384 |        16384 |        16384 |        16384 |        16384 |        16384 |        16384 |        16384 |        16384 |        16384 |        16384 |        16384 |        16384 |        16384 |        16384 |        16384 |        16384 |        16384 |        16384 |        16384 |        16384 |        16384 |        16384 |        16384 |        16384 |        16384 |        16384 |        16384 |        16384 |        16384 |        16384 |        16384 |        16384 |        16384 |        16384 |        16384 |        16384 |        16384 |        16384 |        16384 |        16384 |
ld_prog_entry                           0x00400140 |   0x00400140 |   0x00400140 |   0x00400140 |   0x00400140 |   0x00400140 |   0x00400140 |   0x00400140 |   0x00400140 |   0x00400140 |   0x00400140 |   0x00400140 |   0x00400140 |   0x00400140 |   0x00400140 |   0x00400140 |   0x00400140 |   0x00400140 |   0x00400140 |   0x00400140 |   0x00400140 |   0x00400140 |   0x00400140 |   0x00400140 |   0x00400140 |   0x00400140 |   0x00400140 |   0x00400140 |   0x00400140 |   0x00400140 |   0x00400140 |   0x00400140 |   0x00400140 |   0x00400140 |   0x00400140 |   0x00400140 |   0x00400140 |   0x00400140 |   0x00400140 |   0x00400140 |   0x00400140 |   0x00400140 |   0x00400140 |   0x00400140 |
ld_environ_base                         0x7fff8000 |   0x7fff8000 |   0x7fff8000 |   0x7fff8000 |   0x7fff8000 |   0x7fff8000 |   0x7fff8000 |   0x7fff8000 |   0x7fff8000 |   0x7fff8000 |   0x7fff8000 |   0x7fff8000 |   0x7fff8000 |   0x7fff8000 |   0x7fff8000 |   0x7fff8000 |   0x7fff8000 |   0x7fff8000 |   0x7fff8000 |   0x7fff8000 |   0x7fff8000 |   0x7fff8000 |   0x7fff8000 |   0x7fff8000 |   0x7fff8000 |   0x7fff8000 |   0x7fff8000 |   0x7fff8000 |   0x7fff8000 |   0x7fff8000 |   0x7fff8000 |   0x7fff8000 |   0x7fff8000 |   0x7fff8000 |   0x7fff8000 |   0x7fff8000 |   0x7fff8000 |   0x7fff8000 |   0x7fff8000 |   0x7fff8000 |   0x7fff8000 |   0x7fff8000 |   0x7fff8000 |   0x7fff8000 |
ld_target_big_endian                             0 |            0 |            0 |            0 |            0 |            0 |            0 |            0 |            0 |            0 |            0 |            0 |            0 |            0 |            0 |            0 |            0 |            0 |            0 |            0 |            0 |            0 |            0 |            0 |            0 |            0 |            0 |            0 |            0 |            0 |            0 |            0 |            0 |            0 |            0 |            0 |            0 |            0 |            0 |            0 |            0 |            0 |            0 |            0 |
mem.page_count                                  30 |           30 |           30 |           30 |           34 |           34 |           34 |           34 |           42 |           42 |           42 |           42 |           58 |           58 |           58 |           58 |           90 |           90 |           90 |           90 |          154 |          154 |          154 |          154 |          282 |          282 |          282 |          282 |          538 |          538 |          538 |          538 |         1050 |         1050 |         1050 |         1050 |         2074 |         2074 |         2074 |         2074 |         4122 |         4122 |         4122 |         4122 |
mem.page_mem                                  120k |         120k |         120k |         120k |         136k |         136k |         136k |         136k |         168k |         168k |         168k |         168k |         232k |         232k |         232k |         232k |         360k |         360k |         360k |         360k |         616k |         616k |         616k |         616k |        1128k |        1128k |        1128k |        1128k |        2152k |        2152k |        2152k |        2152k |        4200k |        4200k |        4200k |        4200k |        8296k |        8296k |        8296k |        8296k |       16488k |       16488k |       16488k |       16488k |
mem.ptab_misses                                 30 |           30 |           30 |           30 |           34 |           34 |           34 |           34 |           42 |           42 |           42 |           42 |           58 |           58 |           58 |           58 |           90 |           90 |           90 |           90 |          154 |          154 |          154 |          154 |          282 |          282 |          282 |          282 |          538 |          538 |          538 |          538 |         1050 |         1050 |         1050 |         1050 |         2074 |         2074 |         2074 |         2074 |         4122 |         4122 |         4122 |         4122 |
mem.ptab_accesses                          2617676 |      2617676 |      2617676 |      2617676 |      5009160 |      5009160 |      5009160 |      5009160 |     10171266 |     10171266 |     10171266 |     10171266 |     21465462 |     21465462 |     21465462 |     21465462 |     45234276 |     45234276 |     45234276 |     45234276 |     95249238 |     95249238 |     95249238 |     95249238 |    200047882 |    200047882 |    200047882 |    200047882 |    436854372 |    436854372 |    436854372 |    436854372 |    894348404 |    894348404 |    894348404 |    894348404 |   1848322284 |   1848322284 |   1848322284 |   1848322284 |   3897637136 |   3897637136 |   3897637136 |   3897637136 |
mem.ptab_miss_rate                          0.0000 |       0.0000 |       0.0000 |       0.0000 |       0.0000 |       0.0000 |       0.0000 |       0.0000 |       0.0000 |       0.0000 |       0.0000 |       0.0000 |       0.0000 |       0.0000 |       0.0000 |       0.0000 |       0.0000 |       0.0000 |       0.0000 |       0.0000 |       0.0000 |       0.0000 |       0.0000 |       0.0000 |       0.0000 |       0.0000 |       0.0000 |       0.0000 |       0.0000 |       0.0000 |       0.0000 |       0.0000 |       0.0000 |       0.0000 |       0.0000 |       0.0000 |       0.0000 |       0.0000 |       0.0000 |       0.0000 |       0.0000 |       0.0000 |       0.0000 |       0.0000 |
-------------------------------------------------------------------------------------------------
sim-bpred                                     4096 |         4096 |         4096 |         4096 |         4096 |         4096 |         4096 |         8192 |         8192 |         8192 |         8192 |         8192 |         8192 |         8192 |        16384 |        16384 |        16384 |        16384 |        16384 |        16384 |        16384 |        32768 |        32768 |        32768 |        32768 |        32768 |        32768 |        32768 |        65536 |        65536 |        65536 |        65536 |        65536 |        65536 |        65536 |       131072 |       131072 |       131072 |       131072 |       131072 |       131072 |       131072 |       262144 |       262144 |       262144 |       262144 |       262144 |       262144 |       262144 |       524288 |       524288 |       524288 |       524288 |       524288 |       524288 |       524288 |      1048576 |      1048576 |      1048576 |      1048576 |      1048576 |      1048576 |      1048576 |      2097152 |      2097152 |      2097152 |      2097152 |      2097152 |      2097152 |      2097152 |      4194304 |      4194304 |      4194304 |      4194304 |      4194304 |      4194304 |      4194304 |
-bpred bimod -bpred:bimod 512
-bpred bimod -bpred:bimod 1024
-bpred bimod -bpred:bimod 2048
-bpred 2lev -bpred:2lev 1 512 10 1
-bpred 2lev -bpred:2lev 1 1024 10 1
-bpred 2lev -bpred:2lev 1 2048 10 1
-bpred 2lev -bpred:2lev 1 4096 10 1
-------------------------------------------------------------------------------------------------
sim_num_insn                                469795 |       469795 |       469795 |       469795 |       469795 |       469795 |       469795 |       991142 |       991142 |       991142 |       991142 |       991142 |       991142 |       991142 |      2119924 |      2119924 |      2119924 |      2119924 |      2119924 |      2119924 |      2119924 |      4597528 |      4597528 |      4597528 |      4597528 |      4597528 |      4597528 |      4597528 |      9814431 |      9814431 |      9814431 |      9814431 |      9814431 |      9814431 |      9814431 |     20801137 |     20801137 |     20801137 |     20801137 |     20801137 |     20801137 |     20801137 |     43837941 |     43837941 |     43837941 |     43837941 |     43837941 |     43837941 |     43837941 |     96157791 |     96157791 |     96157791 |     96157791 |     96157791 |     96157791 |     96157791 |    196859835 |    196859835 |    196859835 |    196859835 |    196859835 |    196859835 |    196859835 |    406918181 |    406918181 |    406918181 |    406918181 |    406918181 |    406918181 |    406918181 |    859288303 |    859288303 |    859288303 |    859288303 |    859288303 |    859288303 |    859288303 |
sim_num_refs                                125109 |       125109 |       125109 |       125109 |       125109 |       125109 |       125109 |       261677 |       261677 |       261677 |       261677 |       261677 |       261677 |       261677 |       552350 |       552350 |       552350 |       552350 |       552350 |       552350 |       552350 |      1178656 |      1178656 |      1178656 |      1178656 |      1178656 |      1178656 |      1178656 |      2498185 |      2498185 |      2498185 |      2498185 |      2498185 |      2498185 |      2498185 |      5270110 |      5270110 |      5270110 |      5270110 |      5270110 |      5270110 |      5270110 |     11071536 |     11071536 |     11071536 |     11071536 |     11071536 |     11071536 |     11071536 |     23786505 |     23786505 |     23786505 |     23786505 |     23786505 |     23786505 |     23786505 |     49032281 |     49032281 |     49032281 |     49032281 |     49032281 |     49032281 |     49032281 |    101708225 |    101708225 |    101708225 |    101708225 |    101708225 |    101708225 |    101708225 |    213236799 |    213236799 |    213236799 |    213236799 |    213236799 |    213236799 |    213236799 |
sim_elapsed_time                                 1 |            1 |            1 |            1 |            1 |            1 |            1 |            1 |            1 |            1 |            1 |            1 |            1 |            1 |            1 |            1 |            1 |            1 |            1 |            1 |            1 |            1 |            1 |            1 |            1 |            1 |            1 |            1 |            1 |            1 |            1 |            2 |            1 |            1 |            1 |            3 |            2 |            3 |            2 |            3 |            2 |            3 |            5 |            6 |            5 |            5 |            6 |            5 |            6 |           12 |           12 |           11 |           12 |           12 |           12 |           11 |           24 |           24 |           24 |           24 |           24 |           24 |           24 |           49 |           49 |           49 |           50 |           50 |           50 |           49 |          103 |          104 |          104 |          105 |          105 |          105 |          105 |
sim_inst_rate                          469795.0000 |  469795.0000 |  469795.0000 |  469795.0000 |  469795.0000 |  469795.0000 |  469795.0000 |  991142.0000 |  991142.0000 |  991142.0000 |  991142.0000 |  991142.0000 |  991142.0000 |  991142.0000 | 2119924.0000 | 2119924.0000 | 2119924.0000 | 2119924.0000 | 2119924.0000 | 2119924.0000 | 2119924.0000 | 4597528.0000 | 4597528.0000 | 4597528.0000 | 4597528.0000 | 4597528.0000 | 4597528.0000 | 4597528.0000 | 9814431.0000 | 9814431.0000 | 9814431.0000 | 4907215.5000 | 9814431.0000 | 9814431.0000 | 9814431.0000 | 6933712.3333 |10400568.5000 | 6933712.3333 |10400568.5000 | 6933712.3333 |10400568.5000 | 6933712.3333 | 8767588.2000 | 7306323.5000 | 8767588.2000 | 8767588.2000 | 7306323.5000 | 8767588.2000 | 7306323.5000 | 8013149.2500 | 8013149.2500 | 8741617.3636 | 8013149.2500 | 8013149.2500 | 8013149.2500 | 8741617.3636 | 8202493.1250 | 8202493.1250 | 8202493.1250 | 8202493.1250 | 8202493.1250 | 8202493.1250 | 8202493.1250 | 8304452.6735 | 8304452.6735 | 8304452.6735 | 8138363.6200 | 8138363.6200 | 8138363.6200 | 8304452.6735 | 8342604.8835 | 8262387.5288 | 8262387.5288 | 8183698.1238 | 8183698.1238 | 8183698.1238 | 8183698.1238 |
sim_num_branches                             76320 |        76320 |        76320 |        76320 |        76320 |        76320 |        76320 |       162857 |       162857 |       162857 |       162857 |       162857 |       162857 |       162857 |       350846 |       350846 |       350846 |       350846 |       350846 |       350846 |       350846 |       764295 |       764295 |       764295 |       764295 |       764295 |       764295 |       764295 |      1641775 |      1641775 |      1641775 |      1641775 |      1641775 |      1641775 |      1641775 |      3499465 |      3499465 |      3499465 |      3499465 |      3499465 |      3499465 |      3499465 |      7402554 |      7402554 |      7402554 |      7402554 |      7402554 |      7402554 |      7402554 |     16255216 |     16255216 |     16255216 |     16255216 |     16255216 |     16255216 |     16255216 |     33395877 |     33395877 |     33395877 |     33395877 |     33395877 |     33395877 |     33395877 |     69301904 |     69301904 |     69301904 |     69301904 |     69301904 |     69301904 |     69301904 |    146566727 |    146566727 |    146566727 |    146566727 |    146566727 |    146566727 |    146566727 |
sim_IPB                                     6.1556 |       6.1556 |       6.1556 |       6.1556 |       6.1556 |       6.1556 |       6.1556 |       6.0860 |       6.0860 |       6.0860 |       6.0860 |       6.0860 |       6.0860 |       6.0860 |       6.0423 |       6.0423 |       6.0423 |       6.0423 |       6.0423 |       6.0423 |       6.0423 |       6.0154 |       6.0154 |       6.0154 |       6.0154 |       6.0154 |       6.0154 |       6.0154 |       5.9779 |       5.9779 |       5.9779 |       5.9779 |       5.9779 |       5.9779 |       5.9779 |       5.9441 |       5.9441 |       5.9441 |       5.9441 |       5.9441 |       5.9441 |       5.9441 |       5.9220 |       5.9220 |       5.9220 |       5.9220 |       5.9220 |       5.9220 |       5.9220 |       5.9155 |       5.9155 |       5.9155 |       5.9155 |       5.9155 |       5.9155 |       5.9155 |       5.8947 |       5.8947 |       5.8947 |       5.8947 |       5.8947 |       5.8947 |       5.8947 |       5.8717 |       5.8717 |       5.8717 |       5.8717 |       5.8717 |       5.8717 |       5.8717 |       5.8628 |       5.8628 |       5.8628 |       5.8628 |       5.8628 |       5.8628 |       5.8628 |
bpred_bimod.lookups                          76320 |        76320 |        76320 |xxxxxxxxxxxxx |xxxxxxxxxxxxx |xxxxxxxxxxxxx |xxxxxxxxxxxxx |       162857 |       162857 |       162857 |xxxxxxxxxxxxx |xxxxxxxxxxxxx |xxxxxxxxxxxxx |xxxxxxxxxxxxx |       350846 |       350846 |       350846 |xxxxxxxxxxxxx |xxxxxxxxxxxxx |xxxxxxxxxxxxx |xxxxxxxxxxxxx |       764295 |       764295 |       764295 |xxxxxxxxxxxxx |xxxxxxxxxxxxx |xxxxxxxxxxxxx |xxxxxxxxxxxxx |      1641775 |      1641775 |      1641775 |xxxxxxxxxxxxx |xxxxxxxxxxxxx |xxxxxxxxxxxxx |xxxxxxxxxxxxx |      3499465 |      3499465 |      3499465 |xxxxxxxxxxxxx |xxxxxxxxxxxxx |xxxxxxxxxxxxx |xxxxxxxxxxxxx |      7402554 |      7402554 |      7402554 |xxxxxxxxxxxxx |xxxxxxxxxxxxx |xxxxxxxxxxxxx |xxxxxxxxxxxxx |     16255216 |     16255216 |     16255216 |xxxxxxxxxxxxx |xxxxxxxxxxxxx |xxxxxxxxxxxxx |xxxxxxxxxxxxx |     33395877 |     33395877 |     33395877 |xxxxxxxxxxxxx |xxxxxxxxxxxxx |xxxxxxxxxxxxx |xxxxxxxxxxxxx |     69301904 |     69301904 |     69301904 |xxxxxxxxxxxxx |xxxxxxxxxxxxx |xxxxxxxxxxxxx |xxxxxxxxxxxxx |    146566727 |    146566727 |    146566727 |
bpred_bimod.updates                          76320 |        76320 |        76320 |xxxxxxxxxxxxx |xxxxxxxxxxxxx |xxxxxxxxxxxxx |xxxxxxxxxxxxx |       162857 |       162857 |       162857 |xxxxxxxxxxxxx |xxxxxxxxxxxxx |xxxxxxxxxxxxx |xxxxxxxxxxxxx |       350846 |       350846 |       350846 |xxxxxxxxxxxxx |xxxxxxxxxxxxx |xxxxxxxxxxxxx |xxxxxxxxxxxxx |       764295 |       764295 |       764295 |xxxxxxxxxxxxx |xxxxxxxxxxxxx |xxxxxxxxxxxxx |xxxxxxxxxxxxx |      1641775 |      1641775 |      1641775 |xxxxxxxxxxxxx |xxxxxxxxxxxxx |xxxxxxxxxxxxx |xxxxxxxxxxxxx |      3499465 |      3499465 |      3499465 |xxxxxxxxxxxxx |xxxxxxxxxxxxx |xxxxxxxxxxxxx |xxxxxxxxxxxxx |      7402554 |      7402554 |      7402554 |xxxxxxxxxxxxx |xxxxxxxxxxxxx |xxxxxxxxxxxxx |xxxxxxxxxxxxx |     16255216 |     16255216 |     16255216 |xxxxxxxxxxxxx |xxxxxxxxxxxxx |xxxxxxxxxxxxx |xxxxxxxxxxxxx |     33395877 |     33395877 |     33395877 |xxxxxxxxxxxxx |xxxxxxxxxxxxx |xxxxxxxxxxxxx |xxxxxxxxxxxxx |     69301904 |     69301904 |     69301904 |xxxxxxxxxxxxx |xxxxxxxxxxxxx |xxxxxxxxxxxxx |xxxxxxxxxxxxx |    146566727 |    146566727 |    146566727 |
bpred_bimod.addr_hits                        54328 |        54329 |        54332 |xxxxxxxxxxxxx |xxxxxxxxxxxxx |xxxxxxxxxxxxx |xxxxxxxxxxxxx |       114181 |       114180 |       114182 |xxxxxxxxxxxxx |xxxxxxxxxxxxx |xxxxxxxxxxxxx |xxxxxxxxxxxxx |       247085 |       247086 |       247088 |xxxxxxxxxxxxx |xxxxxxxxxxxxx |xxxxxxxxxxxxx |xxxxxxxxxxxxx |       546166 |       546170 |       546170 |xxxxxxxxxxxxx |xxxxxxxxxxxxx |xxxxxxxxxxxxx |xxxxxxxxxxxxx |      1173252 |      1173256 |      1173256 |xxxxxxxxxxxxx |xxxxxxxxxxxxx |xxxxxxxxxxxxx |xxxxxxxxxxxxx |      2532225 |      2532229 |      2532229 |xxxxxxxxxxxxx |xxxxxxxxxxxxx |xxxxxxxxxxxxx |xxxxxxxxxxxxx |      5330920 |      5330924 |      5330926 |xxxxxxxxxxxxx |xxxxxxxxxxxxx |xxxxxxxxxxxxx |xxxxxxxxxxxxx |     12011766 |     12011768 |     12011768 |xxxxxxxxxxxxx |xxxxxxxxxxxxx |xxxxxxxxxxxxx |xxxxxxxxxxxxx |     24292388 |     24292390 |     24292390 |xxxxxxxxxxxxx |xxxxxxxxxxxxx |xxxxxxxxxxxxx |xxxxxxxxxxxxx |     49776660 |     49776664 |     49776664 |xxxxxxxxxxxxx |xxxxxxxxxxxxx |xxxxxxxxxxxxx |xxxxxxxxxxxxx |    106097518 |    106097520 |    106097521 |
bpred_bimod.dir_hits                         54436 |        54434 |        54438 |xxxxxxxxxxxxx |xxxxxxxxxxxxx |xxxxxxxxxxxxx |xxxxxxxxxxxxx |       114291 |       114288 |       114289 |xxxxxxxxxxxxx |xxxxxxxxxxxxx |xxxxxxxxxxxxx |xxxxxxxxxxxxx |       247196 |       247193 |       247195 |xxxxxxxxxxxxx |xxxxxxxxxxxxx |xxxxxxxxxxxxx |xxxxxxxxxxxxx |       546275 |       546276 |       546275 |xxxxxxxxxxxxx |xxxxxxxxxxxxx |xxxxxxxxxxxxx |xxxxxxxxxxxxx |      1173362 |      1173363 |      1173362 |xxxxxxxxxxxxx |xxxxxxxxxxxxx |xxxxxxxxxxxxx |xxxxxxxxxxxxx |      2532336 |      2532337 |      2532336 |xxxxxxxxxxxxx |xxxxxxxxxxxxx |xxxxxxxxxxxxx |xxxxxxxxxxxxx |      5331031 |      5331032 |      5331033 |xxxxxxxxxxxxx |xxxxxxxxxxxxx |xxxxxxxxxxxxx |xxxxxxxxxxxxx |     12011879 |     12011878 |     12011877 |xxxxxxxxxxxxx |xxxxxxxxxxxxx |xxxxxxxxxxxxx |xxxxxxxxxxxxx |     24292501 |     24292500 |     24292499 |xxxxxxxxxxxxx |xxxxxxxxxxxxx |xxxxxxxxxxxxx |xxxxxxxxxxxxx |     49776771 |     49776772 |     49776771 |xxxxxxxxxxxxx |xxxxxxxxxxxxx |xxxxxxxxxxxxx |xxxxxxxxxxxxx |    106097631 |    106097630 |    106097630 |
bpred_bimod.misses                           21884 |        21886 |        21882 |xxxxxxxxxxxxx |xxxxxxxxxxxxx |xxxxxxxxxxxxx |xxxxxxxxxxxxx |        48566 |        48569 |        48568 |xxxxxxxxxxxxx |xxxxxxxxxxxxx |xxxxxxxxxxxxx |xxxxxxxxxxxxx |       103650 |       103653 |       103651 |xxxxxxxxxxxxx |xxxxxxxxxxxxx |xxxxxxxxxxxxx |xxxxxxxxxxxxx |       218020 |       218019 |       218020 |xxxxxxxxxxxxx |xxxxxxxxxxxxx |xxxxxxxxxxxxx |xxxxxxxxxxxxx |       468413 |       468412 |       468413 |xxxxxxxxxxxxx |xxxxxxxxxxxxx |xxxxxxxxxxxxx |xxxxxxxxxxxxx |       967129 |       967128 |       967129 |xxxxxxxxxxxxx |xxxxxxxxxxxxx |xxxxxxxxxxxxx |xxxxxxxxxxxxx |      2071523 |      2071522 |      2071521 |xxxxxxxxxxxxx |xxxxxxxxxxxxx |xxxxxxxxxxxxx |xxxxxxxxxxxxx |      4243337 |      4243338 |      4243339 |xxxxxxxxxxxxx |xxxxxxxxxxxxx |xxxxxxxxxxxxx |xxxxxxxxxxxxx |      9103376 |      9103377 |      9103378 |xxxxxxxxxxxxx |xxxxxxxxxxxxx |xxxxxxxxxxxxx |xxxxxxxxxxxxx |     19525133 |     19525132 |     19525133 |xxxxxxxxxxxxx |xxxxxxxxxxxxx |xxxxxxxxxxxxx |xxxxxxxxxxxxx |     40469096 |     40469097 |     40469097 |
bpred_bimod.jr_hits                             64 |           64 |           64 |xxxxxxxxxxxxx |xxxxxxxxxxxxx |xxxxxxxxxxxxx |xxxxxxxxxxxxx |           64 |           64 |           64 |xxxxxxxxxxxxx |xxxxxxxxxxxxx |xxxxxxxxxxxxx |xxxxxxxxxxxxx |           64 |           64 |           64 |xxxxxxxxxxxxx |xxxxxxxxxxxxx |xxxxxxxxxxxxx |xxxxxxxxxxxxx |           64 |           64 |           64 |xxxxxxxxxxxxx |xxxxxxxxxxxxx |xxxxxxxxxxxxx |xxxxxxxxxxxxx |           64 |           64 |           64 |xxxxxxxxxxxxx |xxxxxxxxxxxxx |xxxxxxxxxxxxx |xxxxxxxxxxxxx |           64 |           64 |           64 |xxxxxxxxxxxxx |xxxxxxxxxxxxx |xxxxxxxxxxxxx |xxxxxxxxxxxxx |           64 |           64 |           64 |xxxxxxxxxxxxx |xxxxxxxxxxxxx |xxxxxxxxxxxxx |xxxxxxxxxxxxx |           64 |           64 |           64 |xxxxxxxxxxxxx |xxxxxxxxxxxxx |xxxxxxxxxxxxx |xxxxxxxxxxxxx |           64 |           64 |           64 |xxxxxxxxxxxxx |xxxxxxxxxxxxx |xxxxxxxxxxxxx |xxxxxxxxxxxxx |           64 |           64 |           64 |xxxxxxxxxxxxx |xxxxxxxxxxxxx |xxxxxxxxxxxxx |xxxxxxxxxxxxx |           64 |           64 |           64 |
bpred_bimod.jr_seen                             64 |           64 |           64 |xxxxxxxxxxxxx |xxxxxxxxxxxxx |xxxxxxxxxxxxx |xxxxxxxxxxxxx |           64 |           64 |           64 |xxxxxxxxxxxxx |xxxxxxxxxxxxx |xxxxxxxxxxxxx |xxxxxxxxxxxxx |           64 |           64 |           64 |xxxxxxxxxxxxx |xxxxxxxxxxxxx |xxxxxxxxxxxxx |xxxxxxxxxxxxx |           64 |           64 |           64 |xxxxxxxxxxxxx |xxxxxxxxxxxxx |xxxxxxxxxxxxx |xxxxxxxxxxxxx |           64 |           64 |           64 |xxxxxxxxxxxxx |xxxxxxxxxxxxx |xxxxxxxxxxxxx |xxxxxxxxxxxxx |           64 |           64 |           64 |xxxxxxxxxxxxx |xxxxxxxxxxxxx |xxxxxxxxxxxxx |xxxxxxxxxxxxx |           64 |           64 |           64 |xxxxxxxxxxxxx |xxxxxxxxxxxxx |xxxxxxxxxxxxx |xxxxxxxxxxxxx |           64 |           64 |           64 |xxxxxxxxxxxxx |xxxxxxxxxxxxx |xxxxxxxxxxxxx |xxxxxxxxxxxxx |           64 |           64 |           64 |xxxxxxxxxxxxx |xxxxxxxxxxxxx |xxxxxxxxxxxxx |xxxxxxxxxxxxx |           64 |           64 |           64 |xxxxxxxxxxxxx |xxxxxxxxxxxxx |xxxxxxxxxxxxx |xxxxxxxxxxxxx |           64 |           64 |           64 |
bpred_bimod.jr_non_ras_hits.PP                   0 |            0 |            0 |xxxxxxxxxxxxx |xxxxxxxxxxxxx |xxxxxxxxxxxxx |xxxxxxxxxxxxx |            0 |            0 |            0 |xxxxxxxxxxxxx |xxxxxxxxxxxxx |xxxxxxxxxxxxx |xxxxxxxxxxxxx |            0 |            0 |            0 |xxxxxxxxxxxxx |xxxxxxxxxxxxx |xxxxxxxxxxxxx |xxxxxxxxxxxxx |            0 |            0 |            0 |xxxxxxxxxxxxx |xxxxxxxxxxxxx |xxxxxxxxxxxxx |xxxxxxxxxxxxx |            0 |            0 |            0 |xxxxxxxxxxxxx |xxxxxxxxxxxxx |xxxxxxxxxxxxx |xxxxxxxxxxxxx |            0 |            0 |            0 |xxxxxxxxxxxxx |xxxxxxxxxxxxx |xxxxxxxxxxxxx |xxxxxxxxxxxxx |            0 |            0 |            0 |xxxxxxxxxxxxx |xxxxxxxxxxxxx |xxxxxxxxxxxxx |xxxxxxxxxxxxx |            0 |            0 |            0 |xxxxxxxxxxxxx |xxxxxxxxxxxxx |xxxxxxxxxxxxx |xxxxxxxxxxxxx |            0 |            0 |            0 |xxxxxxxxxxxxx |xxxxxxxxxxxxx |xxxxxxxxxxxxx |xxxxxxxxxxxxx |            0 |            0 |            0 |xxxxxxxxxxxxx |xxxxxxxxxxxxx |xxxxxxxxxxxxx |xxxxxxxxxxxxx |            0 |            0 |            0 |
bpred_bimod.jr_non_ras_seen.PP                   0 |            0 |            0 |xxxxxxxxxxxxx |xxxxxxxxxxxxx |xxxxxxxxxxxxx |xxxxxxxxxxxxx |            0 |            0 |            0 |xxxxxxxxxxxxx |xxxxxxxxxxxxx |xxxxxxxxxxxxx |xxxxxxxxxxxxx |            0 |            0 |            0 |xxxxxxxxxxxxx |xxxxxxxxxxxxx |xxxxxxxxxxxxx |xxxxxxxxxxxxx |            0 |            0 |            0 |xxxxxxxxxxxxx |xxxxxxxxxxxxx |xxxxxxxxxxxxx |xxxxxxxxxxxxx |            0 |            0 |            0 |xxxxxxxxxxxxx |xxxxxxxxxxxxx |xxxxxxxxxxxxx |xxxxxxxxxxxxx |            0 |            0 |            0 |xxxxxxxxxxxxx |xxxxxxxxxxxxx |xxxxxxxxxxxxx |xxxxxxxxxxxxx |            0 |            0 |            0 |xxxxxxxxxxxxx |xxxxxxxxxxxxx |xxxxxxxxxxxxx |xxxxxxxxxxxxx |            0 |            0 |            0 |xxxxxxxxxxxxx |xxxxxxxxxxxxx |xxxxxxxxxxxxx |xxxxxxxxxxxxx |            0 |            0 |            0 |xxxxxxxxxxxxx |xxxxxxxxxxxxx |xxxxxxxxxxxxx |xxxxxxxxxxxxx |            0 |            0 |            0 |xxxxxxxxxxxxx |xxxxxxxxxxxxx |xxxxxxxxxxxxx |xxxxxxxxxxxxx |            0 |            0 |            0 |
bpred_bimod.bpred_addr_rate                 0.7118 |       0.7119 |       0.7119 |xxxxxxxxxxxxx |xxxxxxxxxxxxx |xxxxxxxxxxxxx |xxxxxxxxxxxxx |       0.7011 |       0.7011 |       0.7011 |xxxxxxxxxxxxx |xxxxxxxxxxxxx |xxxxxxxxxxxxx |xxxxxxxxxxxxx |       0.7043 |       0.7043 |       0.7043 |xxxxxxxxxxxxx |xxxxxxxxxxxxx |xxxxxxxxxxxxx |xxxxxxxxxxxxx |       0.7146 |       0.7146 |       0.7146 |xxxxxxxxxxxxx |xxxxxxxxxxxxx |xxxxxxxxxxxxx |xxxxxxxxxxxxx |       0.7146 |       0.7146 |       0.7146 |xxxxxxxxxxxxx |xxxxxxxxxxxxx |xxxxxxxxxxxxx |xxxxxxxxxxxxx |       0.7236 |       0.7236 |       0.7236 |xxxxxxxxxxxxx |xxxxxxxxxxxxx |xxxxxxxxxxxxx |xxxxxxxxxxxxx |       0.7201 |       0.7201 |       0.7201 |xxxxxxxxxxxxx |xxxxxxxxxxxxx |xxxxxxxxxxxxx |xxxxxxxxxxxxx |       0.7389 |       0.7389 |       0.7389 |xxxxxxxxxxxxx |xxxxxxxxxxxxx |xxxxxxxxxxxxx |xxxxxxxxxxxxx |       0.7274 |       0.7274 |       0.7274 |xxxxxxxxxxxxx |xxxxxxxxxxxxx |xxxxxxxxxxxxx |xxxxxxxxxxxxx |       0.7183 |       0.7183 |       0.7183 |xxxxxxxxxxxxx |xxxxxxxxxxxxx |xxxxxxxxxxxxx |xxxxxxxxxxxxx |       0.7239 |       0.7239 |       0.7239 |
bpred_bimod.bpred_dir_rate                  0.7133 |       0.7132 |       0.7133 |xxxxxxxxxxxxx |xxxxxxxxxxxxx |xxxxxxxxxxxxx |xxxxxxxxxxxxx |       0.7018 |       0.7018 |       0.7018 |xxxxxxxxxxxxx |xxxxxxxxxxxxx |xxxxxxxxxxxxx |xxxxxxxxxxxxx |       0.7046 |       0.7046 |       0.7046 |xxxxxxxxxxxxx |xxxxxxxxxxxxx |xxxxxxxxxxxxx |xxxxxxxxxxxxx |       0.7147 |       0.7147 |       0.7147 |xxxxxxxxxxxxx |xxxxxxxxxxxxx |xxxxxxxxxxxxx |xxxxxxxxxxxxx |       0.7147 |       0.7147 |       0.7147 |xxxxxxxxxxxxx |xxxxxxxxxxxxx |xxxxxxxxxxxxx |xxxxxxxxxxxxx |       0.7236 |       0.7236 |       0.7236 |xxxxxxxxxxxxx |xxxxxxxxxxxxx |xxxxxxxxxxxxx |xxxxxxxxxxxxx |       0.7202 |       0.7202 |       0.7202 |xxxxxxxxxxxxx |xxxxxxxxxxxxx |xxxxxxxxxxxxx |xxxxxxxxxxxxx |       0.7390 |       0.7390 |       0.7390 |xxxxxxxxxxxxx |xxxxxxxxxxxxx |xxxxxxxxxxxxx |xxxxxxxxxxxxx |       0.7274 |       0.7274 |       0.7274 |xxxxxxxxxxxxx |xxxxxxxxxxxxx |xxxxxxxxxxxxx |xxxxxxxxxxxxx |       0.7183 |       0.7183 |       0.7183 |xxxxxxxxxxxxx |xxxxxxxxxxxxx |xxxxxxxxxxxxx |xxxxxxxxxxxxx |       0.7239 |       0.7239 |       0.7239 |
bpred_bimod.bpred_jr_rate                   1.0000 |       1.0000 |       1.0000 |xxxxxxxxxxxxx |xxxxxxxxxxxxx |xxxxxxxxxxxxx |xxxxxxxxxxxxx |       1.0000 |       1.0000 |       1.0000 |xxxxxxxxxxxxx |xxxxxxxxxxxxx |xxxxxxxxxxxxx |xxxxxxxxxxxxx |       1.0000 |       1.0000 |       1.0000 |xxxxxxxxxxxxx |xxxxxxxxxxxxx |xxxxxxxxxxxxx |xxxxxxxxxxxxx |       1.0000 |       1.0000 |       1.0000 |xxxxxxxxxxxxx |xxxxxxxxxxxxx |xxxxxxxxxxxxx |xxxxxxxxxxxxx |       1.0000 |       1.0000 |       1.0000 |xxxxxxxxxxxxx |xxxxxxxxxxxxx |xxxxxxxxxxxxx |xxxxxxxxxxxxx |       1.0000 |       1.0000 |       1.0000 |xxxxxxxxxxxxx |xxxxxxxxxxxxx |xxxxxxxxxxxxx |xxxxxxxxxxxxx |       1.0000 |       1.0000 |       1.0000 |xxxxxxxxxxxxx |xxxxxxxxxxxxx |xxxxxxxxxxxxx |xxxxxxxxxxxxx |       1.0000 |       1.0000 |       1.0000 |xxxxxxxxxxxxx |xxxxxxxxxxxxx |xxxxxxxxxxxxx |xxxxxxxxxxxxx |       1.0000 |       1.0000 |       1.0000 |xxxxxxxxxxxxx |xxxxxxxxxxxxx |xxxxxxxxxxxxx |xxxxxxxxxxxxx |       1.0000 |       1.0000 |       1.0000 |xxxxxxxxxxxxx |xxxxxxxxxxxxx |xxxxxxxxxxxxx |xxxxxxxxxxxxx |       1.0000 |       1.0000 |       1.0000 |
bpred_bimod.bpred_jr_non_ras_rate.PP       <error: |      <error: |      <error: |xxxxxxxxxxxxx |xxxxxxxxxxxxx |xxxxxxxxxxxxx |xxxxxxxxxxxxx |      <error: |      <error: |      <error: |xxxxxxxxxxxxx |xxxxxxxxxxxxx |xxxxxxxxxxxxx |xxxxxxxxxxxxx |      <error: |      <error: |      <error: |xxxxxxxxxxxxx |xxxxxxxxxxxxx |xxxxxxxxxxxxx |xxxxxxxxxxxxx |      <error: |      <error: |      <error: |xxxxxxxxxxxxx |xxxxxxxxxxxxx |xxxxxxxxxxxxx |xxxxxxxxxxxxx |      <error: |      <error: |      <error: |xxxxxxxxxxxxx |xxxxxxxxxxxxx |xxxxxxxxxxxxx |xxxxxxxxxxxxx |      <error: |      <error: |      <error: |xxxxxxxxxxxxx |xxxxxxxxxxxxx |xxxxxxxxxxxxx |xxxxxxxxxxxxx |      <error: |      <error: |      <error: |xxxxxxxxxxxxx |xxxxxxxxxxxxx |xxxxxxxxxxxxx |xxxxxxxxxxxxx |      <error: |      <error: |      <error: |xxxxxxxxxxxxx |xxxxxxxxxxxxx |xxxxxxxxxxxxx |xxxxxxxxxxxxx |      <error: |      <error: |      <error: |xxxxxxxxxxxxx |xxxxxxxxxxxxx |xxxxxxxxxxxxx |xxxxxxxxxxxxx |      <error: |      <error: |      <error: |xxxxxxxxxxxxx |xxxxxxxxxxxxx |xxxxxxxxxxxxx |xxxxxxxxxxxxx |      <error: |      <error: |      <error: |
bpred_bimod.retstack_pushes                     66 |           66 |           66 |xxxxxxxxxxxxx |xxxxxxxxxxxxx |xxxxxxxxxxxxx |xxxxxxxxxxxxx |           66 |           66 |           66 |xxxxxxxxxxxxx |xxxxxxxxxxxxx |xxxxxxxxxxxxx |xxxxxxxxxxxxx |           66 |           66 |           66 |xxxxxxxxxxxxx |xxxxxxxxxxxxx |xxxxxxxxxxxxx |xxxxxxxxxxxxx |           66 |           66 |           66 |xxxxxxxxxxxxx |xxxxxxxxxxxxx |xxxxxxxxxxxxx |xxxxxxxxxxxxx |           66 |           66 |           66 |xxxxxxxxxxxxx |xxxxxxxxxxxxx |xxxxxxxxxxxxx |xxxxxxxxxxxxx |           66 |           66 |           66 |xxxxxxxxxxxxx |xxxxxxxxxxxxx |xxxxxxxxxxxxx |xxxxxxxxxxxxx |           66 |           66 |           66 |xxxxxxxxxxxxx |xxxxxxxxxxxxx |xxxxxxxxxxxxx |xxxxxxxxxxxxx |           66 |           66 |           66 |xxxxxxxxxxxxx |xxxxxxxxxxxxx |xxxxxxxxxxxxx |xxxxxxxxxxxxx |           66 |           66 |           66 |xxxxxxxxxxxxx |xxxxxxxxxxxxx |xxxxxxxxxxxxx |xxxxxxxxxxxxx |           66 |           66 |           66 |xxxxxxxxxxxxx |xxxxxxxxxxxxx |xxxxxxxxxxxxx |xxxxxxxxxxxxx |           66 |           66 |           66 |
bpred_bimod.retstack_pops                       64 |           64 |           64 |xxxxxxxxxxxxx |xxxxxxxxxxxxx |xxxxxxxxxxxxx |xxxxxxxxxxxxx |           64 |           64 |           64 |xxxxxxxxxxxxx |xxxxxxxxxxxxx |xxxxxxxxxxxxx |xxxxxxxxxxxxx |           64 |           64 |           64 |xxxxxxxxxxxxx |xxxxxxxxxxxxx |xxxxxxxxxxxxx |xxxxxxxxxxxxx |           64 |           64 |           64 |xxxxxxxxxxxxx |xxxxxxxxxxxxx |xxxxxxxxxxxxx |xxxxxxxxxxxxx |           64 |           64 |           64 |xxxxxxxxxxxxx |xxxxxxxxxxxxx |xxxxxxxxxxxxx |xxxxxxxxxxxxx |           64 |           64 |           64 |xxxxxxxxxxxxx |xxxxxxxxxxxxx |xxxxxxxxxxxxx |xxxxxxxxxxxxx |           64 |           64 |           64 |xxxxxxxxxxxxx |xxxxxxxxxxxxx |xxxxxxxxxxxxx |xxxxxxxxxxxxx |           64 |           64 |           64 |xxxxxxxxxxxxx |xxxxxxxxxxxxx |xxxxxxxxxxxxx |xxxxxxxxxxxxx |           64 |           64 |           64 |xxxxxxxxxxxxx |xxxxxxxxxxxxx |xxxxxxxxxxxxx |xxxxxxxxxxxxx |           64 |           64 |           64 |xxxxxxxxxxxxx |xxxxxxxxxxxxx |xxxxxxxxxxxxx |xxxxxxxxxxxxx |           64 |           64 |           64 |
bpred_bimod.used_ras.PP                         64 |           64 |           64 |xxxxxxxxxxxxx |xxxxxxxxxxxxx |xxxxxxxxxxxxx |xxxxxxxxxxxxx |           64 |           64 |           64 |xxxxxxxxxxxxx |xxxxxxxxxxxxx |xxxxxxxxxxxxx |xxxxxxxxxxxxx |           64 |           64 |           64 |xxxxxxxxxxxxx |xxxxxxxxxxxxx |xxxxxxxxxxxxx |xxxxxxxxxxxxx |           64 |           64 |           64 |xxxxxxxxxxxxx |xxxxxxxxxxxxx |xxxxxxxxxxxxx |xxxxxxxxxxxxx |           64 |           64 |           64 |xxxxxxxxxxxxx |xxxxxxxxxxxxx |xxxxxxxxxxxxx |xxxxxxxxxxxxx |           64 |           64 |           64 |xxxxxxxxxxxxx |xxxxxxxxxxxxx |xxxxxxxxxxxxx |xxxxxxxxxxxxx |           64 |           64 |           64 |xxxxxxxxxxxxx |xxxxxxxxxxxxx |xxxxxxxxxxxxx |xxxxxxxxxxxxx |           64 |           64 |           64 |xxxxxxxxxxxxx |xxxxxxxxxxxxx |xxxxxxxxxxxxx |xxxxxxxxxxxxx |           64 |           64 |           64 |xxxxxxxxxxxxx |xxxxxxxxxxxxx |xxxxxxxxxxxxx |xxxxxxxxxxxxx |           64 |           64 |           64 |xxxxxxxxxxxxx |xxxxxxxxxxxxx |xxxxxxxxxxxxx |xxxxxxxxxxxxx |           64 |           64 |           64 |
bpred_bimod.ras_hits.PP                         64 |           64 |           64 |xxxxxxxxxxxxx |xxxxxxxxxxxxx |xxxxxxxxxxxxx |xxxxxxxxxxxxx |           64 |           64 |           64 |xxxxxxxxxxxxx |xxxxxxxxxxxxx |xxxxxxxxxxxxx |xxxxxxxxxxxxx |           64 |           64 |           64 |xxxxxxxxxxxxx |xxxxxxxxxxxxx |xxxxxxxxxxxxx |xxxxxxxxxxxxx |           64 |           64 |           64 |xxxxxxxxxxxxx |xxxxxxxxxxxxx |xxxxxxxxxxxxx |xxxxxxxxxxxxx |           64 |           64 |           64 |xxxxxxxxxxxxx |xxxxxxxxxxxxx |xxxxxxxxxxxxx |xxxxxxxxxxxxx |           64 |           64 |           64 |xxxxxxxxxxxxx |xxxxxxxxxxxxx |xxxxxxxxxxxxx |xxxxxxxxxxxxx |           64 |           64 |           64 |xxxxxxxxxxxxx |xxxxxxxxxxxxx |xxxxxxxxxxxxx |xxxxxxxxxxxxx |           64 |           64 |           64 |xxxxxxxxxxxxx |xxxxxxxxxxxxx |xxxxxxxxxxxxx |xxxxxxxxxxxxx |           64 |           64 |           64 |xxxxxxxxxxxxx |xxxxxxxxxxxxx |xxxxxxxxxxxxx |xxxxxxxxxxxxx |           64 |           64 |           64 |xxxxxxxxxxxxx |xxxxxxxxxxxxx |xxxxxxxxxxxxx |xxxxxxxxxxxxx |           64 |           64 |           64 |
bpred_bimod.ras_rate.PP                     1.0000 |       1.0000 |       1.0000 |xxxxxxxxxxxxx |xxxxxxxxxxxxx |xxxxxxxxxxxxx |xxxxxxxxxxxxx |       1.0000 |       1.0000 |       1.0000 |xxxxxxxxxxxxx |xxxxxxxxxxxxx |xxxxxxxxxxxxx |xxxxxxxxxxxxx |       1.0000 |       1.0000 |       1.0000 |xxxxxxxxxxxxx |xxxxxxxxxxxxx |xxxxxxxxxxxxx |xxxxxxxxxxxxx |       1.0000 |       1.0000 |       1.0000 |xxxxxxxxxxxxx |xxxxxxxxxxxxx |xxxxxxxxxxxxx |xxxxxxxxxxxxx |       1.0000 |       1.0000 |       1.0000 |xxxxxxxxxxxxx |xxxxxxxxxxxxx |xxxxxxxxxxxxx |xxxxxxxxxxxxx |       1.0000 |       1.0000 |       1.0000 |xxxxxxxxxxxxx |xxxxxxxxxxxxx |xxxxxxxxxxxxx |xxxxxxxxxxxxx |       1.0000 |       1.0000 |       1.0000 |xxxxxxxxxxxxx |xxxxxxxxxxxxx |xxxxxxxxxxxxx |xxxxxxxxxxxxx |       1.0000 |       1.0000 |       1.0000 |xxxxxxxxxxxxx |xxxxxxxxxxxxx |xxxxxxxxxxxxx |xxxxxxxxxxxxx |       1.0000 |       1.0000 |       1.0000 |xxxxxxxxxxxxx |xxxxxxxxxxxxx |xxxxxxxxxxxxx |xxxxxxxxxxxxx |       1.0000 |       1.0000 |       1.0000 |xxxxxxxxxxxxx |xxxxxxxxxxxxx |xxxxxxxxxxxxx |xxxxxxxxxxxxx |       1.0000 |       1.0000 |       1.0000 |
bpred_2lev.lookups                   xxxxxxxxxxxxx |xxxxxxxxxxxxx |xxxxxxxxxxxxx |        76320 |        76320 |        76320 |        76320 |xxxxxxxxxxxxx |xxxxxxxxxxxxx |xxxxxxxxxxxxx |       162857 |       162857 |       162857 |       162857 |xxxxxxxxxxxxx |xxxxxxxxxxxxx |xxxxxxxxxxxxx |       350846 |       350846 |       350846 |       350846 |xxxxxxxxxxxxx |xxxxxxxxxxxxx |xxxxxxxxxxxxx |       764295 |       764295 |       764295 |       764295 |xxxxxxxxxxxxx |xxxxxxxxxxxxx |xxxxxxxxxxxxx |      1641775 |      1641775 |      1641775 |      1641775 |xxxxxxxxxxxxx |xxxxxxxxxxxxx |xxxxxxxxxxxxx |      3499465 |      3499465 |      3499465 |      3499465 |xxxxxxxxxxxxx |xxxxxxxxxxxxx |xxxxxxxxxxxxx |      7402554 |      7402554 |      7402554 |      7402554 |xxxxxxxxxxxxx |xxxxxxxxxxxxx |xxxxxxxxxxxxx |     16255216 |     16255216 |     16255216 |     16255216 |xxxxxxxxxxxxx |xxxxxxxxxxxxx |xxxxxxxxxxxxx |     33395877 |     33395877 |     33395877 |     33395877 |xxxxxxxxxxxxx |xxxxxxxxxxxxx |xxxxxxxxxxxxx |     69301904 |     69301904 |     69301904 |     69301904 |xxxxxxxxxxxxx |xxxxxxxxxxxxx |xxxxxxxxxxxxx |    146566727 |    146566727 |    146566727 |    146566727 |
[...]
bpred_2lev.retstack_pushes           xxxxxxxxxxxxx |xxxxxxxxxxxxx |xxxxxxxxxxxxx |           66 |           66 |           66 |           66 |xxxxxxxxxxxxx |xxxxxxxxxxxxx |xxxxxxxxxxxxx |           66 |           66 |           66 |           66 |xxxxxxxxxxxxx |xxxxxxxxxxxxx |xxxxxxxxxxxxx |           66 |           66 |           66 |           66 |xxxxxxxxxxxxx |xxxxxxxxxxxxx |xxxxxxxxxxxxx |           66 |           66 |           66 |           66 |xxxxxxxxxxxxx |xxxxxxxxxxxxx |xxxxxxxxxxxxx |           66 |           66 |           66 |           66 |xxxxxxxxxxxxx |xxxxxxxxxxxxx |xxxxxxxxxxxxx |           66 |           66 |           66 |           66 |xxxxxxxxxxxxx |xxxxxxxxxxxxx |xxxxxxxxxxxxx |           66 |           66 |           66 |           66 |xxxxxxxxxxxxx |xxxxxxxxxxxxx |xxxxxxxxxxxxx |           66 |           66 |           66 |           66 |xxxxxxxxxxxxx |xxxxxxxxxxxxx |xxxxxxxxxxxxx |           66 |           66 |           66 |           66 |xxxxxxxxxxxxx |xxxxxxxxxxxxx |xxxxxxxxxxxxx |           66 |           66 |           66 |           66 |xxxxxxxxxxxxx |xxxxxxxxxxxxx |xxxxxxxxxxxxx |           66 |           66 |           66 |           66 |
bpred_2lev.retstack_pops             xxxxxxxxxxxxx |xxxxxxxxxxxxx |xxxxxxxxxxxxx |           64 |           64 |           64 |           64 |xxxxxxxxxxxxx |xxxxxxxxxxxxx |xxxxxxxxxxxxx |           64 |           64 |           64 |           64 |xxxxxxxxxxxxx |xxxxxxxxxxxxx |xxxxxxxxxxxxx |           64 |           64 |           64 |           64 |xxxxxxxxxxxxx |xxxxxxxxxxxxx |xxxxxxxxxxxxx |           64 |           64 |           64 |           64 |xxxxxxxxxxxxx |xxxxxxxxxxxxx |xxxxxxxxxxxxx |           64 |           64 |           64 |           64 |xxxxxxxxxxxxx |xxxxxxxxxxxxx |xxxxxxxxxxxxx |           64 |           64 |           64 |           64 |xxxxxxxxxxxxx |xxxxxxxxxxxxx |xxxxxxxxxxxxx |           64 |           64 |           64 |           64 |xxxxxxxxxxxxx |xxxxxxxxxxxxx |xxxxxxxxxxxxx |           64 |           64 |           64 |           64 |xxxxxxxxxxxxx |xxxxxxxxxxxxx |xxxxxxxxxxxxx |           64 |           64 |           64 |           64 |xxxxxxxxxxxxx |xxxxxxxxxxxxx |xxxxxxxxxxxxx |           64 |           64 |           64 |           64 |xxxxxxxxxxxxx |xxxxxxxxxxxxx |xxxxxxxxxxxxx |           64 |           64 |           64 |           64 |
bpred_2lev.used_ras.PP               xxxxxxxxxxxxx |xxxxxxxxxxxxx |xxxxxxxxxxxxx |           64 |           64 |           64 |           64 |xxxxxxxxxxxxx |xxxxxxxxxxxxx |xxxxxxxxxxxxx |           64 |           64 |           64 |           64 |xxxxxxxxxxxxx |xxxxxxxxxxxxx |xxxxxxxxxxxxx |           64 |           64 |           64 |           64 |xxxxxxxxxxxxx |xxxxxxxxxxxxx |xxxxxxxxxxxxx |           64 |           64 |           64 |           64 |xxxxxxxxxxxxx |xxxxxxxxxxxxx |xxxxxxxxxxxxx |           64 |           64 |           64 |           64 |xxxxxxxxxxxxx |xxxxxxxxxxxxx |xxxxxxxxxxxxx |           64 |           64 |           64 |           64 |xxxxxxxxxxxxx |xxxxxxxxxxxxx |xxxxxxxxxxxxx |           64 |           64 |           64 |           64 |xxxxxxxxxxxxx |xxxxxxxxxxxxx |xxxxxxxxxxxxx |           64 |           64 |           64 |           64 |xxxxxxxxxxxxx |xxxxxxxxxxxxx |xxxxxxxxxxxxx |           64 |           64 |           64 |           64 |xxxxxxxxxxxxx |xxxxxxxxxxxxx |xxxxxxxxxxxxx |           64 |           64 |           64 |           64 |xxxxxxxxxxxxx |xxxxxxxxxxxxx |xxxxxxxxxxxxx |           64 |           64 |           64 |           64 |
bpred_2lev.ras_hits.PP               xxxxxxxxxxxxx |xxxxxxxxxxxxx |xxxxxxxxxxxxx |           64 |           64 |           64 |           64 |xxxxxxxxxxxxx |xxxxxxxxxxxxx |xxxxxxxxxxxxx |           64 |           64 |           64 |           64 |xxxxxxxxxxxxx |xxxxxxxxxxxxx |xxxxxxxxxxxxx |           64 |           64 |           64 |           64 |xxxxxxxxxxxxx |xxxxxxxxxxxxx |xxxxxxxxxxxxx |           64 |           64 |           64 |           64 |xxxxxxxxxxxxx |xxxxxxxxxxxxx |xxxxxxxxxxxxx |           64 |           64 |           64 |           64 |xxxxxxxxxxxxx |xxxxxxxxxxxxx |xxxxxxxxxxxxx |           64 |           64 |           64 |           64 |xxxxxxxxxxxxx |xxxxxxxxxxxxx |xxxxxxxxxxxxx |           64 |           64 |           64 |           64 |xxxxxxxxxxxxx |xxxxxxxxxxxxx |xxxxxxxxxxxxx |           64 |           64 |           64 |           64 |xxxxxxxxxxxxx |xxxxxxxxxxxxx |xxxxxxxxxxxxx |           64 |           64 |           64 |           64 |xxxxxxxxxxxxx |xxxxxxxxxxxxx |xxxxxxxxxxxxx |           64 |           64 |           64 |           64 |xxxxxxxxxxxxx |xxxxxxxxxxxxx |xxxxxxxxxxxxx |           64 |           64 |           64 |           64 |
bpred_2lev.ras_rate.PP               xxxxxxxxxxxxx |xxxxxxxxxxxxx |xxxxxxxxxxxxx |       1.0000 |       1.0000 |       1.0000 |       1.0000 |xxxxxxxxxxxxx |xxxxxxxxxxxxx |xxxxxxxxxxxxx |       1.0000 |       1.0000 |       1.0000 |       1.0000 |xxxxxxxxxxxxx |xxxxxxxxxxxxx |xxxxxxxxxxxxx |       1.0000 |       1.0000 |       1.0000 |       1.0000 |xxxxxxxxxxxxx |xxxxxxxxxxxxx |xxxxxxxxxxxxx |       1.0000 |       1.0000 |       1.0000 |       1.0000 |xxxxxxxxxxxxx |xxxxxxxxxxxxx |xxxxxxxxxxxxx |       1.0000 |       1.0000 |       1.0000 |       1.0000 |xxxxxxxxxxxxx |xxxxxxxxxxxxx |xxxxxxxxxxxxx |       1.0000 |       1.0000 |       1.0000 |       1.0000 |xxxxxxxxxxxxx |xxxxxxxxxxxxx |xxxxxxxxxxxxx |       1.0000 |       1.0000 |       1.0000 |       1.0000 |xxxxxxxxxxxxx |xxxxxxxxxxxxx |xxxxxxxxxxxxx |       1.0000 |       1.0000 |       1.0000 |       1.0000 |xxxxxxxxxxxxx |xxxxxxxxxxxxx |xxxxxxxxxxxxx |       1.0000 |       1.0000 |       1.0000 |       1.0000 |xxxxxxxxxxxxx |xxxxxxxxxxxxx |xxxxxxxxxxxxx |       1.0000 |       1.0000 |       1.0000 |       1.0000 |xxxxxxxxxxxxx |xxxxxxxxxxxxx |xxxxxxxxxxxxx |       1.0000 |       1.0000 |       1.0000 |       1.0000 |

Command list: 
	sslittle-na-sstrix-gcc -Wall -O3 -funroll-loops -finline-functions  -DRANDOM_SIZE=4096 -DOFFSET=9 -DSORT=base_quicksort sorts/base_quicksort96072870.c simpleMain.c -o base_quicksort1547709391
	sim-cache -cache:dl1 dl1:256:32:1:l -cache:dl2 dl2:131072:32:1:l -cache:il1 il1:256:32:1:l -cache:il2 dl2 base_quicksort1547709391
	sim-cache -cache:dl1 dl1:256:32:1:l -cache:dl2 dl2:65536:32:1:l -cache:il1 il1:256:32:1:l -cache:il2 dl2 base_quicksort1547709391
	sim-cache -cache:dl1 dl1:1:32:256:l -cache:dl2 dl2:1:32:131072:l -cache:il1 il1:1:32:256:l -cache:il2 dl2 base_quicksort1547709391
	sim-cache -cache:dl1 dl1:1:32:256:l -cache:dl2 dl2:1:32:65536:l -cache:il1 il1:1:32:256:l -cache:il2 dl2 base_quicksort1547709391
	sim-bpred -bpred bimod -bpred:bimod 512 base_quicksort1547709391
	sim-bpred -bpred bimod -bpred:bimod 1024 base_quicksort1547709391
	sim-bpred -bpred bimod -bpred:bimod 2048 base_quicksort1547709391
	sim-bpred -bpred 2lev -bpred:2lev 1 512 10 1 base_quicksort1547709391
	sim-bpred -bpred 2lev -bpred:2lev 1 1024 10 1 base_quicksort1547709391
	sim-bpred -bpred 2lev -bpred:2lev 1 2048 10 1 base_quicksort1547709391
	sim-bpred -bpred 2lev -bpred:2lev 1 4096 10 1 base_quicksort1547709391
	sslittle-na-sstrix-gcc -Wall -O3 -funroll-loops -finline-functions  -DRANDOM_SIZE=8192 -DOFFSET=9 -DSORT=base_quicksort sorts/base_quicksort96072870.c simpleMain.c -o base_quicksort1547709391
	sim-cache -cache:dl1 dl1:256:32:1:l -cache:dl2 dl2:131072:32:1:l -cache:il1 il1:256:32:1:l -cache:il2 dl2 base_quicksort1547709391
	sim-cache -cache:dl1 dl1:256:32:1:l -cache:dl2 dl2:65536:32:1:l -cache:il1 il1:256:32:1:l -cache:il2 dl2 base_quicksort1547709391
	sim-cache -cache:dl1 dl1:1:32:256:l -cache:dl2 dl2:1:32:131072:l -cache:il1 il1:1:32:256:l -cache:il2 dl2 base_quicksort1547709391
	sim-cache -cache:dl1 dl1:1:32:256:l -cache:dl2 dl2:1:32:65536:l -cache:il1 il1:1:32:256:l -cache:il2 dl2 base_quicksort1547709391
	sim-bpred -bpred bimod -bpred:bimod 512 base_quicksort1547709391
	sim-bpred -bpred bimod -bpred:bimod 1024 base_quicksort1547709391
	sim-bpred -bpred bimod -bpred:bimod 2048 base_quicksort1547709391
	sim-bpred -bpred 2lev -bpred:2lev 1 512 10 1 base_quicksort1547709391
	sim-bpred -bpred 2lev -bpred:2lev 1 1024 10 1 base_quicksort1547709391
	sim-bpred -bpred 2lev -bpred:2lev 1 2048 10 1 base_quicksort1547709391
	sim-bpred -bpred 2lev -bpred:2lev 1 4096 10 1 base_quicksort1547709391
	sslittle-na-sstrix-gcc -Wall -O3 -funroll-loops -finline-functions  -DRANDOM_SIZE=16384 -DOFFSET=9 -DSORT=base_quicksort sorts/base_quicksort96072870.c simpleMain.c -o base_quicksort1547709391
	sim-cache -cache:dl1 dl1:256:32:1:l -cache:dl2 dl2:131072:32:1:l -cache:il1 il1:256:32:1:l -cache:il2 dl2 base_quicksort1547709391
	sim-cache -cache:dl1 dl1:256:32:1:l -cache:dl2 dl2:65536:32:1:l -cache:il1 il1:256:32:1:l -cache:il2 dl2 base_quicksort1547709391
	sim-cache -cache:dl1 dl1:1:32:256:l -cache:dl2 dl2:1:32:131072:l -cache:il1 il1:1:32:256:l -cache:il2 dl2 base_quicksort1547709391
	sim-cache -cache:dl1 dl1:1:32:256:l -cache:dl2 dl2:1:32:65536:l -cache:il1 il1:1:32:256:l -cache:il2 dl2 base_quicksort1547709391
	sim-bpred -bpred bimod -bpred:bimod 512 base_quicksort1547709391
	sim-bpred -bpred bimod -bpred:bimod 1024 base_quicksort1547709391
	sim-bpred -bpred bimod -bpred:bimod 2048 base_quicksort1547709391
	sim-bpred -bpred 2lev -bpred:2lev 1 512 10 1 base_quicksort1547709391
	sim-bpred -bpred 2lev -bpred:2lev 1 1024 10 1 base_quicksort1547709391
	sim-bpred -bpred 2lev -bpred:2lev 1 2048 10 1 base_quicksort1547709391
	sim-bpred -bpred 2lev -bpred:2lev 1 4096 10 1 base_quicksort1547709391
	sslittle-na-sstrix-gcc -Wall -O3 -funroll-loops -finline-functions  -DRANDOM_SIZE=32768 -DOFFSET=9 -DSORT=base_quicksort sorts/base_quicksort96072870.c simpleMain.c -o base_quicksort1547709391
	sim-cache -cache:dl1 dl1:256:32:1:l -cache:dl2 dl2:131072:32:1:l -cache:il1 il1:256:32:1:l -cache:il2 dl2 base_quicksort1547709391
	sim-cache -cache:dl1 dl1:256:32:1:l -cache:dl2 dl2:65536:32:1:l -cache:il1 il1:256:32:1:l -cache:il2 dl2 base_quicksort1547709391
	sim-cache -cache:dl1 dl1:1:32:256:l -cache:dl2 dl2:1:32:131072:l -cache:il1 il1:1:32:256:l -cache:il2 dl2 base_quicksort1547709391
	sim-cache -cache:dl1 dl1:1:32:256:l -cache:dl2 dl2:1:32:65536:l -cache:il1 il1:1:32:256:l -cache:il2 dl2 base_quicksort1547709391
	sim-bpred -bpred bimod -bpred:bimod 512 base_quicksort1547709391
	sim-bpred -bpred bimod -bpred:bimod 1024 base_quicksort1547709391
	sim-bpred -bpred bimod -bpred:bimod 2048 base_quicksort1547709391
	sim-bpred -bpred 2lev -bpred:2lev 1 512 10 1 base_quicksort1547709391
	sim-bpred -bpred 2lev -bpred:2lev 1 1024 10 1 base_quicksort1547709391
	sim-bpred -bpred 2lev -bpred:2lev 1 2048 10 1 base_quicksort1547709391
	sim-bpred -bpred 2lev -bpred:2lev 1 4096 10 1 base_quicksort1547709391
	sslittle-na-sstrix-gcc -Wall -O3 -funroll-loops -finline-functions  -DRANDOM_SIZE=65536 -DOFFSET=9 -DSORT=base_quicksort sorts/base_quicksort96072870.c simpleMain.c -o base_quicksort1547709391
	sim-cache -cache:dl1 dl1:256:32:1:l -cache:dl2 dl2:131072:32:1:l -cache:il1 il1:256:32:1:l -cache:il2 dl2 base_quicksort1547709391
	sim-cache -cache:dl1 dl1:256:32:1:l -cache:dl2 dl2:65536:32:1:l -cache:il1 il1:256:32:1:l -cache:il2 dl2 base_quicksort1547709391
	sim-cache -cache:dl1 dl1:1:32:256:l -cache:dl2 dl2:1:32:131072:l -cache:il1 il1:1:32:256:l -cache:il2 dl2 base_quicksort1547709391
	sim-cache -cache:dl1 dl1:1:32:256:l -cache:dl2 dl2:1:32:65536:l -cache:il1 il1:1:32:256:l -cache:il2 dl2 base_quicksort1547709391
	sim-bpred -bpred bimod -bpred:bimod 512 base_quicksort1547709391
	sim-bpred -bpred bimod -bpred:bimod 1024 base_quicksort1547709391
	sim-bpred -bpred bimod -bpred:bimod 2048 base_quicksort1547709391
	sim-bpred -bpred 2lev -bpred:2lev 1 512 10 1 base_quicksort1547709391
	sim-bpred -bpred 2lev -bpred:2lev 1 1024 10 1 base_quicksort1547709391
	sim-bpred -bpred 2lev -bpred:2lev 1 2048 10 1 base_quicksort1547709391
	sim-bpred -bpred 2lev -bpred:2lev 1 4096 10 1 base_quicksort1547709391
	sslittle-na-sstrix-gcc -Wall -O3 -funroll-loops -finline-functions  -DRANDOM_SIZE=131072 -DOFFSET=9 -DSORT=base_quicksort sorts/base_quicksort96072870.c simpleMain.c -o base_quicksort1547709391
	sim-cache -cache:dl1 dl1:256:32:1:l -cache:dl2 dl2:131072:32:1:l -cache:il1 il1:256:32:1:l -cache:il2 dl2 base_quicksort1547709391
	sim-cache -cache:dl1 dl1:256:32:1:l -cache:dl2 dl2:65536:32:1:l -cache:il1 il1:256:32:1:l -cache:il2 dl2 base_quicksort1547709391
	sim-cache -cache:dl1 dl1:1:32:256:l -cache:dl2 dl2:1:32:131072:l -cache:il1 il1:1:32:256:l -cache:il2 dl2 base_quicksort1547709391
	sim-cache -cache:dl1 dl1:1:32:256:l -cache:dl2 dl2:1:32:65536:l -cache:il1 il1:1:32:256:l -cache:il2 dl2 base_quicksort1547709391
	sim-bpred -bpred bimod -bpred:bimod 512 base_quicksort1547709391
	sim-bpred -bpred bimod -bpred:bimod 1024 base_quicksort1547709391
	sim-bpred -bpred bimod -bpred:bimod 2048 base_quicksort1547709391
	sim-bpred -bpred 2lev -bpred:2lev 1 512 10 1 base_quicksort1547709391
	sim-bpred -bpred 2lev -bpred:2lev 1 1024 10 1 base_quicksort1547709391
	sim-bpred -bpred 2lev -bpred:2lev 1 2048 10 1 base_quicksort1547709391
	sim-bpred -bpred 2lev -bpred:2lev 1 4096 10 1 base_quicksort1547709391
	sslittle-na-sstrix-gcc -Wall -O3 -funroll-loops -finline-functions  -DRANDOM_SIZE=262144 -DOFFSET=9 -DSORT=base_quicksort sorts/base_quicksort96072870.c simpleMain.c -o base_quicksort1547709391
	sim-cache -cache:dl1 dl1:256:32:1:l -cache:dl2 dl2:131072:32:1:l -cache:il1 il1:256:32:1:l -cache:il2 dl2 base_quicksort1547709391
	sim-cache -cache:dl1 dl1:256:32:1:l -cache:dl2 dl2:65536:32:1:l -cache:il1 il1:256:32:1:l -cache:il2 dl2 base_quicksort1547709391
	sim-cache -cache:dl1 dl1:1:32:256:l -cache:dl2 dl2:1:32:131072:l -cache:il1 il1:1:32:256:l -cache:il2 dl2 base_quicksort1547709391
	sim-cache -cache:dl1 dl1:1:32:256:l -cache:dl2 dl2:1:32:65536:l -cache:il1 il1:1:32:256:l -cache:il2 dl2 base_quicksort1547709391
	sim-bpred -bpred bimod -bpred:bimod 512 base_quicksort1547709391
	sim-bpred -bpred bimod -bpred:bimod 1024 base_quicksort1547709391
	sim-bpred -bpred bimod -bpred:bimod 2048 base_quicksort1547709391
	sim-bpred -bpred 2lev -bpred:2lev 1 512 10 1 base_quicksort1547709391
	sim-bpred -bpred 2lev -bpred:2lev 1 1024 10 1 base_quicksort1547709391
	sim-bpred -bpred 2lev -bpred:2lev 1 2048 10 1 base_quicksort1547709391
	sim-bpred -bpred 2lev -bpred:2lev 1 4096 10 1 base_quicksort1547709391
	sslittle-na-sstrix-gcc -Wall -O3 -funroll-loops -finline-functions  -DRANDOM_SIZE=524288 -DOFFSET=9 -DSORT=base_quicksort sorts/base_quicksort96072870.c simpleMain.c -o base_quicksort1547709391
	sim-cache -cache:dl1 dl1:256:32:1:l -cache:dl2 dl2:131072:32:1:l -cache:il1 il1:256:32:1:l -cache:il2 dl2 base_quicksort1547709391
	sim-cache -cache:dl1 dl1:256:32:1:l -cache:dl2 dl2:65536:32:1:l -cache:il1 il1:256:32:1:l -cache:il2 dl2 base_quicksort1547709391
	sim-cache -cache:dl1 dl1:1:32:256:l -cache:dl2 dl2:1:32:131072:l -cache:il1 il1:1:32:256:l -cache:il2 dl2 base_quicksort1547709391
	sim-cache -cache:dl1 dl1:1:32:256:l -cache:dl2 dl2:1:32:65536:l -cache:il1 il1:1:32:256:l -cache:il2 dl2 base_quicksort1547709391
	sim-bpred -bpred bimod -bpred:bimod 512 base_quicksort1547709391
	sim-bpred -bpred bimod -bpred:bimod 1024 base_quicksort1547709391
	sim-bpred -bpred bimod -bpred:bimod 2048 base_quicksort1547709391
	sim-bpred -bpred 2lev -bpred:2lev 1 512 10 1 base_quicksort1547709391
	sim-bpred -bpred 2lev -bpred:2lev 1 1024 10 1 base_quicksort1547709391
	sim-bpred -bpred 2lev -bpred:2lev 1 2048 10 1 base_quicksort1547709391
	sim-bpred -bpred 2lev -bpred:2lev 1 4096 10 1 base_quicksort1547709391
	sslittle-na-sstrix-gcc -Wall -O3 -funroll-loops -finline-functions  -DRANDOM_SIZE=1048576 -DOFFSET=9 -DSORT=base_quicksort sorts/base_quicksort96072870.c simpleMain.c -o base_quicksort1547709391
	sim-cache -cache:dl1 dl1:256:32:1:l -cache:dl2 dl2:131072:32:1:l -cache:il1 il1:256:32:1:l -cache:il2 dl2 base_quicksort1547709391
	sim-cache -cache:dl1 dl1:256:32:1:l -cache:dl2 dl2:65536:32:1:l -cache:il1 il1:256:32:1:l -cache:il2 dl2 base_quicksort1547709391
	sim-cache -cache:dl1 dl1:1:32:256:l -cache:dl2 dl2:1:32:131072:l -cache:il1 il1:1:32:256:l -cache:il2 dl2 base_quicksort1547709391
	sim-cache -cache:dl1 dl1:1:32:256:l -cache:dl2 dl2:1:32:65536:l -cache:il1 il1:1:32:256:l -cache:il2 dl2 base_quicksort1547709391
	sim-bpred -bpred bimod -bpred:bimod 512 base_quicksort1547709391
	sim-bpred -bpred bimod -bpred:bimod 1024 base_quicksort1547709391
	sim-bpred -bpred bimod -bpred:bimod 2048 base_quicksort1547709391
	sim-bpred -bpred 2lev -bpred:2lev 1 512 10 1 base_quicksort1547709391
	sim-bpred -bpred 2lev -bpred:2lev 1 1024 10 1 base_quicksort1547709391
	sim-bpred -bpred 2lev -bpred:2lev 1 2048 10 1 base_quicksort1547709391
	sim-bpred -bpred 2lev -bpred:2lev 1 4096 10 1 base_quicksort1547709391
	sslittle-na-sstrix-gcc -Wall -O3 -funroll-loops -finline-functions  -DRANDOM_SIZE=2097152 -DOFFSET=9 -DSORT=base_quicksort sorts/base_quicksort96072870.c simpleMain.c -o base_quicksort1547709391
	sim-cache -cache:dl1 dl1:256:32:1:l -cache:dl2 dl2:131072:32:1:l -cache:il1 il1:256:32:1:l -cache:il2 dl2 base_quicksort1547709391
	sim-cache -cache:dl1 dl1:256:32:1:l -cache:dl2 dl2:65536:32:1:l -cache:il1 il1:256:32:1:l -cache:il2 dl2 base_quicksort1547709391
	sim-cache -cache:dl1 dl1:1:32:256:l -cache:dl2 dl2:1:32:131072:l -cache:il1 il1:1:32:256:l -cache:il2 dl2 base_quicksort1547709391
	sim-cache -cache:dl1 dl1:1:32:256:l -cache:dl2 dl2:1:32:65536:l -cache:il1 il1:1:32:256:l -cache:il2 dl2 base_quicksort1547709391
	sim-bpred -bpred bimod -bpred:bimod 512 base_quicksort1547709391
	sim-bpred -bpred bimod -bpred:bimod 1024 base_quicksort1547709391
	sim-bpred -bpred bimod -bpred:bimod 2048 base_quicksort1547709391
	sim-bpred -bpred 2lev -bpred:2lev 1 512 10 1 base_quicksort1547709391
	sim-bpred -bpred 2lev -bpred:2lev 1 1024 10 1 base_quicksort1547709391
	sim-bpred -bpred 2lev -bpred:2lev 1 2048 10 1 base_quicksort1547709391
	sim-bpred -bpred 2lev -bpred:2lev 1 4096 10 1 base_quicksort1547709391
	sslittle-na-sstrix-gcc -Wall -O3 -funroll-loops -finline-functions  -DRANDOM_SIZE=4194304 -DOFFSET=9 -DSORT=base_quicksort sorts/base_quicksort96072870.c simpleMain.c -o base_quicksort1547709391
	sim-cache -cache:dl1 dl1:256:32:1:l -cache:dl2 dl2:131072:32:1:l -cache:il1 il1:256:32:1:l -cache:il2 dl2 base_quicksort1547709391
	sim-cache -cache:dl1 dl1:256:32:1:l -cache:dl2 dl2:65536:32:1:l -cache:il1 il1:256:32:1:l -cache:il2 dl2 base_quicksort1547709391
	sim-cache -cache:dl1 dl1:1:32:256:l -cache:dl2 dl2:1:32:131072:l -cache:il1 il1:1:32:256:l -cache:il2 dl2 base_quicksort1547709391
	sim-cache -cache:dl1 dl1:1:32:256:l -cache:dl2 dl2:1:32:65536:l -cache:il1 il1:1:32:256:l -cache:il2 dl2 base_quicksort1547709391
	sim-bpred -bpred bimod -bpred:bimod 512 base_quicksort1547709391
	sim-bpred -bpred bimod -bpred:bimod 1024 base_quicksort1547709391
	sim-bpred -bpred bimod -bpred:bimod 2048 base_quicksort1547709391
	sim-bpred -bpred 2lev -bpred:2lev 1 512 10 1 base_quicksort1547709391
	sim-bpred -bpred 2lev -bpred:2lev 1 1024 10 1 base_quicksort1547709391
	sim-bpred -bpred 2lev -bpred:2lev 1 2048 10 1 base_quicksort1547709391
	sim-bpred -bpred 2lev -bpred:2lev 1 4096 10 1 base_quicksort1547709391
