Mon Jun 27 16:02:09 2005
Run as: "./do_simple -c random.org2 -o 2 base_quicksort"
-------------------------------------------------------------------------------------------------
sim-cache                                     4096 |         4096 |         4096 |         4096 |         8192 |         8192 |         8192 |         8192 |        16384 |        16384 |        16384 |        16384 |        32768 |        32768 |        32768 |        32768 |        65536 |        65536 |        65536 |        65536 |       131072 |       131072 |       131072 |       131072 |       262144 |       262144 |       262144 |       262144 |       524288 |       524288 |       524288 |       524288 |      1048576 |      1048576 |      1048576 |      1048576 |      2097152 |      2097152 |      2097152 |      2097152 |      4194304 |      4194304 |      4194304 |      4194304 |
-cache:dl1 dl1:256:32:1:l -cache:dl2 dl2:131072:32:1:l -cache:il1 il1:256:32:1:l -cache:il2 dl2
-cache:dl1 dl1:256:32:1:l -cache:dl2 dl2:65536:32:1:l -cache:il1 il1:256:32:1:l -cache:il2 dl2
-cache:dl1 dl1:1:32:256:l -cache:dl2 dl2:1:32:131072:l -cache:il1 il1:1:32:256:l -cache:il2 dl2
-cache:dl1 dl1:1:32:256:l -cache:dl2 dl2:1:32:65536:l -cache:il1 il1:1:32:256:l -cache:il2 dl2
-------------------------------------------------------------------------------------------------
sim_num_insn                                473865 |       473865 |       473865 |       473865 |      1013478 |      1013478 |      1013478 |      1013478 |      2192200 |      2192200 |      2192200 |      2192200 |      4658895 |      4658895 |      4658895 |      4658895 |      9969896 |      9969896 |      9969896 |      9969896 |     20907267 |     20907267 |     20907267 |     20907267 |     44526253 |     44526253 |     44526253 |     44526253 |     92743552 |     92743552 |     92743552 |     92743552 |    194034993 |    194034993 |    194034993 |    194034993 |    408177171 |    408177171 |    408177171 |    408177171 |    857059665 |    857059665 |    857059665 |    857059665 |
sim_num_refs                                125653 |       125653 |       125653 |       125653 |       263758 |       263758 |       263758 |       263758 |       562121 |       562121 |       562121 |       562121 |      1187866 |      1187866 |      1187866 |      1187866 |      2519491 |      2519491 |      2519491 |      2519491 |      5282364 |      5282364 |      5282364 |      5282364 |     11169814 |     11169814 |     11169814 |     11169814 |     23260032 |     23260032 |     23260032 |     23260032 |     48612468 |     48612468 |     48612468 |     48612468 |    101870830 |    101870830 |    101870830 |    101870830 |    212959728 |    212959728 |    212959728 |    212959728 |
sim_elapsed_time                                 1 |            1 |            7 |            3 |            1 |            1 |            9 |            5 |            1 |            1 |           15 |            7 |            1 |            1 |           25 |           13 |            2 |            3 |           45 |           24 |            5 |            6 |           84 |           42 |           11 |           12 |          155 |           72 |           24 |           23 |          267 |          103 |           49 |           49 |          370 |          130 |          102 |          102 |          428 |          187 |          215 |          215 |          548 |          309 |
sim_inst_rate                          473865.0000 |  473865.0000 |   67695.0000 |  157955.0000 | 1013478.0000 | 1013478.0000 |  112608.6667 |  202695.6000 | 2192200.0000 | 2192200.0000 |  146146.6667 |  313171.4286 | 4658895.0000 | 4658895.0000 |  186355.8000 |  358376.5385 | 4984948.0000 | 3323298.6667 |  221553.2444 |  415412.3333 | 4181453.4000 | 3484544.5000 |  248896.0357 |  497792.0714 | 4047841.1818 | 3710521.0833 |  287266.1484 |  618420.1806 | 3864314.6667 | 4032328.3478 |  347354.1273 |  900422.8350 | 3959897.8163 | 3959897.8163 |  524418.9000 | 1492576.8692 | 4001736.9706 | 4001736.9706 |  953684.9790 | 2182765.6203 | 3986324.0233 | 3986324.0233 | 1563977.4909 | 2773655.8738 |
il1.accesses                                473865 |       473865 |       473865 |       473865 |      1013478 |      1013478 |      1013478 |      1013478 |      2192200 |      2192200 |      2192200 |      2192200 |      4658895 |      4658895 |      4658895 |      4658895 |      9969896 |      9969896 |      9969896 |      9969896 |     20907267 |     20907267 |     20907267 |     20907267 |     44526253 |     44526253 |     44526253 |     44526253 |     92743552 |     92743552 |     92743552 |     92743552 |    194034993 |    194034993 |    194034993 |    194034993 |    408177171 |    408177171 |    408177171 |    408177171 |    857059665 |    857059665 |    857059665 |    857059665 |
il1.hits                                    473414 |       473414 |       473445 |       473445 |      1013025 |      1013025 |      1013056 |      1013056 |      2191735 |      2191735 |      2191775 |      2191775 |      4658441 |      4658441 |      4658472 |      4658472 |      9969442 |      9969442 |      9969473 |      9969473 |     20906814 |     20906814 |     20906845 |     20906845 |     44525800 |     44525800 |     44525831 |     44525831 |     92743099 |     92743099 |     92743130 |     92743130 |    194034540 |    194034540 |    194034571 |    194034571 |    408176718 |    408176718 |    408176749 |    408176749 |    857059212 |    857059212 |    857059243 |    857059243 |
il1.misses                                     451 |          451 |          420 |          420 |          453 |          453 |          422 |          422 |          465 |          465 |          425 |          425 |          454 |          454 |          423 |          423 |          454 |          454 |          423 |          423 |          453 |          453 |          422 |          422 |          453 |          453 |          422 |          422 |          453 |          453 |          422 |          422 |          453 |          453 |          422 |          422 |          453 |          453 |          422 |          422 |          453 |          453 |          422 |          422 |
il1.replacements                               213 |          213 |          164 |          164 |          215 |          215 |          166 |          166 |          227 |          227 |          169 |          169 |          216 |          216 |          167 |          167 |          216 |          216 |          167 |          167 |          216 |          216 |          166 |          166 |          216 |          216 |          166 |          166 |          216 |          216 |          166 |          166 |          216 |          216 |          166 |          166 |          216 |          216 |          166 |          166 |          216 |          216 |          166 |          166 |
il1.writebacks                                   0 |            0 |            0 |            0 |            0 |            0 |            0 |            0 |            0 |            0 |            0 |            0 |            0 |            0 |            0 |            0 |            0 |            0 |            0 |            0 |            0 |            0 |            0 |            0 |            0 |            0 |            0 |            0 |            0 |            0 |            0 |            0 |            0 |            0 |            0 |            0 |            0 |            0 |            0 |            0 |            0 |            0 |            0 |            0 |
il1.invalidations                                0 |            0 |            0 |            0 |            0 |            0 |            0 |            0 |            0 |            0 |            0 |            0 |            0 |            0 |            0 |            0 |            0 |            0 |            0 |            0 |            0 |            0 |            0 |            0 |            0 |            0 |            0 |            0 |            0 |            0 |            0 |            0 |            0 |            0 |            0 |            0 |            0 |            0 |            0 |            0 |            0 |            0 |            0 |            0 |
il1.miss_rate                               0.0010 |       0.0010 |       0.0009 |       0.0009 |       0.0004 |       0.0004 |       0.0004 |       0.0004 |       0.0002 |       0.0002 |       0.0002 |       0.0002 |       0.0001 |       0.0001 |       0.0001 |       0.0001 |       0.0000 |       0.0000 |       0.0000 |       0.0000 |       0.0000 |       0.0000 |       0.0000 |       0.0000 |       0.0000 |       0.0000 |       0.0000 |       0.0000 |       0.0000 |       0.0000 |       0.0000 |       0.0000 |       0.0000 |       0.0000 |       0.0000 |       0.0000 |       0.0000 |       0.0000 |       0.0000 |       0.0000 |       0.0000 |       0.0000 |       0.0000 |       0.0000 |
il1.repl_rate                               0.0004 |       0.0004 |       0.0003 |       0.0003 |       0.0002 |       0.0002 |       0.0002 |       0.0002 |       0.0001 |       0.0001 |       0.0001 |       0.0001 |       0.0000 |       0.0000 |       0.0000 |       0.0000 |       0.0000 |       0.0000 |       0.0000 |       0.0000 |       0.0000 |       0.0000 |       0.0000 |       0.0000 |       0.0000 |       0.0000 |       0.0000 |       0.0000 |       0.0000 |       0.0000 |       0.0000 |       0.0000 |       0.0000 |       0.0000 |       0.0000 |       0.0000 |       0.0000 |       0.0000 |       0.0000 |       0.0000 |       0.0000 |       0.0000 |       0.0000 |       0.0000 |
il1.wb_rate                                 0.0000 |       0.0000 |       0.0000 |       0.0000 |       0.0000 |       0.0000 |       0.0000 |       0.0000 |       0.0000 |       0.0000 |       0.0000 |       0.0000 |       0.0000 |       0.0000 |       0.0000 |       0.0000 |       0.0000 |       0.0000 |       0.0000 |       0.0000 |       0.0000 |       0.0000 |       0.0000 |       0.0000 |       0.0000 |       0.0000 |       0.0000 |       0.0000 |       0.0000 |       0.0000 |       0.0000 |       0.0000 |       0.0000 |       0.0000 |       0.0000 |       0.0000 |       0.0000 |       0.0000 |       0.0000 |       0.0000 |       0.0000 |       0.0000 |       0.0000 |       0.0000 |
il1.inv_rate                                0.0000 |       0.0000 |       0.0000 |       0.0000 |       0.0000 |       0.0000 |       0.0000 |       0.0000 |       0.0000 |       0.0000 |       0.0000 |       0.0000 |       0.0000 |       0.0000 |       0.0000 |       0.0000 |       0.0000 |       0.0000 |       0.0000 |       0.0000 |       0.0000 |       0.0000 |       0.0000 |       0.0000 |       0.0000 |       0.0000 |       0.0000 |       0.0000 |       0.0000 |       0.0000 |       0.0000 |       0.0000 |       0.0000 |       0.0000 |       0.0000 |       0.0000 |       0.0000 |       0.0000 |       0.0000 |       0.0000 |       0.0000 |       0.0000 |       0.0000 |       0.0000 |
dl1.accesses                                142119 |       142119 |       142119 |       142119 |       296608 |       296608 |       296608 |       296608 |       627739 |       627739 |       627739 |       627739 |      1319020 |      1319020 |      1319020 |      1319020 |      2781717 |      2781717 |      2781717 |      2781717 |      5806734 |      5806734 |      5806734 |      5806734 |     12218472 |     12218472 |     12218472 |     12218472 |     25357266 |     25357266 |     25357266 |     25357266 |     52806854 |     52806854 |     52806854 |     52806854 |    110259520 |    110259520 |    110259520 |    110259520 |    229737026 |    229737026 |    229737026 |    229737026 |
dl1.hits                                    139599 |       139599 |       139530 |       139530 |       290196 |       290196 |       290137 |       290137 |       612676 |       612676 |       612485 |       612485 |      1285255 |      1285255 |      1285305 |      1285305 |      2703479 |      2703479 |      2703405 |      2703405 |      5636595 |      5636595 |      5636856 |      5636856 |     11833979 |     11833979 |     11835959 |     11835959 |     24533197 |     24533197 |     24538997 |     24538997 |     51022879 |     51022879 |     51038456 |     51038456 |    106365428 |    106365428 |    106401033 |    106401033 |    221263401 |    221263401 |    221353159 |    221353159 |
dl1.misses                                    2520 |         2520 |         2589 |         2589 |         6412 |         6412 |         6471 |         6471 |        15063 |        15063 |        15254 |        15254 |        33765 |        33765 |        33715 |        33715 |        78238 |        78238 |        78312 |        78312 |       170139 |       170139 |       169878 |       169878 |       384493 |       384493 |       382513 |       382513 |       824069 |       824069 |       818269 |       818269 |      1783975 |      1783975 |      1768398 |      1768398 |      3894092 |      3894092 |      3858487 |      3858487 |      8473625 |      8473625 |      8383867 |      8383867 |
dl1.replacements                              2264 |         2264 |         2333 |         2333 |         6156 |         6156 |         6215 |         6215 |        14807 |        14807 |        14998 |        14998 |        33509 |        33509 |        33459 |        33459 |        77982 |        77982 |        78056 |        78056 |       169883 |       169883 |       169622 |       169622 |       384237 |       384237 |       382257 |       382257 |       823813 |       823813 |       818013 |       818013 |      1783719 |      1783719 |      1768142 |      1768142 |      3893836 |      3893836 |      3858231 |      3858231 |      8473369 |      8473369 |      8383611 |      8383611 |
dl1.writebacks                                2208 |         2208 |         2285 |         2285 |         5686 |         5686 |         5777 |         5777 |        13551 |        13551 |        13781 |        13781 |        30711 |        30711 |        30852 |        30852 |        70562 |        70562 |        71126 |        71126 |       158116 |       158116 |       159026 |       159026 |       348275 |       348275 |       349509 |       349509 |       767595 |       767595 |       769797 |       769797 |      1673249 |      1673249 |      1675235 |      1675235 |      3638160 |      3638160 |      3640537 |      3640537 |      7843472 |      7843472 |      7839745 |      7839745 |
dl1.invalidations                                0 |            0 |            0 |            0 |            0 |            0 |            0 |            0 |            0 |            0 |            0 |            0 |            0 |            0 |            0 |            0 |            0 |            0 |            0 |            0 |            0 |            0 |            0 |            0 |            0 |            0 |            0 |            0 |            0 |            0 |            0 |            0 |            0 |            0 |            0 |            0 |            0 |            0 |            0 |            0 |            0 |            0 |            0 |            0 |
dl1.miss_rate                               0.0177 |       0.0177 |       0.0182 |       0.0182 |       0.0216 |       0.0216 |       0.0218 |       0.0218 |       0.0240 |       0.0240 |       0.0243 |       0.0243 |       0.0256 |       0.0256 |       0.0256 |       0.0256 |       0.0281 |       0.0281 |       0.0282 |       0.0282 |       0.0293 |       0.0293 |       0.0293 |       0.0293 |       0.0315 |       0.0315 |       0.0313 |       0.0313 |       0.0325 |       0.0325 |       0.0323 |       0.0323 |       0.0338 |       0.0338 |       0.0335 |       0.0335 |       0.0353 |       0.0353 |       0.0350 |       0.0350 |       0.0369 |       0.0369 |       0.0365 |       0.0365 |
dl1.repl_rate                               0.0159 |       0.0159 |       0.0164 |       0.0164 |       0.0208 |       0.0208 |       0.0210 |       0.0210 |       0.0236 |       0.0236 |       0.0239 |       0.0239 |       0.0254 |       0.0254 |       0.0254 |       0.0254 |       0.0280 |       0.0280 |       0.0281 |       0.0281 |       0.0293 |       0.0293 |       0.0292 |       0.0292 |       0.0314 |       0.0314 |       0.0313 |       0.0313 |       0.0325 |       0.0325 |       0.0323 |       0.0323 |       0.0338 |       0.0338 |       0.0335 |       0.0335 |       0.0353 |       0.0353 |       0.0350 |       0.0350 |       0.0369 |       0.0369 |       0.0365 |       0.0365 |
dl1.wb_rate                                 0.0155 |       0.0155 |       0.0161 |       0.0161 |       0.0192 |       0.0192 |       0.0195 |       0.0195 |       0.0216 |       0.0216 |       0.0220 |       0.0220 |       0.0233 |       0.0233 |       0.0234 |       0.0234 |       0.0254 |       0.0254 |       0.0256 |       0.0256 |       0.0272 |       0.0272 |       0.0274 |       0.0274 |       0.0285 |       0.0285 |       0.0286 |       0.0286 |       0.0303 |       0.0303 |       0.0304 |       0.0304 |       0.0317 |       0.0317 |       0.0317 |       0.0317 |       0.0330 |       0.0330 |       0.0330 |       0.0330 |       0.0341 |       0.0341 |       0.0341 |       0.0341 |
dl1.inv_rate                                0.0000 |       0.0000 |       0.0000 |       0.0000 |       0.0000 |       0.0000 |       0.0000 |       0.0000 |       0.0000 |       0.0000 |       0.0000 |       0.0000 |       0.0000 |       0.0000 |       0.0000 |       0.0000 |       0.0000 |       0.0000 |       0.0000 |       0.0000 |       0.0000 |       0.0000 |       0.0000 |       0.0000 |       0.0000 |       0.0000 |       0.0000 |       0.0000 |       0.0000 |       0.0000 |       0.0000 |       0.0000 |       0.0000 |       0.0000 |       0.0000 |       0.0000 |       0.0000 |       0.0000 |       0.0000 |       0.0000 |       0.0000 |       0.0000 |       0.0000 |       0.0000 |
dl2.accesses                                  5179 |         5179 |         5294 |         5294 |        12551 |        12551 |        12670 |        12670 |        29079 |        29079 |        29460 |        29460 |        64930 |        64930 |        64990 |        64990 |       149254 |       149254 |       149861 |       149861 |       328708 |       328708 |       329326 |       329326 |       733221 |       733221 |       732444 |       732444 |      1592117 |      1592117 |      1588488 |      1588488 |      3457677 |      3457677 |      3444055 |      3444055 |      7532705 |      7532705 |      7499446 |      7499446 |     16317550 |     16317550 |     16224034 |     16224034 |
dl2.hits                                      3814 |         3814 |         3939 |         3939 |        10672 |        10672 |        10801 |        10801 |        26177 |        26177 |        26573 |        26573 |        59986 |        59986 |        60056 |        60056 |       140213 |       140213 |       140830 |       140830 |       311476 |       311476 |       312104 |       312104 |       699605 |       699605 |       698838 |       698838 |      1525733 |      1524949 |      1522114 |      1473976 |      3324963 |      2967073 |      3241683 |      2932991 |      6515213 |      6229593 |      6415408 |      6120351 |     13768691 |     13180076 |     13535582 |     12944454 |
dl2.misses                                    1365 |         1365 |         1355 |         1355 |         1879 |         1879 |         1869 |         1869 |         2902 |         2902 |         2887 |         2887 |         4944 |         4944 |         4934 |         4934 |         9041 |         9041 |         9031 |         9031 |        17232 |        17232 |        17222 |        17222 |        33616 |        33616 |        33606 |        33606 |        66384 |        67168 |        66374 |       114512 |       132714 |       490604 |       202372 |       511064 |      1017492 |      1303112 |      1084038 |      1379095 |      2548859 |      3137474 |      2688452 |      3279580 |
dl2.replacements                               144 |          144 |            0 |            0 |          144 |          144 |            0 |            0 |          150 |          150 |            0 |            0 |          144 |          144 |            0 |            0 |          144 |          144 |            0 |            0 |          144 |          144 |            0 |            0 |          144 |          144 |            0 |            0 |          144 |         1632 |            0 |        48976 |         1642 |       425068 |        71300 |       445528 |       886420 |      1237576 |       952966 |      1313559 |      2417787 |      3071938 |      2557380 |      3214044 |
dl2.writebacks                                  88 |           88 |            0 |            0 |           88 |           88 |            0 |            0 |           89 |           89 |            0 |            0 |           88 |           88 |            0 |            0 |           88 |           88 |            0 |            0 |           88 |           88 |            0 |            0 |           88 |           88 |            0 |            0 |           88 |         1318 |            0 |        48537 |         1329 |       421648 |        71007 |       442041 |       869333 |      1203255 |       930956 |      1273737 |      2376859 |      2994738 |      2514058 |      3123937 |
dl2.invalidations                                0 |            0 |            0 |            0 |            0 |            0 |            0 |            0 |            0 |            0 |            0 |            0 |            0 |            0 |            0 |            0 |            0 |            0 |            0 |            0 |            0 |            0 |            0 |            0 |            0 |            0 |            0 |            0 |            0 |            0 |            0 |            0 |            0 |            0 |            0 |            0 |            0 |            0 |            0 |            0 |            0 |            0 |            0 |            0 |
dl2.miss_rate                               0.2636 |       0.2636 |       0.2560 |       0.2560 |       0.1497 |       0.1497 |       0.1475 |       0.1475 |       0.0998 |       0.0998 |       0.0980 |       0.0980 |       0.0761 |       0.0761 |       0.0759 |       0.0759 |       0.0606 |       0.0606 |       0.0603 |       0.0603 |       0.0524 |       0.0524 |       0.0523 |       0.0523 |       0.0458 |       0.0458 |       0.0459 |       0.0459 |       0.0417 |       0.0422 |       0.0418 |       0.0721 |       0.0384 |       0.1419 |       0.0588 |       0.1484 |       0.1351 |       0.1730 |       0.1445 |       0.1839 |       0.1562 |       0.1923 |       0.1657 |       0.2021 |
dl2.repl_rate                               0.0278 |       0.0278 |       0.0000 |       0.0000 |       0.0115 |       0.0115 |       0.0000 |       0.0000 |       0.0052 |       0.0052 |       0.0000 |       0.0000 |       0.0022 |       0.0022 |       0.0000 |       0.0000 |       0.0010 |       0.0010 |       0.0000 |       0.0000 |       0.0004 |       0.0004 |       0.0000 |       0.0000 |       0.0002 |       0.0002 |       0.0000 |       0.0000 |       0.0001 |       0.0010 |       0.0000 |       0.0308 |       0.0005 |       0.1229 |       0.0207 |       0.1294 |       0.1177 |       0.1643 |       0.1271 |       0.1752 |       0.1482 |       0.1883 |       0.1576 |       0.1981 |
dl2.wb_rate                                 0.0170 |       0.0170 |       0.0000 |       0.0000 |       0.0070 |       0.0070 |       0.0000 |       0.0000 |       0.0031 |       0.0031 |       0.0000 |       0.0000 |       0.0014 |       0.0014 |       0.0000 |       0.0000 |       0.0006 |       0.0006 |       0.0000 |       0.0000 |       0.0003 |       0.0003 |       0.0000 |       0.0000 |       0.0001 |       0.0001 |       0.0000 |       0.0000 |       0.0001 |       0.0008 |       0.0000 |       0.0306 |       0.0004 |       0.1219 |       0.0206 |       0.1283 |       0.1154 |       0.1597 |       0.1241 |       0.1698 |       0.1457 |       0.1835 |       0.1550 |       0.1925 |
dl2.inv_rate                                0.0000 |       0.0000 |       0.0000 |       0.0000 |       0.0000 |       0.0000 |       0.0000 |       0.0000 |       0.0000 |       0.0000 |       0.0000 |       0.0000 |       0.0000 |       0.0000 |       0.0000 |       0.0000 |       0.0000 |       0.0000 |       0.0000 |       0.0000 |       0.0000 |       0.0000 |       0.0000 |       0.0000 |       0.0000 |       0.0000 |       0.0000 |       0.0000 |       0.0000 |       0.0000 |       0.0000 |       0.0000 |       0.0000 |       0.0000 |       0.0000 |       0.0000 |       0.0000 |       0.0000 |       0.0000 |       0.0000 |       0.0000 |       0.0000 |       0.0000 |       0.0000 |
itlb.accesses                               473865 |       473865 |       473865 |       473865 |      1013478 |      1013478 |      1013478 |      1013478 |      2192200 |      2192200 |      2192200 |      2192200 |      4658895 |      4658895 |      4658895 |      4658895 |      9969896 |      9969896 |      9969896 |      9969896 |     20907267 |     20907267 |     20907267 |     20907267 |     44526253 |     44526253 |     44526253 |     44526253 |     92743552 |     92743552 |     92743552 |     92743552 |    194034993 |    194034993 |    194034993 |    194034993 |    408177171 |    408177171 |    408177171 |    408177171 |    857059665 |    857059665 |    857059665 |    857059665 |
itlb.hits                                   473855 |       473855 |       473855 |       473855 |      1013468 |      1013468 |      1013468 |      1013468 |      2192190 |      2192190 |      2192190 |      2192190 |      4658885 |      4658885 |      4658885 |      4658885 |      9969886 |      9969886 |      9969886 |      9969886 |     20907257 |     20907257 |     20907257 |     20907257 |     44526243 |     44526243 |     44526243 |     44526243 |     92743542 |     92743542 |     92743542 |     92743542 |    194034983 |    194034983 |    194034983 |    194034983 |    408177161 |    408177161 |    408177161 |    408177161 |    857059655 |    857059655 |    857059655 |    857059655 |
itlb.misses                                     10 |           10 |           10 |           10 |           10 |           10 |           10 |           10 |           10 |           10 |           10 |           10 |           10 |           10 |           10 |           10 |           10 |           10 |           10 |           10 |           10 |           10 |           10 |           10 |           10 |           10 |           10 |           10 |           10 |           10 |           10 |           10 |           10 |           10 |           10 |           10 |           10 |           10 |           10 |           10 |           10 |           10 |           10 |           10 |
itlb.replacements                                0 |            0 |            0 |            0 |            0 |            0 |            0 |            0 |            0 |            0 |            0 |            0 |            0 |            0 |            0 |            0 |            0 |            0 |            0 |            0 |            0 |            0 |            0 |            0 |            0 |            0 |            0 |            0 |            0 |            0 |            0 |            0 |            0 |            0 |            0 |            0 |            0 |            0 |            0 |            0 |            0 |            0 |            0 |            0 |
itlb.writebacks                                  0 |            0 |            0 |            0 |            0 |            0 |            0 |            0 |            0 |            0 |            0 |            0 |            0 |            0 |            0 |            0 |            0 |            0 |            0 |            0 |            0 |            0 |            0 |            0 |            0 |            0 |            0 |            0 |            0 |            0 |            0 |            0 |            0 |            0 |            0 |            0 |            0 |            0 |            0 |            0 |            0 |            0 |            0 |            0 |
itlb.invalidations                               0 |            0 |            0 |            0 |            0 |            0 |            0 |            0 |            0 |            0 |            0 |            0 |            0 |            0 |            0 |            0 |            0 |            0 |            0 |            0 |            0 |            0 |            0 |            0 |            0 |            0 |            0 |            0 |            0 |            0 |            0 |            0 |            0 |            0 |            0 |            0 |            0 |            0 |            0 |            0 |            0 |            0 |            0 |            0 |
itlb.miss_rate                              0.0000 |       0.0000 |       0.0000 |       0.0000 |       0.0000 |       0.0000 |       0.0000 |       0.0000 |       0.0000 |       0.0000 |       0.0000 |       0.0000 |       0.0000 |       0.0000 |       0.0000 |       0.0000 |       0.0000 |       0.0000 |       0.0000 |       0.0000 |       0.0000 |       0.0000 |       0.0000 |       0.0000 |       0.0000 |       0.0000 |       0.0000 |       0.0000 |       0.0000 |       0.0000 |       0.0000 |       0.0000 |       0.0000 |       0.0000 |       0.0000 |       0.0000 |       0.0000 |       0.0000 |       0.0000 |       0.0000 |       0.0000 |       0.0000 |       0.0000 |       0.0000 |
itlb.repl_rate                              0.0000 |       0.0000 |       0.0000 |       0.0000 |       0.0000 |       0.0000 |       0.0000 |       0.0000 |       0.0000 |       0.0000 |       0.0000 |       0.0000 |       0.0000 |       0.0000 |       0.0000 |       0.0000 |       0.0000 |       0.0000 |       0.0000 |       0.0000 |       0.0000 |       0.0000 |       0.0000 |       0.0000 |       0.0000 |       0.0000 |       0.0000 |       0.0000 |       0.0000 |       0.0000 |       0.0000 |       0.0000 |       0.0000 |       0.0000 |       0.0000 |       0.0000 |       0.0000 |       0.0000 |       0.0000 |       0.0000 |       0.0000 |       0.0000 |       0.0000 |       0.0000 |
itlb.wb_rate                                0.0000 |       0.0000 |       0.0000 |       0.0000 |       0.0000 |       0.0000 |       0.0000 |       0.0000 |       0.0000 |       0.0000 |       0.0000 |       0.0000 |       0.0000 |       0.0000 |       0.0000 |       0.0000 |       0.0000 |       0.0000 |       0.0000 |       0.0000 |       0.0000 |       0.0000 |       0.0000 |       0.0000 |       0.0000 |       0.0000 |       0.0000 |       0.0000 |       0.0000 |       0.0000 |       0.0000 |       0.0000 |       0.0000 |       0.0000 |       0.0000 |       0.0000 |       0.0000 |       0.0000 |       0.0000 |       0.0000 |       0.0000 |       0.0000 |       0.0000 |       0.0000 |
itlb.inv_rate                               0.0000 |       0.0000 |       0.0000 |       0.0000 |       0.0000 |       0.0000 |       0.0000 |       0.0000 |       0.0000 |       0.0000 |       0.0000 |       0.0000 |       0.0000 |       0.0000 |       0.0000 |       0.0000 |       0.0000 |       0.0000 |       0.0000 |       0.0000 |       0.0000 |       0.0000 |       0.0000 |       0.0000 |       0.0000 |       0.0000 |       0.0000 |       0.0000 |       0.0000 |       0.0000 |       0.0000 |       0.0000 |       0.0000 |       0.0000 |       0.0000 |       0.0000 |       0.0000 |       0.0000 |       0.0000 |       0.0000 |       0.0000 |       0.0000 |       0.0000 |       0.0000 |
dtlb.accesses                               142119 |       142119 |       142119 |       142119 |       296608 |       296608 |       296608 |       296608 |       627739 |       627739 |       627739 |       627739 |      1319020 |      1319020 |      1319020 |      1319020 |      2781717 |      2781717 |      2781717 |      2781717 |      5806734 |      5806734 |      5806734 |      5806734 |     12218472 |     12218472 |     12218472 |     12218472 |     25357266 |     25357266 |     25357266 |     25357266 |     52806854 |     52806854 |     52806854 |     52806854 |    110259520 |    110259520 |    110259520 |    110259520 |    229737026 |    229737026 |    229737026 |    229737026 |
dtlb.hits                                   142107 |       142107 |       142107 |       142107 |       296592 |       296592 |       296592 |       296592 |       627715 |       627715 |       627715 |       627715 |      1318980 |      1318980 |      1318980 |      1318980 |      2781645 |      2781645 |      2781645 |      2781645 |      5806561 |      5806561 |      5806561 |      5806561 |     12217323 |     12217323 |     12217323 |     12217323 |     25354470 |     25354470 |     25354470 |     25354470 |     52800368 |     52800368 |     52800368 |     52800368 |    110243970 |    110243970 |    110243970 |    110243970 |    229701344 |    229701344 |    229701344 |    229701344 |
dtlb.misses                                     12 |           12 |           12 |           12 |           16 |           16 |           16 |           16 |           24 |           24 |           24 |           24 |           40 |           40 |           40 |           40 |           72 |           72 |           72 |           72 |          173 |          173 |          173 |          173 |         1149 |         1149 |         1149 |         1149 |         2796 |         2796 |         2796 |         2796 |         6486 |         6486 |         6486 |         6486 |        15550 |        15550 |        15550 |        15550 |        35682 |        35682 |        35682 |        35682 |
dtlb.replacements                                0 |            0 |            0 |            0 |            0 |            0 |            0 |            0 |            0 |            0 |            0 |            0 |            0 |            0 |            0 |            0 |            0 |            0 |            0 |            0 |           45 |           45 |           45 |           45 |         1021 |         1021 |         1021 |         1021 |         2668 |         2668 |         2668 |         2668 |         6358 |         6358 |         6358 |         6358 |        15422 |        15422 |        15422 |        15422 |        35554 |        35554 |        35554 |        35554 |
dtlb.writebacks                                  0 |            0 |            0 |            0 |            0 |            0 |            0 |            0 |            0 |            0 |            0 |            0 |            0 |            0 |            0 |            0 |            0 |            0 |            0 |            0 |           43 |           43 |           43 |           43 |         1019 |         1019 |         1019 |         1019 |         2666 |         2666 |         2666 |         2666 |         6356 |         6356 |         6356 |         6356 |        15420 |        15420 |        15420 |        15420 |        35552 |        35552 |        35552 |        35552 |
dtlb.invalidations                               0 |            0 |            0 |            0 |            0 |            0 |            0 |            0 |            0 |            0 |            0 |            0 |            0 |            0 |            0 |            0 |            0 |            0 |            0 |            0 |            0 |            0 |            0 |            0 |            0 |            0 |            0 |            0 |            0 |            0 |            0 |            0 |            0 |            0 |            0 |            0 |            0 |            0 |            0 |            0 |            0 |            0 |            0 |            0 |
dtlb.miss_rate                              0.0001 |       0.0001 |       0.0001 |       0.0001 |       0.0001 |       0.0001 |       0.0001 |       0.0001 |       0.0000 |       0.0000 |       0.0000 |       0.0000 |       0.0000 |       0.0000 |       0.0000 |       0.0000 |       0.0000 |       0.0000 |       0.0000 |       0.0000 |       0.0000 |       0.0000 |       0.0000 |       0.0000 |       0.0001 |       0.0001 |       0.0001 |       0.0001 |       0.0001 |       0.0001 |       0.0001 |       0.0001 |       0.0001 |       0.0001 |       0.0001 |       0.0001 |       0.0001 |       0.0001 |       0.0001 |       0.0001 |       0.0002 |       0.0002 |       0.0002 |       0.0002 |
dtlb.repl_rate                              0.0000 |       0.0000 |       0.0000 |       0.0000 |       0.0000 |       0.0000 |       0.0000 |       0.0000 |       0.0000 |       0.0000 |       0.0000 |       0.0000 |       0.0000 |       0.0000 |       0.0000 |       0.0000 |       0.0000 |       0.0000 |       0.0000 |       0.0000 |       0.0000 |       0.0000 |       0.0000 |       0.0000 |       0.0001 |       0.0001 |       0.0001 |       0.0001 |       0.0001 |       0.0001 |       0.0001 |       0.0001 |       0.0001 |       0.0001 |       0.0001 |       0.0001 |       0.0001 |       0.0001 |       0.0001 |       0.0001 |       0.0002 |       0.0002 |       0.0002 |       0.0002 |
dtlb.wb_rate                                0.0000 |       0.0000 |       0.0000 |       0.0000 |       0.0000 |       0.0000 |       0.0000 |       0.0000 |       0.0000 |       0.0000 |       0.0000 |       0.0000 |       0.0000 |       0.0000 |       0.0000 |       0.0000 |       0.0000 |       0.0000 |       0.0000 |       0.0000 |       0.0000 |       0.0000 |       0.0000 |       0.0000 |       0.0001 |       0.0001 |       0.0001 |       0.0001 |       0.0001 |       0.0001 |       0.0001 |       0.0001 |       0.0001 |       0.0001 |       0.0001 |       0.0001 |       0.0001 |       0.0001 |       0.0001 |       0.0001 |       0.0002 |       0.0002 |       0.0002 |       0.0002 |
dtlb.inv_rate                               0.0000 |       0.0000 |       0.0000 |       0.0000 |       0.0000 |       0.0000 |       0.0000 |       0.0000 |       0.0000 |       0.0000 |       0.0000 |       0.0000 |       0.0000 |       0.0000 |       0.0000 |       0.0000 |       0.0000 |       0.0000 |       0.0000 |       0.0000 |       0.0000 |       0.0000 |       0.0000 |       0.0000 |       0.0000 |       0.0000 |       0.0000 |       0.0000 |       0.0000 |       0.0000 |       0.0000 |       0.0000 |       0.0000 |       0.0000 |       0.0000 |       0.0000 |       0.0000 |       0.0000 |       0.0000 |       0.0000 |       0.0000 |       0.0000 |       0.0000 |       0.0000 |
ld_text_base                            0x00400000 |   0x00400000 |   0x00400000 |   0x00400000 |   0x00400000 |   0x00400000 |   0x00400000 |   0x00400000 |   0x00400000 |   0x00400000 |   0x00400000 |   0x00400000 |   0x00400000 |   0x00400000 |   0x00400000 |   0x00400000 |   0x00400000 |   0x00400000 |   0x00400000 |   0x00400000 |   0x00400000 |   0x00400000 |   0x00400000 |   0x00400000 |   0x00400000 |   0x00400000 |   0x00400000 |   0x00400000 |   0x00400000 |   0x00400000 |   0x00400000 |   0x00400000 |   0x00400000 |   0x00400000 |   0x00400000 |   0x00400000 |   0x00400000 |   0x00400000 |   0x00400000 |   0x00400000 |   0x00400000 |   0x00400000 |   0x00400000 |   0x00400000 |
ld_text_size                                 73456 |        73456 |        73456 |        73456 |        73488 |        73488 |        73488 |        73488 |        73504 |        73504 |        73504 |        73504 |        73520 |        73520 |        73520 |        73520 |        73520 |        73520 |        73520 |        73520 |        73520 |        73520 |        73520 |        73520 |        73520 |        73520 |        73520 |        73520 |        73520 |        73520 |        73520 |        73520 |        73520 |        73520 |        73520 |        73520 |        73520 |        73520 |        73520 |        73520 |        73520 |        73520 |        73520 |        73520 |
ld_data_base                            0x10000000 |   0x10000000 |   0x10000000 |   0x10000000 |   0x10000000 |   0x10000000 |   0x10000000 |   0x10000000 |   0x10000000 |   0x10000000 |   0x10000000 |   0x10000000 |   0x10000000 |   0x10000000 |   0x10000000 |   0x10000000 |   0x10000000 |   0x10000000 |   0x10000000 |   0x10000000 |   0x10000000 |   0x10000000 |   0x10000000 |   0x10000000 |   0x10000000 |   0x10000000 |   0x10000000 |   0x10000000 |   0x10000000 |   0x10000000 |   0x10000000 |   0x10000000 |   0x10000000 |   0x10000000 |   0x10000000 |   0x10000000 |   0x10000000 |   0x10000000 |   0x10000000 |   0x10000000 |   0x10000000 |   0x10000000 |   0x10000000 |   0x10000000 |
ld_data_size                                  8192 |         8192 |         8192 |         8192 |         8192 |         8192 |         8192 |         8192 |         8192 |         8192 |         8192 |         8192 |         8192 |         8192 |         8192 |         8192 |         8192 |         8192 |         8192 |         8192 |         8192 |         8192 |         8192 |         8192 |         8192 |         8192 |         8192 |         8192 |         8192 |         8192 |         8192 |         8192 |         8192 |         8192 |         8192 |         8192 |         8192 |         8192 |         8192 |         8192 |         8192 |         8192 |         8192 |         8192 |
ld_stack_base                           0x7fffc000 |   0x7fffc000 |   0x7fffc000 |   0x7fffc000 |   0x7fffc000 |   0x7fffc000 |   0x7fffc000 |   0x7fffc000 |   0x7fffc000 |   0x7fffc000 |   0x7fffc000 |   0x7fffc000 |   0x7fffc000 |   0x7fffc000 |   0x7fffc000 |   0x7fffc000 |   0x7fffc000 |   0x7fffc000 |   0x7fffc000 |   0x7fffc000 |   0x7fffc000 |   0x7fffc000 |   0x7fffc000 |   0x7fffc000 |   0x7fffc000 |   0x7fffc000 |   0x7fffc000 |   0x7fffc000 |   0x7fffc000 |   0x7fffc000 |   0x7fffc000 |   0x7fffc000 |   0x7fffc000 |   0x7fffc000 |   0x7fffc000 |   0x7fffc000 |   0x7fffc000 |   0x7fffc000 |   0x7fffc000 |   0x7fffc000 |   0x7fffc000 |   0x7fffc000 |   0x7fffc000 |   0x7fffc000 |
ld_stack_size                                16384 |        16384 |        16384 |        16384 |        16384 |        16384 |        16384 |        16384 |        16384 |        16384 |        16384 |        16384 |        16384 |        16384 |        16384 |        16384 |        16384 |        16384 |        16384 |        16384 |        16384 |        16384 |        16384 |        16384 |        16384 |        16384 |        16384 |        16384 |        16384 |        16384 |        16384 |        16384 |        16384 |        16384 |        16384 |        16384 |        16384 |        16384 |        16384 |        16384 |        16384 |        16384 |        16384 |        16384 |
ld_prog_entry                           0x00400140 |   0x00400140 |   0x00400140 |   0x00400140 |   0x00400140 |   0x00400140 |   0x00400140 |   0x00400140 |   0x00400140 |   0x00400140 |   0x00400140 |   0x00400140 |   0x00400140 |   0x00400140 |   0x00400140 |   0x00400140 |   0x00400140 |   0x00400140 |   0x00400140 |   0x00400140 |   0x00400140 |   0x00400140 |   0x00400140 |   0x00400140 |   0x00400140 |   0x00400140 |   0x00400140 |   0x00400140 |   0x00400140 |   0x00400140 |   0x00400140 |   0x00400140 |   0x00400140 |   0x00400140 |   0x00400140 |   0x00400140 |   0x00400140 |   0x00400140 |   0x00400140 |   0x00400140 |   0x00400140 |   0x00400140 |   0x00400140 |   0x00400140 |
ld_environ_base                         0x7fff8000 |   0x7fff8000 |   0x7fff8000 |   0x7fff8000 |   0x7fff8000 |   0x7fff8000 |   0x7fff8000 |   0x7fff8000 |   0x7fff8000 |   0x7fff8000 |   0x7fff8000 |   0x7fff8000 |   0x7fff8000 |   0x7fff8000 |   0x7fff8000 |   0x7fff8000 |   0x7fff8000 |   0x7fff8000 |   0x7fff8000 |   0x7fff8000 |   0x7fff8000 |   0x7fff8000 |   0x7fff8000 |   0x7fff8000 |   0x7fff8000 |   0x7fff8000 |   0x7fff8000 |   0x7fff8000 |   0x7fff8000 |   0x7fff8000 |   0x7fff8000 |   0x7fff8000 |   0x7fff8000 |   0x7fff8000 |   0x7fff8000 |   0x7fff8000 |   0x7fff8000 |   0x7fff8000 |   0x7fff8000 |   0x7fff8000 |   0x7fff8000 |   0x7fff8000 |   0x7fff8000 |   0x7fff8000 |
ld_target_big_endian                             0 |            0 |            0 |            0 |            0 |            0 |            0 |            0 |            0 |            0 |            0 |            0 |            0 |            0 |            0 |            0 |            0 |            0 |            0 |            0 |            0 |            0 |            0 |            0 |            0 |            0 |            0 |            0 |            0 |            0 |            0 |            0 |            0 |            0 |            0 |            0 |            0 |            0 |            0 |            0 |            0 |            0 |            0 |            0 |
mem.page_count                                  30 |           30 |           30 |           30 |           34 |           34 |           34 |           34 |           42 |           42 |           42 |           42 |           58 |           58 |           58 |           58 |           90 |           90 |           90 |           90 |          154 |          154 |          154 |          154 |          282 |          282 |          282 |          282 |          538 |          538 |          538 |          538 |         1050 |         1050 |         1050 |         1050 |         2074 |         2074 |         2074 |         2074 |         4122 |         4122 |         4122 |         4122 |
mem.page_mem                                  120k |         120k |         120k |         120k |         136k |         136k |         136k |         136k |         168k |         168k |         168k |         168k |         232k |         232k |         232k |         232k |         360k |         360k |         360k |         360k |         616k |         616k |         616k |         616k |        1128k |        1128k |        1128k |        1128k |        2152k |        2152k |        2152k |        2152k |        4200k |        4200k |        4200k |        4200k |        8296k |        8296k |        8296k |        8296k |       16488k |       16488k |       16488k |       16488k |
mem.ptab_misses                                 30 |           30 |           30 |           30 |           34 |           34 |           34 |           34 |           42 |           42 |           42 |           42 |           58 |           58 |           58 |           58 |           90 |           90 |           90 |           90 |          154 |          154 |          154 |          154 |          282 |          282 |          282 |          282 |          538 |          538 |          538 |          538 |         1050 |         1050 |         1050 |         1050 |         2074 |         2074 |         2074 |         2074 |         4122 |         4122 |         4122 |         4122 |
mem.ptab_accesses                          2635054 |      2635054 |      2635054 |      2635054 |      5102676 |      5102676 |      5102676 |      5102676 |     10479922 |     10479922 |     10479922 |     10479922 |     21729360 |     21729360 |     21729360 |     21729360 |     45898758 |     45898758 |     45898758 |     45898758 |     95698276 |     95698276 |     95698276 |     95698276 |    202997696 |    202997696 |    202997696 |    202997696 |    422144480 |    422144480 |    422144480 |    422144480 |    882209420 |    882209420 |    882209420 |    882209420 |   1853683464 |   1853683464 |   1853683464 |   1853683464 |   3888168452 |   3888168452 |   3888168452 |   3888168452 |
mem.ptab_miss_rate                          0.0000 |       0.0000 |       0.0000 |       0.0000 |       0.0000 |       0.0000 |       0.0000 |       0.0000 |       0.0000 |       0.0000 |       0.0000 |       0.0000 |       0.0000 |       0.0000 |       0.0000 |       0.0000 |       0.0000 |       0.0000 |       0.0000 |       0.0000 |       0.0000 |       0.0000 |       0.0000 |       0.0000 |       0.0000 |       0.0000 |       0.0000 |       0.0000 |       0.0000 |       0.0000 |       0.0000 |       0.0000 |       0.0000 |       0.0000 |       0.0000 |       0.0000 |       0.0000 |       0.0000 |       0.0000 |       0.0000 |       0.0000 |       0.0000 |       0.0000 |       0.0000 |
-------------------------------------------------------------------------------------------------
sim-bpred                                     4096 |         4096 |         4096 |         4096 |         4096 |         4096 |         4096 |         8192 |         8192 |         8192 |         8192 |         8192 |         8192 |         8192 |        16384 |        16384 |        16384 |        16384 |        16384 |        16384 |        16384 |        32768 |        32768 |        32768 |        32768 |        32768 |        32768 |        32768 |        65536 |        65536 |        65536 |        65536 |        65536 |        65536 |        65536 |       131072 |       131072 |       131072 |       131072 |       131072 |       131072 |       131072 |       262144 |       262144 |       262144 |       262144 |       262144 |       262144 |       262144 |       524288 |       524288 |       524288 |       524288 |       524288 |       524288 |       524288 |      1048576 |      1048576 |      1048576 |      1048576 |      1048576 |      1048576 |      1048576 |      2097152 |      2097152 |      2097152 |      2097152 |      2097152 |      2097152 |      2097152 |      4194304 |      4194304 |      4194304 |      4194304 |      4194304 |      4194304 |      4194304 |
-bpred bimod -bpred:bimod 512
-bpred bimod -bpred:bimod 1024
-bpred bimod -bpred:bimod 2048
-bpred 2lev -bpred:2lev 1 512 10 1
-bpred 2lev -bpred:2lev 1 1024 10 1
-bpred 2lev -bpred:2lev 1 2048 10 1
-bpred 2lev -bpred:2lev 1 4096 10 1
-------------------------------------------------------------------------------------------------
sim_num_insn                                473865 |       473865 |       473865 |       473865 |       473865 |       473865 |       473865 |      1013478 |      1013478 |      1013478 |      1013478 |      1013478 |      1013478 |      1013478 |      2192200 |      2192200 |      2192200 |      2192200 |      2192200 |      2192200 |      2192200 |      4658895 |      4658895 |      4658895 |      4658895 |      4658895 |      4658895 |      4658895 |      9969896 |      9969896 |      9969896 |      9969896 |      9969896 |      9969896 |      9969896 |     20907267 |     20907267 |     20907267 |     20907267 |     20907267 |     20907267 |     20907267 |     44526253 |     44526253 |     44526253 |     44526253 |     44526253 |     44526253 |     44526253 |     92743552 |     92743552 |     92743552 |     92743552 |     92743552 |     92743552 |     92743552 |    194034993 |    194034993 |    194034993 |    194034993 |    194034993 |    194034993 |    194034993 |    408177171 |    408177171 |    408177171 |    408177171 |    408177171 |    408177171 |    408177171 |    857059665 |    857059665 |    857059665 |    857059665 |    857059665 |    857059665 |    857059665 |
sim_num_refs                                125653 |       125653 |       125653 |       125653 |       125653 |       125653 |       125653 |       263758 |       263758 |       263758 |       263758 |       263758 |       263758 |       263758 |       562121 |       562121 |       562121 |       562121 |       562121 |       562121 |       562121 |      1187866 |      1187866 |      1187866 |      1187866 |      1187866 |      1187866 |      1187866 |      2519491 |      2519491 |      2519491 |      2519491 |      2519491 |      2519491 |      2519491 |      5282364 |      5282364 |      5282364 |      5282364 |      5282364 |      5282364 |      5282364 |     11169814 |     11169814 |     11169814 |     11169814 |     11169814 |     11169814 |     11169814 |     23260032 |     23260032 |     23260032 |     23260032 |     23260032 |     23260032 |     23260032 |     48612468 |     48612468 |     48612468 |     48612468 |     48612468 |     48612468 |     48612468 |    101870830 |    101870830 |    101870830 |    101870830 |    101870830 |    101870830 |    101870830 |    212959728 |    212959728 |    212959728 |    212959728 |    212959728 |    212959728 |    212959728 |
sim_elapsed_time                                 1 |            1 |            1 |            1 |            1 |            1 |            1 |            1 |            1 |            1 |            1 |            1 |            1 |            1 |            1 |            1 |            1 |            1 |            1 |            1 |            1 |            1 |            1 |            1 |            1 |            1 |            1 |            1 |            1 |            1 |            1 |            1 |            1 |            1 |            1 |            2 |            3 |            2 |            2 |            3 |            2 |            3 |            5 |            5 |            5 |            6 |            5 |            5 |            5 |           11 |           10 |           11 |           11 |           10 |           11 |           11 |           22 |           23 |           21 |           23 |           22 |           23 |           22 |           47 |           46 |           46 |           47 |           48 |           47 |           47 |           97 |           98 |           97 |           99 |           99 |           99 |           99 |
sim_inst_rate                          473865.0000 |  473865.0000 |  473865.0000 |  473865.0000 |  473865.0000 |  473865.0000 |  473865.0000 | 1013478.0000 | 1013478.0000 | 1013478.0000 | 1013478.0000 | 1013478.0000 | 1013478.0000 | 1013478.0000 | 2192200.0000 | 2192200.0000 | 2192200.0000 | 2192200.0000 | 2192200.0000 | 2192200.0000 | 2192200.0000 | 4658895.0000 | 4658895.0000 | 4658895.0000 | 4658895.0000 | 4658895.0000 | 4658895.0000 | 4658895.0000 | 9969896.0000 | 9969896.0000 | 9969896.0000 | 9969896.0000 | 9969896.0000 | 9969896.0000 | 9969896.0000 |10453633.5000 | 6969089.0000 |10453633.5000 |10453633.5000 | 6969089.0000 |10453633.5000 | 6969089.0000 | 8905250.6000 | 8905250.6000 | 8905250.6000 | 7421042.1667 | 8905250.6000 | 8905250.6000 | 8905250.6000 | 8431232.0000 | 9274355.2000 | 8431232.0000 | 8431232.0000 | 9274355.2000 | 8431232.0000 | 8431232.0000 | 8819772.4091 | 8436304.0435 | 9239761.5714 | 8436304.0435 | 8819772.4091 | 8436304.0435 | 8819772.4091 | 8684620.6596 | 8873416.7609 | 8873416.7609 | 8684620.6596 | 8503691.0625 | 8684620.6596 | 8684620.6596 | 8835666.6495 | 8745506.7857 | 8835666.6495 | 8657168.3333 | 8657168.3333 | 8657168.3333 | 8657168.3333 |
sim_num_branches                             77175 |        77175 |        77175 |        77175 |        77175 |        77175 |        77175 |       166457 |       166457 |       166457 |       166457 |       166457 |       166457 |       166457 |       362296 |       362296 |       362296 |       362296 |       362296 |       362296 |       362296 |       775094 |       775094 |       775094 |       775094 |       775094 |       775094 |       775094 |      1666740 |      1666740 |      1666740 |      1666740 |      1666740 |      1666740 |      1666740 |      3510106 |      3510106 |      3510106 |      3510106 |      3510106 |      3510106 |      3510106 |      7503863 |      7503863 |      7503863 |      7503863 |      7503863 |      7503863 |      7503863 |     15678576 |     15678576 |     15678576 |     15678576 |     15678576 |     15678576 |     15678576 |     32945021 |     32945021 |     32945021 |     32945021 |     32945021 |     32945021 |     32945021 |     69516708 |     69516708 |     69516708 |     69516708 |     69516708 |     69516708 |     69516708 |    146277327 |    146277327 |    146277327 |    146277327 |    146277327 |    146277327 |    146277327 |
sim_IPB                                     6.1401 |       6.1401 |       6.1401 |       6.1401 |       6.1401 |       6.1401 |       6.1401 |       6.0885 |       6.0885 |       6.0885 |       6.0885 |       6.0885 |       6.0885 |       6.0885 |       6.0509 |       6.0509 |       6.0509 |       6.0509 |       6.0509 |       6.0509 |       6.0509 |       6.0107 |       6.0107 |       6.0107 |       6.0107 |       6.0107 |       6.0107 |       6.0107 |       5.9817 |       5.9817 |       5.9817 |       5.9817 |       5.9817 |       5.9817 |       5.9817 |       5.9563 |       5.9563 |       5.9563 |       5.9563 |       5.9563 |       5.9563 |       5.9563 |       5.9338 |       5.9338 |       5.9338 |       5.9338 |       5.9338 |       5.9338 |       5.9338 |       5.9153 |       5.9153 |       5.9153 |       5.9153 |       5.9153 |       5.9153 |       5.9153 |       5.8897 |       5.8897 |       5.8897 |       5.8897 |       5.8897 |       5.8897 |       5.8897 |       5.8716 |       5.8716 |       5.8716 |       5.8716 |       5.8716 |       5.8716 |       5.8716 |       5.8591 |       5.8591 |       5.8591 |       5.8591 |       5.8591 |       5.8591 |       5.8591 |
bpred_bimod.lookups                          77175 |        77175 |        77175 |xxxxxxxxxxxxx |xxxxxxxxxxxxx |xxxxxxxxxxxxx |xxxxxxxxxxxxx |       166457 |       166457 |       166457 |xxxxxxxxxxxxx |xxxxxxxxxxxxx |xxxxxxxxxxxxx |xxxxxxxxxxxxx |       362296 |       362296 |       362296 |xxxxxxxxxxxxx |xxxxxxxxxxxxx |xxxxxxxxxxxxx |xxxxxxxxxxxxx |       775094 |       775094 |       775094 |xxxxxxxxxxxxx |xxxxxxxxxxxxx |xxxxxxxxxxxxx |xxxxxxxxxxxxx |      1666740 |      1666740 |      1666740 |xxxxxxxxxxxxx |xxxxxxxxxxxxx |xxxxxxxxxxxxx |xxxxxxxxxxxxx |      3510106 |      3510106 |      3510106 |xxxxxxxxxxxxx |xxxxxxxxxxxxx |xxxxxxxxxxxxx |xxxxxxxxxxxxx |      7503863 |      7503863 |      7503863 |xxxxxxxxxxxxx |xxxxxxxxxxxxx |xxxxxxxxxxxxx |xxxxxxxxxxxxx |     15678576 |     15678576 |     15678576 |xxxxxxxxxxxxx |xxxxxxxxxxxxx |xxxxxxxxxxxxx |xxxxxxxxxxxxx |     32945021 |     32945021 |     32945021 |xxxxxxxxxxxxx |xxxxxxxxxxxxx |xxxxxxxxxxxxx |xxxxxxxxxxxxx |     69516708 |     69516708 |     69516708 |xxxxxxxxxxxxx |xxxxxxxxxxxxx |xxxxxxxxxxxxx |xxxxxxxxxxxxx |    146277327 |    146277327 |    146277327 |
bpred_bimod.updates                          77175 |        77175 |        77175 |xxxxxxxxxxxxx |xxxxxxxxxxxxx |xxxxxxxxxxxxx |xxxxxxxxxxxxx |       166457 |       166457 |       166457 |xxxxxxxxxxxxx |xxxxxxxxxxxxx |xxxxxxxxxxxxx |xxxxxxxxxxxxx |       362296 |       362296 |       362296 |xxxxxxxxxxxxx |xxxxxxxxxxxxx |xxxxxxxxxxxxx |xxxxxxxxxxxxx |       775094 |       775094 |       775094 |xxxxxxxxxxxxx |xxxxxxxxxxxxx |xxxxxxxxxxxxx |xxxxxxxxxxxxx |      1666740 |      1666740 |      1666740 |xxxxxxxxxxxxx |xxxxxxxxxxxxx |xxxxxxxxxxxxx |xxxxxxxxxxxxx |      3510106 |      3510106 |      3510106 |xxxxxxxxxxxxx |xxxxxxxxxxxxx |xxxxxxxxxxxxx |xxxxxxxxxxxxx |      7503863 |      7503863 |      7503863 |xxxxxxxxxxxxx |xxxxxxxxxxxxx |xxxxxxxxxxxxx |xxxxxxxxxxxxx |     15678576 |     15678576 |     15678576 |xxxxxxxxxxxxx |xxxxxxxxxxxxx |xxxxxxxxxxxxx |xxxxxxxxxxxxx |     32945021 |     32945021 |     32945021 |xxxxxxxxxxxxx |xxxxxxxxxxxxx |xxxxxxxxxxxxx |xxxxxxxxxxxxx |     69516708 |     69516708 |     69516708 |xxxxxxxxxxxxx |xxxxxxxxxxxxx |xxxxxxxxxxxxx |xxxxxxxxxxxxx |    146277327 |    146277327 |    146277327 |
bpred_bimod.addr_hits                        55190 |        55189 |        55195 |xxxxxxxxxxxxx |xxxxxxxxxxxxx |xxxxxxxxxxxxx |xxxxxxxxxxxxx |       119119 |       119121 |       119124 |xxxxxxxxxxxxx |xxxxxxxxxxxxx |xxxxxxxxxxxxx |xxxxxxxxxxxxx |       263557 |       263558 |       263562 |xxxxxxxxxxxxx |xxxxxxxxxxxxx |xxxxxxxxxxxxx |xxxxxxxxxxxxx |       559629 |       559631 |       559630 |xxxxxxxxxxxxx |xxxxxxxxxxxxx |xxxxxxxxxxxxx |xxxxxxxxxxxxx |      1210220 |      1210222 |      1210222 |xxxxxxxxxxxxx |xxxxxxxxxxxxx |xxxxxxxxxxxxx |xxxxxxxxxxxxx |      2536848 |      2536849 |      2536848 |xxxxxxxxxxxxx |xxxxxxxxxxxxx |xxxxxxxxxxxxx |xxxxxxxxxxxxx |      5439299 |      5439300 |      5439299 |xxxxxxxxxxxxx |xxxxxxxxxxxxx |xxxxxxxxxxxxx |xxxxxxxxxxxxx |     11311260 |     11311261 |     11311259 |xxxxxxxxxxxxx |xxxxxxxxxxxxx |xxxxxxxxxxxxx |xxxxxxxxxxxxx |     23742221 |     23742223 |     23742224 |xxxxxxxxxxxxx |xxxxxxxxxxxxx |xxxxxxxxxxxxx |xxxxxxxxxxxxx |     50242978 |     50242980 |     50242981 |xxxxxxxxxxxxx |xxxxxxxxxxxxx |xxxxxxxxxxxxx |xxxxxxxxxxxxx |    105930127 |    105930129 |    105930130 |
bpred_bimod.dir_hits                         55299 |        55295 |        55301 |xxxxxxxxxxxxx |xxxxxxxxxxxxx |xxxxxxxxxxxxx |xxxxxxxxxxxxx |       119230 |       119230 |       119232 |xxxxxxxxxxxxx |xxxxxxxxxxxxx |xxxxxxxxxxxxx |xxxxxxxxxxxxx |       263667 |       263666 |       263670 |xxxxxxxxxxxxx |xxxxxxxxxxxxx |xxxxxxxxxxxxx |xxxxxxxxxxxxx |       559740 |       559739 |       559737 |xxxxxxxxxxxxx |xxxxxxxxxxxxx |xxxxxxxxxxxxx |xxxxxxxxxxxxx |      1210332 |      1210331 |      1210330 |xxxxxxxxxxxxx |xxxxxxxxxxxxx |xxxxxxxxxxxxx |xxxxxxxxxxxxx |      2536959 |      2536957 |      2536955 |xxxxxxxxxxxxx |xxxxxxxxxxxxx |xxxxxxxxxxxxx |xxxxxxxxxxxxx |      5439410 |      5439408 |      5439406 |xxxxxxxxxxxxx |xxxxxxxxxxxxx |xxxxxxxxxxxxx |xxxxxxxxxxxxx |     11311371 |     11311369 |     11311366 |xxxxxxxxxxxxx |xxxxxxxxxxxxx |xxxxxxxxxxxxx |xxxxxxxxxxxxx |     23742333 |     23742332 |     23742332 |xxxxxxxxxxxxx |xxxxxxxxxxxxx |xxxxxxxxxxxxx |xxxxxxxxxxxxx |     50243089 |     50243088 |     50243088 |xxxxxxxxxxxxx |xxxxxxxxxxxxx |xxxxxxxxxxxxx |xxxxxxxxxxxxx |    105930238 |    105930237 |    105930237 |
bpred_bimod.misses                           21876 |        21880 |        21874 |xxxxxxxxxxxxx |xxxxxxxxxxxxx |xxxxxxxxxxxxx |xxxxxxxxxxxxx |        47227 |        47227 |        47225 |xxxxxxxxxxxxx |xxxxxxxxxxxxx |xxxxxxxxxxxxx |xxxxxxxxxxxxx |        98629 |        98630 |        98626 |xxxxxxxxxxxxx |xxxxxxxxxxxxx |xxxxxxxxxxxxx |xxxxxxxxxxxxx |       215354 |       215355 |       215357 |xxxxxxxxxxxxx |xxxxxxxxxxxxx |xxxxxxxxxxxxx |xxxxxxxxxxxxx |       456408 |       456409 |       456410 |xxxxxxxxxxxxx |xxxxxxxxxxxxx |xxxxxxxxxxxxx |xxxxxxxxxxxxx |       973147 |       973149 |       973151 |xxxxxxxxxxxxx |xxxxxxxxxxxxx |xxxxxxxxxxxxx |xxxxxxxxxxxxx |      2064453 |      2064455 |      2064457 |xxxxxxxxxxxxx |xxxxxxxxxxxxx |xxxxxxxxxxxxx |xxxxxxxxxxxxx |      4367205 |      4367207 |      4367210 |xxxxxxxxxxxxx |xxxxxxxxxxxxx |xxxxxxxxxxxxx |xxxxxxxxxxxxx |      9202688 |      9202689 |      9202689 |xxxxxxxxxxxxx |xxxxxxxxxxxxx |xxxxxxxxxxxxx |xxxxxxxxxxxxx |     19273619 |     19273620 |     19273620 |xxxxxxxxxxxxx |xxxxxxxxxxxxx |xxxxxxxxxxxxx |xxxxxxxxxxxxx |     40347089 |     40347090 |     40347090 |
bpred_bimod.jr_hits                             64 |           64 |           64 |xxxxxxxxxxxxx |xxxxxxxxxxxxx |xxxxxxxxxxxxx |xxxxxxxxxxxxx |           64 |           64 |           64 |xxxxxxxxxxxxx |xxxxxxxxxxxxx |xxxxxxxxxxxxx |xxxxxxxxxxxxx |           64 |           64 |           64 |xxxxxxxxxxxxx |xxxxxxxxxxxxx |xxxxxxxxxxxxx |xxxxxxxxxxxxx |           64 |           64 |           64 |xxxxxxxxxxxxx |xxxxxxxxxxxxx |xxxxxxxxxxxxx |xxxxxxxxxxxxx |           64 |           64 |           64 |xxxxxxxxxxxxx |xxxxxxxxxxxxx |xxxxxxxxxxxxx |xxxxxxxxxxxxx |           64 |           64 |           64 |xxxxxxxxxxxxx |xxxxxxxxxxxxx |xxxxxxxxxxxxx |xxxxxxxxxxxxx |           64 |           64 |           64 |xxxxxxxxxxxxx |xxxxxxxxxxxxx |xxxxxxxxxxxxx |xxxxxxxxxxxxx |           64 |           64 |           64 |xxxxxxxxxxxxx |xxxxxxxxxxxxx |xxxxxxxxxxxxx |xxxxxxxxxxxxx |           64 |           64 |           64 |xxxxxxxxxxxxx |xxxxxxxxxxxxx |xxxxxxxxxxxxx |xxxxxxxxxxxxx |           64 |           64 |           64 |xxxxxxxxxxxxx |xxxxxxxxxxxxx |xxxxxxxxxxxxx |xxxxxxxxxxxxx |           64 |           64 |           64 |
bpred_bimod.jr_seen                             64 |           64 |           64 |xxxxxxxxxxxxx |xxxxxxxxxxxxx |xxxxxxxxxxxxx |xxxxxxxxxxxxx |           64 |           64 |           64 |xxxxxxxxxxxxx |xxxxxxxxxxxxx |xxxxxxxxxxxxx |xxxxxxxxxxxxx |           64 |           64 |           64 |xxxxxxxxxxxxx |xxxxxxxxxxxxx |xxxxxxxxxxxxx |xxxxxxxxxxxxx |           64 |           64 |           64 |xxxxxxxxxxxxx |xxxxxxxxxxxxx |xxxxxxxxxxxxx |xxxxxxxxxxxxx |           64 |           64 |           64 |xxxxxxxxxxxxx |xxxxxxxxxxxxx |xxxxxxxxxxxxx |xxxxxxxxxxxxx |           64 |           64 |           64 |xxxxxxxxxxxxx |xxxxxxxxxxxxx |xxxxxxxxxxxxx |xxxxxxxxxxxxx |           64 |           64 |           64 |xxxxxxxxxxxxx |xxxxxxxxxxxxx |xxxxxxxxxxxxx |xxxxxxxxxxxxx |           64 |           64 |           64 |xxxxxxxxxxxxx |xxxxxxxxxxxxx |xxxxxxxxxxxxx |xxxxxxxxxxxxx |           64 |           64 |           64 |xxxxxxxxxxxxx |xxxxxxxxxxxxx |xxxxxxxxxxxxx |xxxxxxxxxxxxx |           64 |           64 |           64 |xxxxxxxxxxxxx |xxxxxxxxxxxxx |xxxxxxxxxxxxx |xxxxxxxxxxxxx |           64 |           64 |           64 |
bpred_bimod.jr_non_ras_hits.PP                   0 |            0 |            0 |xxxxxxxxxxxxx |xxxxxxxxxxxxx |xxxxxxxxxxxxx |xxxxxxxxxxxxx |            0 |            0 |            0 |xxxxxxxxxxxxx |xxxxxxxxxxxxx |xxxxxxxxxxxxx |xxxxxxxxxxxxx |            0 |            0 |            0 |xxxxxxxxxxxxx |xxxxxxxxxxxxx |xxxxxxxxxxxxx |xxxxxxxxxxxxx |            0 |            0 |            0 |xxxxxxxxxxxxx |xxxxxxxxxxxxx |xxxxxxxxxxxxx |xxxxxxxxxxxxx |            0 |            0 |            0 |xxxxxxxxxxxxx |xxxxxxxxxxxxx |xxxxxxxxxxxxx |xxxxxxxxxxxxx |            0 |            0 |            0 |xxxxxxxxxxxxx |xxxxxxxxxxxxx |xxxxxxxxxxxxx |xxxxxxxxxxxxx |            0 |            0 |            0 |xxxxxxxxxxxxx |xxxxxxxxxxxxx |xxxxxxxxxxxxx |xxxxxxxxxxxxx |            0 |            0 |            0 |xxxxxxxxxxxxx |xxxxxxxxxxxxx |xxxxxxxxxxxxx |xxxxxxxxxxxxx |            0 |            0 |            0 |xxxxxxxxxxxxx |xxxxxxxxxxxxx |xxxxxxxxxxxxx |xxxxxxxxxxxxx |            0 |            0 |            0 |xxxxxxxxxxxxx |xxxxxxxxxxxxx |xxxxxxxxxxxxx |xxxxxxxxxxxxx |            0 |            0 |            0 |
bpred_bimod.jr_non_ras_seen.PP                   0 |            0 |            0 |xxxxxxxxxxxxx |xxxxxxxxxxxxx |xxxxxxxxxxxxx |xxxxxxxxxxxxx |            0 |            0 |            0 |xxxxxxxxxxxxx |xxxxxxxxxxxxx |xxxxxxxxxxxxx |xxxxxxxxxxxxx |            0 |            0 |            0 |xxxxxxxxxxxxx |xxxxxxxxxxxxx |xxxxxxxxxxxxx |xxxxxxxxxxxxx |            0 |            0 |            0 |xxxxxxxxxxxxx |xxxxxxxxxxxxx |xxxxxxxxxxxxx |xxxxxxxxxxxxx |            0 |            0 |            0 |xxxxxxxxxxxxx |xxxxxxxxxxxxx |xxxxxxxxxxxxx |xxxxxxxxxxxxx |            0 |            0 |            0 |xxxxxxxxxxxxx |xxxxxxxxxxxxx |xxxxxxxxxxxxx |xxxxxxxxxxxxx |            0 |            0 |            0 |xxxxxxxxxxxxx |xxxxxxxxxxxxx |xxxxxxxxxxxxx |xxxxxxxxxxxxx |            0 |            0 |            0 |xxxxxxxxxxxxx |xxxxxxxxxxxxx |xxxxxxxxxxxxx |xxxxxxxxxxxxx |            0 |            0 |            0 |xxxxxxxxxxxxx |xxxxxxxxxxxxx |xxxxxxxxxxxxx |xxxxxxxxxxxxx |            0 |            0 |            0 |xxxxxxxxxxxxx |xxxxxxxxxxxxx |xxxxxxxxxxxxx |xxxxxxxxxxxxx |            0 |            0 |            0 |
bpred_bimod.bpred_addr_rate                 0.7151 |       0.7151 |       0.7152 |xxxxxxxxxxxxx |xxxxxxxxxxxxx |xxxxxxxxxxxxx |xxxxxxxxxxxxx |       0.7156 |       0.7156 |       0.7156 |xxxxxxxxxxxxx |xxxxxxxxxxxxx |xxxxxxxxxxxxx |xxxxxxxxxxxxx |       0.7275 |       0.7275 |       0.7275 |xxxxxxxxxxxxx |xxxxxxxxxxxxx |xxxxxxxxxxxxx |xxxxxxxxxxxxx |       0.7220 |       0.7220 |       0.7220 |xxxxxxxxxxxxx |xxxxxxxxxxxxx |xxxxxxxxxxxxx |xxxxxxxxxxxxx |       0.7261 |       0.7261 |       0.7261 |xxxxxxxxxxxxx |xxxxxxxxxxxxx |xxxxxxxxxxxxx |xxxxxxxxxxxxx |       0.7227 |       0.7227 |       0.7227 |xxxxxxxxxxxxx |xxxxxxxxxxxxx |xxxxxxxxxxxxx |xxxxxxxxxxxxx |       0.7249 |       0.7249 |       0.7249 |xxxxxxxxxxxxx |xxxxxxxxxxxxx |xxxxxxxxxxxxx |xxxxxxxxxxxxx |       0.7214 |       0.7214 |       0.7214 |xxxxxxxxxxxxx |xxxxxxxxxxxxx |xxxxxxxxxxxxx |xxxxxxxxxxxxx |       0.7207 |       0.7207 |       0.7207 |xxxxxxxxxxxxx |xxxxxxxxxxxxx |xxxxxxxxxxxxx |xxxxxxxxxxxxx |       0.7227 |       0.7227 |       0.7227 |xxxxxxxxxxxxx |xxxxxxxxxxxxx |xxxxxxxxxxxxx |xxxxxxxxxxxxx |       0.7242 |       0.7242 |       0.7242 |
bpred_bimod.bpred_dir_rate                  0.7165 |       0.7165 |       0.7166 |xxxxxxxxxxxxx |xxxxxxxxxxxxx |xxxxxxxxxxxxx |xxxxxxxxxxxxx |       0.7163 |       0.7163 |       0.7163 |xxxxxxxxxxxxx |xxxxxxxxxxxxx |xxxxxxxxxxxxx |xxxxxxxxxxxxx |       0.7278 |       0.7278 |       0.7278 |xxxxxxxxxxxxx |xxxxxxxxxxxxx |xxxxxxxxxxxxx |xxxxxxxxxxxxx |       0.7222 |       0.7222 |       0.7222 |xxxxxxxxxxxxx |xxxxxxxxxxxxx |xxxxxxxxxxxxx |xxxxxxxxxxxxx |       0.7262 |       0.7262 |       0.7262 |xxxxxxxxxxxxx |xxxxxxxxxxxxx |xxxxxxxxxxxxx |xxxxxxxxxxxxx |       0.7228 |       0.7228 |       0.7228 |xxxxxxxxxxxxx |xxxxxxxxxxxxx |xxxxxxxxxxxxx |xxxxxxxxxxxxx |       0.7249 |       0.7249 |       0.7249 |xxxxxxxxxxxxx |xxxxxxxxxxxxx |xxxxxxxxxxxxx |xxxxxxxxxxxxx |       0.7215 |       0.7215 |       0.7215 |xxxxxxxxxxxxx |xxxxxxxxxxxxx |xxxxxxxxxxxxx |xxxxxxxxxxxxx |       0.7207 |       0.7207 |       0.7207 |xxxxxxxxxxxxx |xxxxxxxxxxxxx |xxxxxxxxxxxxx |xxxxxxxxxxxxx |       0.7227 |       0.7227 |       0.7227 |xxxxxxxxxxxxx |xxxxxxxxxxxxx |xxxxxxxxxxxxx |xxxxxxxxxxxxx |       0.7242 |       0.7242 |       0.7242 |
bpred_bimod.bpred_jr_rate                   1.0000 |       1.0000 |       1.0000 |xxxxxxxxxxxxx |xxxxxxxxxxxxx |xxxxxxxxxxxxx |xxxxxxxxxxxxx |       1.0000 |       1.0000 |       1.0000 |xxxxxxxxxxxxx |xxxxxxxxxxxxx |xxxxxxxxxxxxx |xxxxxxxxxxxxx |       1.0000 |       1.0000 |       1.0000 |xxxxxxxxxxxxx |xxxxxxxxxxxxx |xxxxxxxxxxxxx |xxxxxxxxxxxxx |       1.0000 |       1.0000 |       1.0000 |xxxxxxxxxxxxx |xxxxxxxxxxxxx |xxxxxxxxxxxxx |xxxxxxxxxxxxx |       1.0000 |       1.0000 |       1.0000 |xxxxxxxxxxxxx |xxxxxxxxxxxxx |xxxxxxxxxxxxx |xxxxxxxxxxxxx |       1.0000 |       1.0000 |       1.0000 |xxxxxxxxxxxxx |xxxxxxxxxxxxx |xxxxxxxxxxxxx |xxxxxxxxxxxxx |       1.0000 |       1.0000 |       1.0000 |xxxxxxxxxxxxx |xxxxxxxxxxxxx |xxxxxxxxxxxxx |xxxxxxxxxxxxx |       1.0000 |       1.0000 |       1.0000 |xxxxxxxxxxxxx |xxxxxxxxxxxxx |xxxxxxxxxxxxx |xxxxxxxxxxxxx |       1.0000 |       1.0000 |       1.0000 |xxxxxxxxxxxxx |xxxxxxxxxxxxx |xxxxxxxxxxxxx |xxxxxxxxxxxxx |       1.0000 |       1.0000 |       1.0000 |xxxxxxxxxxxxx |xxxxxxxxxxxxx |xxxxxxxxxxxxx |xxxxxxxxxxxxx |       1.0000 |       1.0000 |       1.0000 |
bpred_bimod.bpred_jr_non_ras_rate.PP       <error: |      <error: |      <error: |xxxxxxxxxxxxx |xxxxxxxxxxxxx |xxxxxxxxxxxxx |xxxxxxxxxxxxx |      <error: |      <error: |      <error: |xxxxxxxxxxxxx |xxxxxxxxxxxxx |xxxxxxxxxxxxx |xxxxxxxxxxxxx |      <error: |      <error: |      <error: |xxxxxxxxxxxxx |xxxxxxxxxxxxx |xxxxxxxxxxxxx |xxxxxxxxxxxxx |      <error: |      <error: |      <error: |xxxxxxxxxxxxx |xxxxxxxxxxxxx |xxxxxxxxxxxxx |xxxxxxxxxxxxx |      <error: |      <error: |      <error: |xxxxxxxxxxxxx |xxxxxxxxxxxxx |xxxxxxxxxxxxx |xxxxxxxxxxxxx |      <error: |      <error: |      <error: |xxxxxxxxxxxxx |xxxxxxxxxxxxx |xxxxxxxxxxxxx |xxxxxxxxxxxxx |      <error: |      <error: |      <error: |xxxxxxxxxxxxx |xxxxxxxxxxxxx |xxxxxxxxxxxxx |xxxxxxxxxxxxx |      <error: |      <error: |      <error: |xxxxxxxxxxxxx |xxxxxxxxxxxxx |xxxxxxxxxxxxx |xxxxxxxxxxxxx |      <error: |      <error: |      <error: |xxxxxxxxxxxxx |xxxxxxxxxxxxx |xxxxxxxxxxxxx |xxxxxxxxxxxxx |      <error: |      <error: |      <error: |xxxxxxxxxxxxx |xxxxxxxxxxxxx |xxxxxxxxxxxxx |xxxxxxxxxxxxx |      <error: |      <error: |      <error: |
bpred_bimod.retstack_pushes                     66 |           66 |           66 |xxxxxxxxxxxxx |xxxxxxxxxxxxx |xxxxxxxxxxxxx |xxxxxxxxxxxxx |           66 |           66 |           66 |xxxxxxxxxxxxx |xxxxxxxxxxxxx |xxxxxxxxxxxxx |xxxxxxxxxxxxx |           66 |           66 |           66 |xxxxxxxxxxxxx |xxxxxxxxxxxxx |xxxxxxxxxxxxx |xxxxxxxxxxxxx |           66 |           66 |           66 |xxxxxxxxxxxxx |xxxxxxxxxxxxx |xxxxxxxxxxxxx |xxxxxxxxxxxxx |           66 |           66 |           66 |xxxxxxxxxxxxx |xxxxxxxxxxxxx |xxxxxxxxxxxxx |xxxxxxxxxxxxx |           66 |           66 |           66 |xxxxxxxxxxxxx |xxxxxxxxxxxxx |xxxxxxxxxxxxx |xxxxxxxxxxxxx |           66 |           66 |           66 |xxxxxxxxxxxxx |xxxxxxxxxxxxx |xxxxxxxxxxxxx |xxxxxxxxxxxxx |           66 |           66 |           66 |xxxxxxxxxxxxx |xxxxxxxxxxxxx |xxxxxxxxxxxxx |xxxxxxxxxxxxx |           66 |           66 |           66 |xxxxxxxxxxxxx |xxxxxxxxxxxxx |xxxxxxxxxxxxx |xxxxxxxxxxxxx |           66 |           66 |           66 |xxxxxxxxxxxxx |xxxxxxxxxxxxx |xxxxxxxxxxxxx |xxxxxxxxxxxxx |           66 |           66 |           66 |
bpred_bimod.retstack_pops                       64 |           64 |           64 |xxxxxxxxxxxxx |xxxxxxxxxxxxx |xxxxxxxxxxxxx |xxxxxxxxxxxxx |           64 |           64 |           64 |xxxxxxxxxxxxx |xxxxxxxxxxxxx |xxxxxxxxxxxxx |xxxxxxxxxxxxx |           64 |           64 |           64 |xxxxxxxxxxxxx |xxxxxxxxxxxxx |xxxxxxxxxxxxx |xxxxxxxxxxxxx |           64 |           64 |           64 |xxxxxxxxxxxxx |xxxxxxxxxxxxx |xxxxxxxxxxxxx |xxxxxxxxxxxxx |           64 |           64 |           64 |xxxxxxxxxxxxx |xxxxxxxxxxxxx |xxxxxxxxxxxxx |xxxxxxxxxxxxx |           64 |           64 |           64 |xxxxxxxxxxxxx |xxxxxxxxxxxxx |xxxxxxxxxxxxx |xxxxxxxxxxxxx |           64 |           64 |           64 |xxxxxxxxxxxxx |xxxxxxxxxxxxx |xxxxxxxxxxxxx |xxxxxxxxxxxxx |           64 |           64 |           64 |xxxxxxxxxxxxx |xxxxxxxxxxxxx |xxxxxxxxxxxxx |xxxxxxxxxxxxx |           64 |           64 |           64 |xxxxxxxxxxxxx |xxxxxxxxxxxxx |xxxxxxxxxxxxx |xxxxxxxxxxxxx |           64 |           64 |           64 |xxxxxxxxxxxxx |xxxxxxxxxxxxx |xxxxxxxxxxxxx |xxxxxxxxxxxxx |           64 |           64 |           64 |
bpred_bimod.used_ras.PP                         64 |           64 |           64 |xxxxxxxxxxxxx |xxxxxxxxxxxxx |xxxxxxxxxxxxx |xxxxxxxxxxxxx |           64 |           64 |           64 |xxxxxxxxxxxxx |xxxxxxxxxxxxx |xxxxxxxxxxxxx |xxxxxxxxxxxxx |           64 |           64 |           64 |xxxxxxxxxxxxx |xxxxxxxxxxxxx |xxxxxxxxxxxxx |xxxxxxxxxxxxx |           64 |           64 |           64 |xxxxxxxxxxxxx |xxxxxxxxxxxxx |xxxxxxxxxxxxx |xxxxxxxxxxxxx |           64 |           64 |           64 |xxxxxxxxxxxxx |xxxxxxxxxxxxx |xxxxxxxxxxxxx |xxxxxxxxxxxxx |           64 |           64 |           64 |xxxxxxxxxxxxx |xxxxxxxxxxxxx |xxxxxxxxxxxxx |xxxxxxxxxxxxx |           64 |           64 |           64 |xxxxxxxxxxxxx |xxxxxxxxxxxxx |xxxxxxxxxxxxx |xxxxxxxxxxxxx |           64 |           64 |           64 |xxxxxxxxxxxxx |xxxxxxxxxxxxx |xxxxxxxxxxxxx |xxxxxxxxxxxxx |           64 |           64 |           64 |xxxxxxxxxxxxx |xxxxxxxxxxxxx |xxxxxxxxxxxxx |xxxxxxxxxxxxx |           64 |           64 |           64 |xxxxxxxxxxxxx |xxxxxxxxxxxxx |xxxxxxxxxxxxx |xxxxxxxxxxxxx |           64 |           64 |           64 |
bpred_bimod.ras_hits.PP                         64 |           64 |           64 |xxxxxxxxxxxxx |xxxxxxxxxxxxx |xxxxxxxxxxxxx |xxxxxxxxxxxxx |           64 |           64 |           64 |xxxxxxxxxxxxx |xxxxxxxxxxxxx |xxxxxxxxxxxxx |xxxxxxxxxxxxx |           64 |           64 |           64 |xxxxxxxxxxxxx |xxxxxxxxxxxxx |xxxxxxxxxxxxx |xxxxxxxxxxxxx |           64 |           64 |           64 |xxxxxxxxxxxxx |xxxxxxxxxxxxx |xxxxxxxxxxxxx |xxxxxxxxxxxxx |           64 |           64 |           64 |xxxxxxxxxxxxx |xxxxxxxxxxxxx |xxxxxxxxxxxxx |xxxxxxxxxxxxx |           64 |           64 |           64 |xxxxxxxxxxxxx |xxxxxxxxxxxxx |xxxxxxxxxxxxx |xxxxxxxxxxxxx |           64 |           64 |           64 |xxxxxxxxxxxxx |xxxxxxxxxxxxx |xxxxxxxxxxxxx |xxxxxxxxxxxxx |           64 |           64 |           64 |xxxxxxxxxxxxx |xxxxxxxxxxxxx |xxxxxxxxxxxxx |xxxxxxxxxxxxx |           64 |           64 |           64 |xxxxxxxxxxxxx |xxxxxxxxxxxxx |xxxxxxxxxxxxx |xxxxxxxxxxxxx |           64 |           64 |           64 |xxxxxxxxxxxxx |xxxxxxxxxxxxx |xxxxxxxxxxxxx |xxxxxxxxxxxxx |           64 |           64 |           64 |
bpred_bimod.ras_rate.PP                     1.0000 |       1.0000 |       1.0000 |xxxxxxxxxxxxx |xxxxxxxxxxxxx |xxxxxxxxxxxxx |xxxxxxxxxxxxx |       1.0000 |       1.0000 |       1.0000 |xxxxxxxxxxxxx |xxxxxxxxxxxxx |xxxxxxxxxxxxx |xxxxxxxxxxxxx |       1.0000 |       1.0000 |       1.0000 |xxxxxxxxxxxxx |xxxxxxxxxxxxx |xxxxxxxxxxxxx |xxxxxxxxxxxxx |       1.0000 |       1.0000 |       1.0000 |xxxxxxxxxxxxx |xxxxxxxxxxxxx |xxxxxxxxxxxxx |xxxxxxxxxxxxx |       1.0000 |       1.0000 |       1.0000 |xxxxxxxxxxxxx |xxxxxxxxxxxxx |xxxxxxxxxxxxx |xxxxxxxxxxxxx |       1.0000 |       1.0000 |       1.0000 |xxxxxxxxxxxxx |xxxxxxxxxxxxx |xxxxxxxxxxxxx |xxxxxxxxxxxxx |       1.0000 |       1.0000 |       1.0000 |xxxxxxxxxxxxx |xxxxxxxxxxxxx |xxxxxxxxxxxxx |xxxxxxxxxxxxx |       1.0000 |       1.0000 |       1.0000 |xxxxxxxxxxxxx |xxxxxxxxxxxxx |xxxxxxxxxxxxx |xxxxxxxxxxxxx |       1.0000 |       1.0000 |       1.0000 |xxxxxxxxxxxxx |xxxxxxxxxxxxx |xxxxxxxxxxxxx |xxxxxxxxxxxxx |       1.0000 |       1.0000 |       1.0000 |xxxxxxxxxxxxx |xxxxxxxxxxxxx |xxxxxxxxxxxxx |xxxxxxxxxxxxx |       1.0000 |       1.0000 |       1.0000 |
bpred_2lev.lookups                   xxxxxxxxxxxxx |xxxxxxxxxxxxx |xxxxxxxxxxxxx |        77175 |        77175 |        77175 |        77175 |xxxxxxxxxxxxx |xxxxxxxxxxxxx |xxxxxxxxxxxxx |       166457 |       166457 |       166457 |       166457 |xxxxxxxxxxxxx |xxxxxxxxxxxxx |xxxxxxxxxxxxx |       362296 |       362296 |       362296 |       362296 |xxxxxxxxxxxxx |xxxxxxxxxxxxx |xxxxxxxxxxxxx |       775094 |       775094 |       775094 |       775094 |xxxxxxxxxxxxx |xxxxxxxxxxxxx |xxxxxxxxxxxxx |      1666740 |      1666740 |      1666740 |      1666740 |xxxxxxxxxxxxx |xxxxxxxxxxxxx |xxxxxxxxxxxxx |      3510106 |      3510106 |      3510106 |      3510106 |xxxxxxxxxxxxx |xxxxxxxxxxxxx |xxxxxxxxxxxxx |      7503863 |      7503863 |      7503863 |      7503863 |xxxxxxxxxxxxx |xxxxxxxxxxxxx |xxxxxxxxxxxxx |     15678576 |     15678576 |     15678576 |     15678576 |xxxxxxxxxxxxx |xxxxxxxxxxxxx |xxxxxxxxxxxxx |     32945021 |     32945021 |     32945021 |     32945021 |xxxxxxxxxxxxx |xxxxxxxxxxxxx |xxxxxxxxxxxxx |     69516708 |     69516708 |     69516708 |     69516708 |xxxxxxxxxxxxx |xxxxxxxxxxxxx |xxxxxxxxxxxxx |    146277327 |    146277327 |    146277327 |    146277327 |
[...]
bpred_2lev.retstack_pushes           xxxxxxxxxxxxx |xxxxxxxxxxxxx |xxxxxxxxxxxxx |           66 |           66 |           66 |           66 |xxxxxxxxxxxxx |xxxxxxxxxxxxx |xxxxxxxxxxxxx |           66 |           66 |           66 |           66 |xxxxxxxxxxxxx |xxxxxxxxxxxxx |xxxxxxxxxxxxx |           66 |           66 |           66 |           66 |xxxxxxxxxxxxx |xxxxxxxxxxxxx |xxxxxxxxxxxxx |           66 |           66 |           66 |           66 |xxxxxxxxxxxxx |xxxxxxxxxxxxx |xxxxxxxxxxxxx |           66 |           66 |           66 |           66 |xxxxxxxxxxxxx |xxxxxxxxxxxxx |xxxxxxxxxxxxx |           66 |           66 |           66 |           66 |xxxxxxxxxxxxx |xxxxxxxxxxxxx |xxxxxxxxxxxxx |           66 |           66 |           66 |           66 |xxxxxxxxxxxxx |xxxxxxxxxxxxx |xxxxxxxxxxxxx |           66 |           66 |           66 |           66 |xxxxxxxxxxxxx |xxxxxxxxxxxxx |xxxxxxxxxxxxx |           66 |           66 |           66 |           66 |xxxxxxxxxxxxx |xxxxxxxxxxxxx |xxxxxxxxxxxxx |           66 |           66 |           66 |           66 |xxxxxxxxxxxxx |xxxxxxxxxxxxx |xxxxxxxxxxxxx |           66 |           66 |           66 |           66 |
bpred_2lev.retstack_pops             xxxxxxxxxxxxx |xxxxxxxxxxxxx |xxxxxxxxxxxxx |           64 |           64 |           64 |           64 |xxxxxxxxxxxxx |xxxxxxxxxxxxx |xxxxxxxxxxxxx |           64 |           64 |           64 |           64 |xxxxxxxxxxxxx |xxxxxxxxxxxxx |xxxxxxxxxxxxx |           64 |           64 |           64 |           64 |xxxxxxxxxxxxx |xxxxxxxxxxxxx |xxxxxxxxxxxxx |           64 |           64 |           64 |           64 |xxxxxxxxxxxxx |xxxxxxxxxxxxx |xxxxxxxxxxxxx |           64 |           64 |           64 |           64 |xxxxxxxxxxxxx |xxxxxxxxxxxxx |xxxxxxxxxxxxx |           64 |           64 |           64 |           64 |xxxxxxxxxxxxx |xxxxxxxxxxxxx |xxxxxxxxxxxxx |           64 |           64 |           64 |           64 |xxxxxxxxxxxxx |xxxxxxxxxxxxx |xxxxxxxxxxxxx |           64 |           64 |           64 |           64 |xxxxxxxxxxxxx |xxxxxxxxxxxxx |xxxxxxxxxxxxx |           64 |           64 |           64 |           64 |xxxxxxxxxxxxx |xxxxxxxxxxxxx |xxxxxxxxxxxxx |           64 |           64 |           64 |           64 |xxxxxxxxxxxxx |xxxxxxxxxxxxx |xxxxxxxxxxxxx |           64 |           64 |           64 |           64 |
bpred_2lev.used_ras.PP               xxxxxxxxxxxxx |xxxxxxxxxxxxx |xxxxxxxxxxxxx |           64 |           64 |           64 |           64 |xxxxxxxxxxxxx |xxxxxxxxxxxxx |xxxxxxxxxxxxx |           64 |           64 |           64 |           64 |xxxxxxxxxxxxx |xxxxxxxxxxxxx |xxxxxxxxxxxxx |           64 |           64 |           64 |           64 |xxxxxxxxxxxxx |xxxxxxxxxxxxx |xxxxxxxxxxxxx |           64 |           64 |           64 |           64 |xxxxxxxxxxxxx |xxxxxxxxxxxxx |xxxxxxxxxxxxx |           64 |           64 |           64 |           64 |xxxxxxxxxxxxx |xxxxxxxxxxxxx |xxxxxxxxxxxxx |           64 |           64 |           64 |           64 |xxxxxxxxxxxxx |xxxxxxxxxxxxx |xxxxxxxxxxxxx |           64 |           64 |           64 |           64 |xxxxxxxxxxxxx |xxxxxxxxxxxxx |xxxxxxxxxxxxx |           64 |           64 |           64 |           64 |xxxxxxxxxxxxx |xxxxxxxxxxxxx |xxxxxxxxxxxxx |           64 |           64 |           64 |           64 |xxxxxxxxxxxxx |xxxxxxxxxxxxx |xxxxxxxxxxxxx |           64 |           64 |           64 |           64 |xxxxxxxxxxxxx |xxxxxxxxxxxxx |xxxxxxxxxxxxx |           64 |           64 |           64 |           64 |
bpred_2lev.ras_hits.PP               xxxxxxxxxxxxx |xxxxxxxxxxxxx |xxxxxxxxxxxxx |           64 |           64 |           64 |           64 |xxxxxxxxxxxxx |xxxxxxxxxxxxx |xxxxxxxxxxxxx |           64 |           64 |           64 |           64 |xxxxxxxxxxxxx |xxxxxxxxxxxxx |xxxxxxxxxxxxx |           64 |           64 |           64 |           64 |xxxxxxxxxxxxx |xxxxxxxxxxxxx |xxxxxxxxxxxxx |           64 |           64 |           64 |           64 |xxxxxxxxxxxxx |xxxxxxxxxxxxx |xxxxxxxxxxxxx |           64 |           64 |           64 |           64 |xxxxxxxxxxxxx |xxxxxxxxxxxxx |xxxxxxxxxxxxx |           64 |           64 |           64 |           64 |xxxxxxxxxxxxx |xxxxxxxxxxxxx |xxxxxxxxxxxxx |           64 |           64 |           64 |           64 |xxxxxxxxxxxxx |xxxxxxxxxxxxx |xxxxxxxxxxxxx |           64 |           64 |           64 |           64 |xxxxxxxxxxxxx |xxxxxxxxxxxxx |xxxxxxxxxxxxx |           64 |           64 |           64 |           64 |xxxxxxxxxxxxx |xxxxxxxxxxxxx |xxxxxxxxxxxxx |           64 |           64 |           64 |           64 |xxxxxxxxxxxxx |xxxxxxxxxxxxx |xxxxxxxxxxxxx |           64 |           64 |           64 |           64 |
bpred_2lev.ras_rate.PP               xxxxxxxxxxxxx |xxxxxxxxxxxxx |xxxxxxxxxxxxx |       1.0000 |       1.0000 |       1.0000 |       1.0000 |xxxxxxxxxxxxx |xxxxxxxxxxxxx |xxxxxxxxxxxxx |       1.0000 |       1.0000 |       1.0000 |       1.0000 |xxxxxxxxxxxxx |xxxxxxxxxxxxx |xxxxxxxxxxxxx |       1.0000 |       1.0000 |       1.0000 |       1.0000 |xxxxxxxxxxxxx |xxxxxxxxxxxxx |xxxxxxxxxxxxx |       1.0000 |       1.0000 |       1.0000 |       1.0000 |xxxxxxxxxxxxx |xxxxxxxxxxxxx |xxxxxxxxxxxxx |       1.0000 |       1.0000 |       1.0000 |       1.0000 |xxxxxxxxxxxxx |xxxxxxxxxxxxx |xxxxxxxxxxxxx |       1.0000 |       1.0000 |       1.0000 |       1.0000 |xxxxxxxxxxxxx |xxxxxxxxxxxxx |xxxxxxxxxxxxx |       1.0000 |       1.0000 |       1.0000 |       1.0000 |xxxxxxxxxxxxx |xxxxxxxxxxxxx |xxxxxxxxxxxxx |       1.0000 |       1.0000 |       1.0000 |       1.0000 |xxxxxxxxxxxxx |xxxxxxxxxxxxx |xxxxxxxxxxxxx |       1.0000 |       1.0000 |       1.0000 |       1.0000 |xxxxxxxxxxxxx |xxxxxxxxxxxxx |xxxxxxxxxxxxx |       1.0000 |       1.0000 |       1.0000 |       1.0000 |xxxxxxxxxxxxx |xxxxxxxxxxxxx |xxxxxxxxxxxxx |       1.0000 |       1.0000 |       1.0000 |       1.0000 |

Command list: 
	sslittle-na-sstrix-gcc -Wall -O3 -funroll-loops -finline-functions  -DRANDOM_SIZE=4096 -DOFFSET=2 -DSORT=base_quicksort sorts/base_quicksort67990489.c simpleMain.c -o base_quicksort655959686
	sim-cache -cache:dl1 dl1:256:32:1:l -cache:dl2 dl2:131072:32:1:l -cache:il1 il1:256:32:1:l -cache:il2 dl2 base_quicksort655959686
	sim-cache -cache:dl1 dl1:256:32:1:l -cache:dl2 dl2:65536:32:1:l -cache:il1 il1:256:32:1:l -cache:il2 dl2 base_quicksort655959686
	sim-cache -cache:dl1 dl1:1:32:256:l -cache:dl2 dl2:1:32:131072:l -cache:il1 il1:1:32:256:l -cache:il2 dl2 base_quicksort655959686
	sim-cache -cache:dl1 dl1:1:32:256:l -cache:dl2 dl2:1:32:65536:l -cache:il1 il1:1:32:256:l -cache:il2 dl2 base_quicksort655959686
	sim-bpred -bpred bimod -bpred:bimod 512 base_quicksort655959686
	sim-bpred -bpred bimod -bpred:bimod 1024 base_quicksort655959686
	sim-bpred -bpred bimod -bpred:bimod 2048 base_quicksort655959686
	sim-bpred -bpred 2lev -bpred:2lev 1 512 10 1 base_quicksort655959686
	sim-bpred -bpred 2lev -bpred:2lev 1 1024 10 1 base_quicksort655959686
	sim-bpred -bpred 2lev -bpred:2lev 1 2048 10 1 base_quicksort655959686
	sim-bpred -bpred 2lev -bpred:2lev 1 4096 10 1 base_quicksort655959686
	sslittle-na-sstrix-gcc -Wall -O3 -funroll-loops -finline-functions  -DRANDOM_SIZE=8192 -DOFFSET=2 -DSORT=base_quicksort sorts/base_quicksort67990489.c simpleMain.c -o base_quicksort655959686
	sim-cache -cache:dl1 dl1:256:32:1:l -cache:dl2 dl2:131072:32:1:l -cache:il1 il1:256:32:1:l -cache:il2 dl2 base_quicksort655959686
	sim-cache -cache:dl1 dl1:256:32:1:l -cache:dl2 dl2:65536:32:1:l -cache:il1 il1:256:32:1:l -cache:il2 dl2 base_quicksort655959686
	sim-cache -cache:dl1 dl1:1:32:256:l -cache:dl2 dl2:1:32:131072:l -cache:il1 il1:1:32:256:l -cache:il2 dl2 base_quicksort655959686
	sim-cache -cache:dl1 dl1:1:32:256:l -cache:dl2 dl2:1:32:65536:l -cache:il1 il1:1:32:256:l -cache:il2 dl2 base_quicksort655959686
	sim-bpred -bpred bimod -bpred:bimod 512 base_quicksort655959686
	sim-bpred -bpred bimod -bpred:bimod 1024 base_quicksort655959686
	sim-bpred -bpred bimod -bpred:bimod 2048 base_quicksort655959686
	sim-bpred -bpred 2lev -bpred:2lev 1 512 10 1 base_quicksort655959686
	sim-bpred -bpred 2lev -bpred:2lev 1 1024 10 1 base_quicksort655959686
	sim-bpred -bpred 2lev -bpred:2lev 1 2048 10 1 base_quicksort655959686
	sim-bpred -bpred 2lev -bpred:2lev 1 4096 10 1 base_quicksort655959686
	sslittle-na-sstrix-gcc -Wall -O3 -funroll-loops -finline-functions  -DRANDOM_SIZE=16384 -DOFFSET=2 -DSORT=base_quicksort sorts/base_quicksort67990489.c simpleMain.c -o base_quicksort655959686
	sim-cache -cache:dl1 dl1:256:32:1:l -cache:dl2 dl2:131072:32:1:l -cache:il1 il1:256:32:1:l -cache:il2 dl2 base_quicksort655959686
	sim-cache -cache:dl1 dl1:256:32:1:l -cache:dl2 dl2:65536:32:1:l -cache:il1 il1:256:32:1:l -cache:il2 dl2 base_quicksort655959686
	sim-cache -cache:dl1 dl1:1:32:256:l -cache:dl2 dl2:1:32:131072:l -cache:il1 il1:1:32:256:l -cache:il2 dl2 base_quicksort655959686
	sim-cache -cache:dl1 dl1:1:32:256:l -cache:dl2 dl2:1:32:65536:l -cache:il1 il1:1:32:256:l -cache:il2 dl2 base_quicksort655959686
	sim-bpred -bpred bimod -bpred:bimod 512 base_quicksort655959686
	sim-bpred -bpred bimod -bpred:bimod 1024 base_quicksort655959686
	sim-bpred -bpred bimod -bpred:bimod 2048 base_quicksort655959686
	sim-bpred -bpred 2lev -bpred:2lev 1 512 10 1 base_quicksort655959686
	sim-bpred -bpred 2lev -bpred:2lev 1 1024 10 1 base_quicksort655959686
	sim-bpred -bpred 2lev -bpred:2lev 1 2048 10 1 base_quicksort655959686
	sim-bpred -bpred 2lev -bpred:2lev 1 4096 10 1 base_quicksort655959686
	sslittle-na-sstrix-gcc -Wall -O3 -funroll-loops -finline-functions  -DRANDOM_SIZE=32768 -DOFFSET=2 -DSORT=base_quicksort sorts/base_quicksort67990489.c simpleMain.c -o base_quicksort655959686
	sim-cache -cache:dl1 dl1:256:32:1:l -cache:dl2 dl2:131072:32:1:l -cache:il1 il1:256:32:1:l -cache:il2 dl2 base_quicksort655959686
	sim-cache -cache:dl1 dl1:256:32:1:l -cache:dl2 dl2:65536:32:1:l -cache:il1 il1:256:32:1:l -cache:il2 dl2 base_quicksort655959686
	sim-cache -cache:dl1 dl1:1:32:256:l -cache:dl2 dl2:1:32:131072:l -cache:il1 il1:1:32:256:l -cache:il2 dl2 base_quicksort655959686
	sim-cache -cache:dl1 dl1:1:32:256:l -cache:dl2 dl2:1:32:65536:l -cache:il1 il1:1:32:256:l -cache:il2 dl2 base_quicksort655959686
	sim-bpred -bpred bimod -bpred:bimod 512 base_quicksort655959686
	sim-bpred -bpred bimod -bpred:bimod 1024 base_quicksort655959686
	sim-bpred -bpred bimod -bpred:bimod 2048 base_quicksort655959686
	sim-bpred -bpred 2lev -bpred:2lev 1 512 10 1 base_quicksort655959686
	sim-bpred -bpred 2lev -bpred:2lev 1 1024 10 1 base_quicksort655959686
	sim-bpred -bpred 2lev -bpred:2lev 1 2048 10 1 base_quicksort655959686
	sim-bpred -bpred 2lev -bpred:2lev 1 4096 10 1 base_quicksort655959686
	sslittle-na-sstrix-gcc -Wall -O3 -funroll-loops -finline-functions  -DRANDOM_SIZE=65536 -DOFFSET=2 -DSORT=base_quicksort sorts/base_quicksort67990489.c simpleMain.c -o base_quicksort655959686
	sim-cache -cache:dl1 dl1:256:32:1:l -cache:dl2 dl2:131072:32:1:l -cache:il1 il1:256:32:1:l -cache:il2 dl2 base_quicksort655959686
	sim-cache -cache:dl1 dl1:256:32:1:l -cache:dl2 dl2:65536:32:1:l -cache:il1 il1:256:32:1:l -cache:il2 dl2 base_quicksort655959686
	sim-cache -cache:dl1 dl1:1:32:256:l -cache:dl2 dl2:1:32:131072:l -cache:il1 il1:1:32:256:l -cache:il2 dl2 base_quicksort655959686
	sim-cache -cache:dl1 dl1:1:32:256:l -cache:dl2 dl2:1:32:65536:l -cache:il1 il1:1:32:256:l -cache:il2 dl2 base_quicksort655959686
	sim-bpred -bpred bimod -bpred:bimod 512 base_quicksort655959686
	sim-bpred -bpred bimod -bpred:bimod 1024 base_quicksort655959686
	sim-bpred -bpred bimod -bpred:bimod 2048 base_quicksort655959686
	sim-bpred -bpred 2lev -bpred:2lev 1 512 10 1 base_quicksort655959686
	sim-bpred -bpred 2lev -bpred:2lev 1 1024 10 1 base_quicksort655959686
	sim-bpred -bpred 2lev -bpred:2lev 1 2048 10 1 base_quicksort655959686
	sim-bpred -bpred 2lev -bpred:2lev 1 4096 10 1 base_quicksort655959686
	sslittle-na-sstrix-gcc -Wall -O3 -funroll-loops -finline-functions  -DRANDOM_SIZE=131072 -DOFFSET=2 -DSORT=base_quicksort sorts/base_quicksort67990489.c simpleMain.c -o base_quicksort655959686
	sim-cache -cache:dl1 dl1:256:32:1:l -cache:dl2 dl2:131072:32:1:l -cache:il1 il1:256:32:1:l -cache:il2 dl2 base_quicksort655959686
	sim-cache -cache:dl1 dl1:256:32:1:l -cache:dl2 dl2:65536:32:1:l -cache:il1 il1:256:32:1:l -cache:il2 dl2 base_quicksort655959686
	sim-cache -cache:dl1 dl1:1:32:256:l -cache:dl2 dl2:1:32:131072:l -cache:il1 il1:1:32:256:l -cache:il2 dl2 base_quicksort655959686
	sim-cache -cache:dl1 dl1:1:32:256:l -cache:dl2 dl2:1:32:65536:l -cache:il1 il1:1:32:256:l -cache:il2 dl2 base_quicksort655959686
	sim-bpred -bpred bimod -bpred:bimod 512 base_quicksort655959686
	sim-bpred -bpred bimod -bpred:bimod 1024 base_quicksort655959686
	sim-bpred -bpred bimod -bpred:bimod 2048 base_quicksort655959686
	sim-bpred -bpred 2lev -bpred:2lev 1 512 10 1 base_quicksort655959686
	sim-bpred -bpred 2lev -bpred:2lev 1 1024 10 1 base_quicksort655959686
	sim-bpred -bpred 2lev -bpred:2lev 1 2048 10 1 base_quicksort655959686
	sim-bpred -bpred 2lev -bpred:2lev 1 4096 10 1 base_quicksort655959686
	sslittle-na-sstrix-gcc -Wall -O3 -funroll-loops -finline-functions  -DRANDOM_SIZE=262144 -DOFFSET=2 -DSORT=base_quicksort sorts/base_quicksort67990489.c simpleMain.c -o base_quicksort655959686
	sim-cache -cache:dl1 dl1:256:32:1:l -cache:dl2 dl2:131072:32:1:l -cache:il1 il1:256:32:1:l -cache:il2 dl2 base_quicksort655959686
	sim-cache -cache:dl1 dl1:256:32:1:l -cache:dl2 dl2:65536:32:1:l -cache:il1 il1:256:32:1:l -cache:il2 dl2 base_quicksort655959686
	sim-cache -cache:dl1 dl1:1:32:256:l -cache:dl2 dl2:1:32:131072:l -cache:il1 il1:1:32:256:l -cache:il2 dl2 base_quicksort655959686
	sim-cache -cache:dl1 dl1:1:32:256:l -cache:dl2 dl2:1:32:65536:l -cache:il1 il1:1:32:256:l -cache:il2 dl2 base_quicksort655959686
	sim-bpred -bpred bimod -bpred:bimod 512 base_quicksort655959686
	sim-bpred -bpred bimod -bpred:bimod 1024 base_quicksort655959686
	sim-bpred -bpred bimod -bpred:bimod 2048 base_quicksort655959686
	sim-bpred -bpred 2lev -bpred:2lev 1 512 10 1 base_quicksort655959686
	sim-bpred -bpred 2lev -bpred:2lev 1 1024 10 1 base_quicksort655959686
	sim-bpred -bpred 2lev -bpred:2lev 1 2048 10 1 base_quicksort655959686
	sim-bpred -bpred 2lev -bpred:2lev 1 4096 10 1 base_quicksort655959686
	sslittle-na-sstrix-gcc -Wall -O3 -funroll-loops -finline-functions  -DRANDOM_SIZE=524288 -DOFFSET=2 -DSORT=base_quicksort sorts/base_quicksort67990489.c simpleMain.c -o base_quicksort655959686
	sim-cache -cache:dl1 dl1:256:32:1:l -cache:dl2 dl2:131072:32:1:l -cache:il1 il1:256:32:1:l -cache:il2 dl2 base_quicksort655959686
	sim-cache -cache:dl1 dl1:256:32:1:l -cache:dl2 dl2:65536:32:1:l -cache:il1 il1:256:32:1:l -cache:il2 dl2 base_quicksort655959686
	sim-cache -cache:dl1 dl1:1:32:256:l -cache:dl2 dl2:1:32:131072:l -cache:il1 il1:1:32:256:l -cache:il2 dl2 base_quicksort655959686
	sim-cache -cache:dl1 dl1:1:32:256:l -cache:dl2 dl2:1:32:65536:l -cache:il1 il1:1:32:256:l -cache:il2 dl2 base_quicksort655959686
	sim-bpred -bpred bimod -bpred:bimod 512 base_quicksort655959686
	sim-bpred -bpred bimod -bpred:bimod 1024 base_quicksort655959686
	sim-bpred -bpred bimod -bpred:bimod 2048 base_quicksort655959686
	sim-bpred -bpred 2lev -bpred:2lev 1 512 10 1 base_quicksort655959686
	sim-bpred -bpred 2lev -bpred:2lev 1 1024 10 1 base_quicksort655959686
	sim-bpred -bpred 2lev -bpred:2lev 1 2048 10 1 base_quicksort655959686
	sim-bpred -bpred 2lev -bpred:2lev 1 4096 10 1 base_quicksort655959686
	sslittle-na-sstrix-gcc -Wall -O3 -funroll-loops -finline-functions  -DRANDOM_SIZE=1048576 -DOFFSET=2 -DSORT=base_quicksort sorts/base_quicksort67990489.c simpleMain.c -o base_quicksort655959686
	sim-cache -cache:dl1 dl1:256:32:1:l -cache:dl2 dl2:131072:32:1:l -cache:il1 il1:256:32:1:l -cache:il2 dl2 base_quicksort655959686
	sim-cache -cache:dl1 dl1:256:32:1:l -cache:dl2 dl2:65536:32:1:l -cache:il1 il1:256:32:1:l -cache:il2 dl2 base_quicksort655959686
	sim-cache -cache:dl1 dl1:1:32:256:l -cache:dl2 dl2:1:32:131072:l -cache:il1 il1:1:32:256:l -cache:il2 dl2 base_quicksort655959686
	sim-cache -cache:dl1 dl1:1:32:256:l -cache:dl2 dl2:1:32:65536:l -cache:il1 il1:1:32:256:l -cache:il2 dl2 base_quicksort655959686
	sim-bpred -bpred bimod -bpred:bimod 512 base_quicksort655959686
	sim-bpred -bpred bimod -bpred:bimod 1024 base_quicksort655959686
	sim-bpred -bpred bimod -bpred:bimod 2048 base_quicksort655959686
	sim-bpred -bpred 2lev -bpred:2lev 1 512 10 1 base_quicksort655959686
	sim-bpred -bpred 2lev -bpred:2lev 1 1024 10 1 base_quicksort655959686
	sim-bpred -bpred 2lev -bpred:2lev 1 2048 10 1 base_quicksort655959686
	sim-bpred -bpred 2lev -bpred:2lev 1 4096 10 1 base_quicksort655959686
	sslittle-na-sstrix-gcc -Wall -O3 -funroll-loops -finline-functions  -DRANDOM_SIZE=2097152 -DOFFSET=2 -DSORT=base_quicksort sorts/base_quicksort67990489.c simpleMain.c -o base_quicksort655959686
	sim-cache -cache:dl1 dl1:256:32:1:l -cache:dl2 dl2:131072:32:1:l -cache:il1 il1:256:32:1:l -cache:il2 dl2 base_quicksort655959686
	sim-cache -cache:dl1 dl1:256:32:1:l -cache:dl2 dl2:65536:32:1:l -cache:il1 il1:256:32:1:l -cache:il2 dl2 base_quicksort655959686
	sim-cache -cache:dl1 dl1:1:32:256:l -cache:dl2 dl2:1:32:131072:l -cache:il1 il1:1:32:256:l -cache:il2 dl2 base_quicksort655959686
	sim-cache -cache:dl1 dl1:1:32:256:l -cache:dl2 dl2:1:32:65536:l -cache:il1 il1:1:32:256:l -cache:il2 dl2 base_quicksort655959686
	sim-bpred -bpred bimod -bpred:bimod 512 base_quicksort655959686
	sim-bpred -bpred bimod -bpred:bimod 1024 base_quicksort655959686
	sim-bpred -bpred bimod -bpred:bimod 2048 base_quicksort655959686
	sim-bpred -bpred 2lev -bpred:2lev 1 512 10 1 base_quicksort655959686
	sim-bpred -bpred 2lev -bpred:2lev 1 1024 10 1 base_quicksort655959686
	sim-bpred -bpred 2lev -bpred:2lev 1 2048 10 1 base_quicksort655959686
	sim-bpred -bpred 2lev -bpred:2lev 1 4096 10 1 base_quicksort655959686
	sslittle-na-sstrix-gcc -Wall -O3 -funroll-loops -finline-functions  -DRANDOM_SIZE=4194304 -DOFFSET=2 -DSORT=base_quicksort sorts/base_quicksort67990489.c simpleMain.c -o base_quicksort655959686
	sim-cache -cache:dl1 dl1:256:32:1:l -cache:dl2 dl2:131072:32:1:l -cache:il1 il1:256:32:1:l -cache:il2 dl2 base_quicksort655959686
	sim-cache -cache:dl1 dl1:256:32:1:l -cache:dl2 dl2:65536:32:1:l -cache:il1 il1:256:32:1:l -cache:il2 dl2 base_quicksort655959686
	sim-cache -cache:dl1 dl1:1:32:256:l -cache:dl2 dl2:1:32:131072:l -cache:il1 il1:1:32:256:l -cache:il2 dl2 base_quicksort655959686
	sim-cache -cache:dl1 dl1:1:32:256:l -cache:dl2 dl2:1:32:65536:l -cache:il1 il1:1:32:256:l -cache:il2 dl2 base_quicksort655959686
	sim-bpred -bpred bimod -bpred:bimod 512 base_quicksort655959686
	sim-bpred -bpred bimod -bpred:bimod 1024 base_quicksort655959686
	sim-bpred -bpred bimod -bpred:bimod 2048 base_quicksort655959686
	sim-bpred -bpred 2lev -bpred:2lev 1 512 10 1 base_quicksort655959686
	sim-bpred -bpred 2lev -bpred:2lev 1 1024 10 1 base_quicksort655959686
	sim-bpred -bpred 2lev -bpred:2lev 1 2048 10 1 base_quicksort655959686
	sim-bpred -bpred 2lev -bpred:2lev 1 4096 10 1 base_quicksort655959686
