Tue Jun 21 16:43:08 2005
Run as: "./do_simple -c random.org1 -o 1 base_quicksort1"
-------------------------------------------------------------------------------------------------
sim-cache                                     4096 |         4096 |         4096 |         4096 |         8192 |         8192 |         8192 |         8192 |        16384 |        16384 |        16384 |        16384 |        32768 |        32768 |        32768 |        32768 |        65536 |        65536 |        65536 |        65536 |       131072 |       131072 |       131072 |       131072 |       262144 |       262144 |       262144 |       262144 |       524288 |       524288 |       524288 |       524288 |      1048576 |      1048576 |      1048576 |      1048576 |      2097152 |      2097152 |      2097152 |      2097152 |      4194304 |      4194304 |      4194304 |      4194304 |
-cache:dl1 dl1:256:32:1:l -cache:dl2 dl2:131072:32:1:l -cache:il1 il1:256:32:1:l -cache:il2 dl2
-cache:dl1 dl1:256:32:1:l -cache:dl2 dl2:65536:32:1:l -cache:il1 il1:256:32:1:l -cache:il2 dl2
-cache:dl1 dl1:1:32:256:l -cache:dl2 dl2:1:32:131072:l -cache:il1 il1:1:32:256:l -cache:il2 dl2
-cache:dl1 dl1:1:32:256:l -cache:dl2 dl2:1:32:65536:l -cache:il1 il1:1:32:256:l -cache:il2 dl2
-------------------------------------------------------------------------------------------------
sim_num_insn                                490818 |       490818 |       490818 |       490818 |      1083382 |      1083382 |      1083382 |      1083382 |      2317395 |      2317395 |      2317395 |      2317395 |      4910824 |      4910824 |      4910824 |      4910824 |     10849925 |     10849925 |     10849925 |     10849925 |     23802922 |     23802922 |     23802922 |     23802922 |     47430873 |     47430873 |     47430873 |     47430873 |    103278927 |    103278927 |    103278927 |    103278927 |    216300004 |    216300004 |    216300004 |    216300004 |    450241151 |    450241151 |    450241151 |    450241151 |    990814523 |    990814523 |    990814523 |    990814523 |
sim_num_refs                                126311 |       126311 |       126311 |       126311 |       271410 |       271410 |       271410 |       271410 |       576410 |       576410 |       576410 |       576410 |      1213390 |      1213390 |      1213390 |      1213390 |      2627886 |      2627886 |      2627886 |      2627886 |      5647931 |      5647931 |      5647931 |      5647931 |     11507041 |     11507041 |     11507041 |     11507041 |     24605509 |     24605509 |     24605509 |     24605509 |     51748202 |     51748202 |     51748202 |     51748202 |    107415663 |    107415663 |    107415663 |    107415663 |    230515838 |    230515838 |    230515838 |    230515838 |
sim_elapsed_time                                 1 |            1 |            7 |            3 |            1 |            1 |            9 |            5 |            1 |            1 |           15 |            7 |            1 |            1 |           25 |           13 |            3 |            3 |           45 |           24 |            6 |            6 |           85 |           43 |           12 |           12 |          155 |           74 |           26 |           25 |          269 |          107 |           54 |           53 |          375 |          136 |          112 |          112 |          439 |          200 |          246 |          246 |          584 |          346 |
sim_inst_rate                          490818.0000 |  490818.0000 |   70116.8571 |  163606.0000 | 1083382.0000 | 1083382.0000 |  120375.7778 |  216676.4000 | 2317395.0000 | 2317395.0000 |  154493.0000 |  331056.4286 | 4910824.0000 | 4910824.0000 |  196432.9600 |  377755.6923 | 3616641.6667 | 3616641.6667 |  241109.4444 |  452080.2083 | 3967153.6667 | 3967153.6667 |  280034.3765 |  553556.3256 | 3952572.7500 | 3952572.7500 |  306005.6323 |  640957.7432 | 3972266.4231 | 4131157.0800 |  383936.5316 |  965223.6168 | 4005555.6296 | 4081132.1509 |  576800.0107 | 1590441.2059 | 4020010.2768 | 4020010.2768 | 1025606.2665 | 2251205.7550 | 4027701.3130 | 4027701.3130 | 1696600.2106 | 2863625.7890 |
il1.accesses                                490818 |       490818 |       490818 |       490818 |      1083382 |      1083382 |      1083382 |      1083382 |      2317395 |      2317395 |      2317395 |      2317395 |      4910824 |      4910824 |      4910824 |      4910824 |     10849925 |     10849925 |     10849925 |     10849925 |     23802922 |     23802922 |     23802922 |     23802922 |     47430873 |     47430873 |     47430873 |     47430873 |    103278927 |    103278927 |    103278927 |    103278927 |    216300004 |    216300004 |    216300004 |    216300004 |    450241151 |    450241151 |    450241151 |    450241151 |    990814523 |    990814523 |    990814523 |    990814523 |
il1.hits                                    490379 |       490379 |       490420 |       490420 |      1082944 |      1082944 |      1082982 |      1082982 |      2316947 |      2316947 |      2316991 |      2316991 |      4910385 |      4910385 |      4910423 |      4910423 |     10849486 |     10849486 |     10849524 |     10849524 |     23802484 |     23802484 |     23802522 |     23802522 |     47430435 |     47430435 |     47430473 |     47430473 |    103278489 |    103278489 |    103278527 |    103278527 |    216299566 |    216299566 |    216299604 |    216299604 |    450240713 |    450240713 |    450240751 |    450240751 |    990814085 |    990814085 |    990814123 |    990814123 |
il1.misses                                     439 |          439 |          398 |          398 |          438 |          438 |          400 |          400 |          448 |          448 |          404 |          404 |          439 |          439 |          401 |          401 |          439 |          439 |          401 |          401 |          438 |          438 |          400 |          400 |          438 |          438 |          400 |          400 |          438 |          438 |          400 |          400 |          438 |          438 |          400 |          400 |          438 |          438 |          400 |          400 |          438 |          438 |          400 |          400 |
il1.replacements                               200 |          200 |          142 |          142 |          199 |          199 |          144 |          144 |          210 |          210 |          148 |          148 |          201 |          201 |          145 |          145 |          201 |          201 |          145 |          145 |          201 |          201 |          144 |          144 |          201 |          201 |          144 |          144 |          201 |          201 |          144 |          144 |          201 |          201 |          144 |          144 |          201 |          201 |          144 |          144 |          201 |          201 |          144 |          144 |
il1.writebacks                                   0 |            0 |            0 |            0 |            0 |            0 |            0 |            0 |            0 |            0 |            0 |            0 |            0 |            0 |            0 |            0 |            0 |            0 |            0 |            0 |            0 |            0 |            0 |            0 |            0 |            0 |            0 |            0 |            0 |            0 |            0 |            0 |            0 |            0 |            0 |            0 |            0 |            0 |            0 |            0 |            0 |            0 |            0 |            0 |
il1.invalidations                                0 |            0 |            0 |            0 |            0 |            0 |            0 |            0 |            0 |            0 |            0 |            0 |            0 |            0 |            0 |            0 |            0 |            0 |            0 |            0 |            0 |            0 |            0 |            0 |            0 |            0 |            0 |            0 |            0 |            0 |            0 |            0 |            0 |            0 |            0 |            0 |            0 |            0 |            0 |            0 |            0 |            0 |            0 |            0 |
il1.miss_rate                               0.0009 |       0.0009 |       0.0008 |       0.0008 |       0.0004 |       0.0004 |       0.0004 |       0.0004 |       0.0002 |       0.0002 |       0.0002 |       0.0002 |       0.0001 |       0.0001 |       0.0001 |       0.0001 |       0.0000 |       0.0000 |       0.0000 |       0.0000 |       0.0000 |       0.0000 |       0.0000 |       0.0000 |       0.0000 |       0.0000 |       0.0000 |       0.0000 |       0.0000 |       0.0000 |       0.0000 |       0.0000 |       0.0000 |       0.0000 |       0.0000 |       0.0000 |       0.0000 |       0.0000 |       0.0000 |       0.0000 |       0.0000 |       0.0000 |       0.0000 |       0.0000 |
il1.repl_rate                               0.0004 |       0.0004 |       0.0003 |       0.0003 |       0.0002 |       0.0002 |       0.0001 |       0.0001 |       0.0001 |       0.0001 |       0.0001 |       0.0001 |       0.0000 |       0.0000 |       0.0000 |       0.0000 |       0.0000 |       0.0000 |       0.0000 |       0.0000 |       0.0000 |       0.0000 |       0.0000 |       0.0000 |       0.0000 |       0.0000 |       0.0000 |       0.0000 |       0.0000 |       0.0000 |       0.0000 |       0.0000 |       0.0000 |       0.0000 |       0.0000 |       0.0000 |       0.0000 |       0.0000 |       0.0000 |       0.0000 |       0.0000 |       0.0000 |       0.0000 |       0.0000 |
il1.wb_rate                                 0.0000 |       0.0000 |       0.0000 |       0.0000 |       0.0000 |       0.0000 |       0.0000 |       0.0000 |       0.0000 |       0.0000 |       0.0000 |       0.0000 |       0.0000 |       0.0000 |       0.0000 |       0.0000 |       0.0000 |       0.0000 |       0.0000 |       0.0000 |       0.0000 |       0.0000 |       0.0000 |       0.0000 |       0.0000 |       0.0000 |       0.0000 |       0.0000 |       0.0000 |       0.0000 |       0.0000 |       0.0000 |       0.0000 |       0.0000 |       0.0000 |       0.0000 |       0.0000 |       0.0000 |       0.0000 |       0.0000 |       0.0000 |       0.0000 |       0.0000 |       0.0000 |
il1.inv_rate                                0.0000 |       0.0000 |       0.0000 |       0.0000 |       0.0000 |       0.0000 |       0.0000 |       0.0000 |       0.0000 |       0.0000 |       0.0000 |       0.0000 |       0.0000 |       0.0000 |       0.0000 |       0.0000 |       0.0000 |       0.0000 |       0.0000 |       0.0000 |       0.0000 |       0.0000 |       0.0000 |       0.0000 |       0.0000 |       0.0000 |       0.0000 |       0.0000 |       0.0000 |       0.0000 |       0.0000 |       0.0000 |       0.0000 |       0.0000 |       0.0000 |       0.0000 |       0.0000 |       0.0000 |       0.0000 |       0.0000 |       0.0000 |       0.0000 |       0.0000 |       0.0000 |
dl1.accesses                                142777 |       142777 |       142777 |       142777 |       304260 |       304260 |       304260 |       304260 |       642028 |       642028 |       642028 |       642028 |      1344544 |      1344544 |      1344544 |      1344544 |      2890112 |      2890112 |      2890112 |      2890112 |      6172301 |      6172301 |      6172301 |      6172301 |     12555699 |     12555699 |     12555699 |     12555699 |     26702743 |     26702743 |     26702743 |     26702743 |     55942588 |     55942588 |     55942588 |     55942588 |    115804353 |    115804353 |    115804353 |    115804353 |    247293136 |    247293136 |    247293136 |    247293136 |
dl1.hits                                    140428 |       140428 |       140398 |       140398 |       297511 |       297511 |       297437 |       297437 |       627560 |       627560 |       627388 |       627388 |      1310636 |      1310636 |      1310548 |      1310548 |      2803363 |      2803363 |      2803533 |      2803533 |      5966178 |      5966178 |      5965656 |      5965656 |     12152120 |     12152120 |     12153728 |     12153728 |     25742443 |     25742443 |     25746992 |     25746992 |     53835346 |     53835346 |     53849206 |     53849206 |    111334745 |    111334745 |    111368585 |    111368585 |    236760228 |    236760228 |    236843767 |    236843767 |
dl1.misses                                    2349 |         2349 |         2379 |         2379 |         6749 |         6749 |         6823 |         6823 |        14468 |        14468 |        14640 |        14640 |        33908 |        33908 |        33996 |        33996 |        86749 |        86749 |        86579 |        86579 |       206123 |       206123 |       206645 |       206645 |       403579 |       403579 |       401971 |       401971 |       960300 |       960300 |       955751 |       955751 |      2107242 |      2107242 |      2093382 |      2093382 |      4469608 |      4469608 |      4435768 |      4435768 |     10532908 |     10532908 |     10449369 |     10449369 |
dl1.replacements                              2093 |         2093 |         2123 |         2123 |         6493 |         6493 |         6567 |         6567 |        14212 |        14212 |        14384 |        14384 |        33652 |        33652 |        33740 |        33740 |        86493 |        86493 |        86323 |        86323 |       205867 |       205867 |       206389 |       206389 |       403323 |       403323 |       401715 |       401715 |       960044 |       960044 |       955495 |       955495 |      2106986 |      2106986 |      2093126 |      2093126 |      4469352 |      4469352 |      4435512 |      4435512 |     10532652 |     10532652 |     10449113 |     10449113 |
dl1.writebacks                                2044 |         2044 |         2095 |         2095 |         5729 |         5729 |         5815 |         5815 |        13054 |        13054 |        13303 |        13303 |        31175 |        31175 |        31450 |        31450 |        72414 |        72414 |        72597 |        72597 |       162090 |       162090 |       163369 |       163369 |       354306 |       354306 |       355421 |       355421 |       800930 |       800930 |       802264 |       802264 |      1720934 |      1720934 |      1721365 |      1721365 |      3730675 |      3730675 |      3729819 |      3729819 |      8161692 |      8161692 |      8151098 |      8151098 |
dl1.invalidations                                0 |            0 |            0 |            0 |            0 |            0 |            0 |            0 |            0 |            0 |            0 |            0 |            0 |            0 |            0 |            0 |            0 |            0 |            0 |            0 |            0 |            0 |            0 |            0 |            0 |            0 |            0 |            0 |            0 |            0 |            0 |            0 |            0 |            0 |            0 |            0 |            0 |            0 |            0 |            0 |            0 |            0 |            0 |            0 |
dl1.miss_rate                               0.0165 |       0.0165 |       0.0167 |       0.0167 |       0.0222 |       0.0222 |       0.0224 |       0.0224 |       0.0225 |       0.0225 |       0.0228 |       0.0228 |       0.0252 |       0.0252 |       0.0253 |       0.0253 |       0.0300 |       0.0300 |       0.0300 |       0.0300 |       0.0334 |       0.0334 |       0.0335 |       0.0335 |       0.0321 |       0.0321 |       0.0320 |       0.0320 |       0.0360 |       0.0360 |       0.0358 |       0.0358 |       0.0377 |       0.0377 |       0.0374 |       0.0374 |       0.0386 |       0.0386 |       0.0383 |       0.0383 |       0.0426 |       0.0426 |       0.0423 |       0.0423 |
dl1.repl_rate                               0.0147 |       0.0147 |       0.0149 |       0.0149 |       0.0213 |       0.0213 |       0.0216 |       0.0216 |       0.0221 |       0.0221 |       0.0224 |       0.0224 |       0.0250 |       0.0250 |       0.0251 |       0.0251 |       0.0299 |       0.0299 |       0.0299 |       0.0299 |       0.0334 |       0.0334 |       0.0334 |       0.0334 |       0.0321 |       0.0321 |       0.0320 |       0.0320 |       0.0360 |       0.0360 |       0.0358 |       0.0358 |       0.0377 |       0.0377 |       0.0374 |       0.0374 |       0.0386 |       0.0386 |       0.0383 |       0.0383 |       0.0426 |       0.0426 |       0.0423 |       0.0423 |
dl1.wb_rate                                 0.0143 |       0.0143 |       0.0147 |       0.0147 |       0.0188 |       0.0188 |       0.0191 |       0.0191 |       0.0203 |       0.0203 |       0.0207 |       0.0207 |       0.0232 |       0.0232 |       0.0234 |       0.0234 |       0.0251 |       0.0251 |       0.0251 |       0.0251 |       0.0263 |       0.0263 |       0.0265 |       0.0265 |       0.0282 |       0.0282 |       0.0283 |       0.0283 |       0.0300 |       0.0300 |       0.0300 |       0.0300 |       0.0308 |       0.0308 |       0.0308 |       0.0308 |       0.0322 |       0.0322 |       0.0322 |       0.0322 |       0.0330 |       0.0330 |       0.0330 |       0.0330 |
dl1.inv_rate                                0.0000 |       0.0000 |       0.0000 |       0.0000 |       0.0000 |       0.0000 |       0.0000 |       0.0000 |       0.0000 |       0.0000 |       0.0000 |       0.0000 |       0.0000 |       0.0000 |       0.0000 |       0.0000 |       0.0000 |       0.0000 |       0.0000 |       0.0000 |       0.0000 |       0.0000 |       0.0000 |       0.0000 |       0.0000 |       0.0000 |       0.0000 |       0.0000 |       0.0000 |       0.0000 |       0.0000 |       0.0000 |       0.0000 |       0.0000 |       0.0000 |       0.0000 |       0.0000 |       0.0000 |       0.0000 |       0.0000 |       0.0000 |       0.0000 |       0.0000 |       0.0000 |
dl2.accesses                                  4832 |         4832 |         4872 |         4872 |        12916 |        12916 |        13038 |        13038 |        27970 |        27970 |        28347 |        28347 |        65522 |        65522 |        65847 |        65847 |       159602 |       159602 |       159577 |       159577 |       368651 |       368651 |       370414 |       370414 |       758323 |       758323 |       757792 |       757792 |      1761668 |      1761668 |      1758415 |      1758415 |      3828614 |      3828614 |      3815147 |      3815147 |      8200721 |      8200721 |      8165987 |      8165987 |     18695038 |     18695038 |     18600867 |     18600867 |
dl2.hits                                      3477 |         3477 |         3530 |         3530 |        11048 |        11048 |        11182 |        11182 |        25081 |        25081 |        25473 |        25473 |        60588 |        60588 |        60926 |        60926 |       150572 |       150572 |       150560 |       150560 |       351429 |       351429 |       353205 |       353205 |       724717 |       724717 |       724199 |       724199 |      1695294 |      1694534 |      1692054 |      1675568 |      3695912 |      3416007 |      3544387 |      3335765 |      7028188 |      6662634 |      6841508 |      6528215 |     15584548 |     14420957 |     15310992 |     14109683 |
dl2.misses                                    1355 |         1355 |         1342 |         1342 |         1868 |         1868 |         1856 |         1856 |         2889 |         2889 |         2874 |         2874 |         4934 |         4934 |         4921 |         4921 |         9030 |         9030 |         9017 |         9017 |        17222 |        17222 |        17209 |        17209 |        33606 |        33606 |        33593 |        33593 |        66374 |        67134 |        66361 |        82847 |       132702 |       412607 |       270760 |       479382 |      1172533 |      1538087 |      1324479 |      1637772 |      3110490 |      4274081 |      3289875 |      4491184 |
dl2.replacements                               146 |          146 |            0 |            0 |          145 |          145 |            0 |            0 |          148 |          148 |            0 |            0 |          147 |          147 |            0 |            0 |          147 |          147 |            0 |            0 |          147 |          147 |            0 |            0 |          147 |          147 |            0 |            0 |          147 |         1598 |            0 |        17311 |         1630 |       347071 |       139688 |       413846 |      1041461 |      1472551 |      1193407 |      1572236 |      2979418 |      4208545 |      3158803 |      4425648 |
dl2.writebacks                                  83 |           83 |            0 |            0 |           84 |           84 |            0 |            0 |           85 |           85 |            0 |            0 |           85 |           85 |            0 |            0 |           85 |           85 |            0 |            0 |           85 |           85 |            0 |            0 |           85 |           85 |            0 |            0 |           85 |         1300 |            0 |        17032 |         1314 |       343487 |       138711 |       396334 |       929852 |      1278976 |      1041532 |      1363469 |      2500879 |      3368170 |      2649405 |      3523038 |
dl2.invalidations                                0 |            0 |            0 |            0 |            0 |            0 |            0 |            0 |            0 |            0 |            0 |            0 |            0 |            0 |            0 |            0 |            0 |            0 |            0 |            0 |            0 |            0 |            0 |            0 |            0 |            0 |            0 |            0 |            0 |            0 |            0 |            0 |            0 |            0 |            0 |            0 |            0 |            0 |            0 |            0 |            0 |            0 |            0 |            0 |
dl2.miss_rate                               0.2804 |       0.2804 |       0.2755 |       0.2755 |       0.1446 |       0.1446 |       0.1424 |       0.1424 |       0.1033 |       0.1033 |       0.1014 |       0.1014 |       0.0753 |       0.0753 |       0.0747 |       0.0747 |       0.0566 |       0.0566 |       0.0565 |       0.0565 |       0.0467 |       0.0467 |       0.0465 |       0.0465 |       0.0443 |       0.0443 |       0.0443 |       0.0443 |       0.0377 |       0.0381 |       0.0377 |       0.0471 |       0.0347 |       0.1078 |       0.0710 |       0.1257 |       0.1430 |       0.1876 |       0.1622 |       0.2006 |       0.1664 |       0.2286 |       0.1769 |       0.2415 |
dl2.repl_rate                               0.0302 |       0.0302 |       0.0000 |       0.0000 |       0.0112 |       0.0112 |       0.0000 |       0.0000 |       0.0053 |       0.0053 |       0.0000 |       0.0000 |       0.0022 |       0.0022 |       0.0000 |       0.0000 |       0.0009 |       0.0009 |       0.0000 |       0.0000 |       0.0004 |       0.0004 |       0.0000 |       0.0000 |       0.0002 |       0.0002 |       0.0000 |       0.0000 |       0.0001 |       0.0009 |       0.0000 |       0.0098 |       0.0004 |       0.0907 |       0.0366 |       0.1085 |       0.1270 |       0.1796 |       0.1461 |       0.1925 |       0.1594 |       0.2251 |       0.1698 |       0.2379 |
dl2.wb_rate                                 0.0172 |       0.0172 |       0.0000 |       0.0000 |       0.0065 |       0.0065 |       0.0000 |       0.0000 |       0.0030 |       0.0030 |       0.0000 |       0.0000 |       0.0013 |       0.0013 |       0.0000 |       0.0000 |       0.0005 |       0.0005 |       0.0000 |       0.0000 |       0.0002 |       0.0002 |       0.0000 |       0.0000 |       0.0001 |       0.0001 |       0.0000 |       0.0000 |       0.0000 |       0.0007 |       0.0000 |       0.0097 |       0.0003 |       0.0897 |       0.0364 |       0.1039 |       0.1134 |       0.1560 |       0.1275 |       0.1670 |       0.1338 |       0.1802 |       0.1424 |       0.1894 |
dl2.inv_rate                                0.0000 |       0.0000 |       0.0000 |       0.0000 |       0.0000 |       0.0000 |       0.0000 |       0.0000 |       0.0000 |       0.0000 |       0.0000 |       0.0000 |       0.0000 |       0.0000 |       0.0000 |       0.0000 |       0.0000 |       0.0000 |       0.0000 |       0.0000 |       0.0000 |       0.0000 |       0.0000 |       0.0000 |       0.0000 |       0.0000 |       0.0000 |       0.0000 |       0.0000 |       0.0000 |       0.0000 |       0.0000 |       0.0000 |       0.0000 |       0.0000 |       0.0000 |       0.0000 |       0.0000 |       0.0000 |       0.0000 |       0.0000 |       0.0000 |       0.0000 |       0.0000 |
itlb.accesses                               490818 |       490818 |       490818 |       490818 |      1083382 |      1083382 |      1083382 |      1083382 |      2317395 |      2317395 |      2317395 |      2317395 |      4910824 |      4910824 |      4910824 |      4910824 |     10849925 |     10849925 |     10849925 |     10849925 |     23802922 |     23802922 |     23802922 |     23802922 |     47430873 |     47430873 |     47430873 |     47430873 |    103278927 |    103278927 |    103278927 |    103278927 |    216300004 |    216300004 |    216300004 |    216300004 |    450241151 |    450241151 |    450241151 |    450241151 |    990814523 |    990814523 |    990814523 |    990814523 |
itlb.hits                                   490807 |       490807 |       490807 |       490807 |      1083372 |      1083372 |      1083372 |      1083372 |      2317385 |      2317385 |      2317385 |      2317385 |      4910814 |      4910814 |      4910814 |      4910814 |     10849915 |     10849915 |     10849915 |     10849915 |     23802912 |     23802912 |     23802912 |     23802912 |     47430863 |     47430863 |     47430863 |     47430863 |    103278917 |    103278917 |    103278917 |    103278917 |    216299994 |    216299994 |    216299994 |    216299994 |    450241141 |    450241141 |    450241141 |    450241141 |    990814513 |    990814513 |    990814513 |    990814513 |
itlb.misses                                     11 |           11 |           11 |           11 |           10 |           10 |           10 |           10 |           10 |           10 |           10 |           10 |           10 |           10 |           10 |           10 |           10 |           10 |           10 |           10 |           10 |           10 |           10 |           10 |           10 |           10 |           10 |           10 |           10 |           10 |           10 |           10 |           10 |           10 |           10 |           10 |           10 |           10 |           10 |           10 |           10 |           10 |           10 |           10 |
itlb.replacements                                0 |            0 |            0 |            0 |            0 |            0 |            0 |            0 |            0 |            0 |            0 |            0 |            0 |            0 |            0 |            0 |            0 |            0 |            0 |            0 |            0 |            0 |            0 |            0 |            0 |            0 |            0 |            0 |            0 |            0 |            0 |            0 |            0 |            0 |            0 |            0 |            0 |            0 |            0 |            0 |            0 |            0 |            0 |            0 |
itlb.writebacks                                  0 |            0 |            0 |            0 |            0 |            0 |            0 |            0 |            0 |            0 |            0 |            0 |            0 |            0 |            0 |            0 |            0 |            0 |            0 |            0 |            0 |            0 |            0 |            0 |            0 |            0 |            0 |            0 |            0 |            0 |            0 |            0 |            0 |            0 |            0 |            0 |            0 |            0 |            0 |            0 |            0 |            0 |            0 |            0 |
itlb.invalidations                               0 |            0 |            0 |            0 |            0 |            0 |            0 |            0 |            0 |            0 |            0 |            0 |            0 |            0 |            0 |            0 |            0 |            0 |            0 |            0 |            0 |            0 |            0 |            0 |            0 |            0 |            0 |            0 |            0 |            0 |            0 |            0 |            0 |            0 |            0 |            0 |            0 |            0 |            0 |            0 |            0 |            0 |            0 |            0 |
itlb.miss_rate                              0.0000 |       0.0000 |       0.0000 |       0.0000 |       0.0000 |       0.0000 |       0.0000 |       0.0000 |       0.0000 |       0.0000 |       0.0000 |       0.0000 |       0.0000 |       0.0000 |       0.0000 |       0.0000 |       0.0000 |       0.0000 |       0.0000 |       0.0000 |       0.0000 |       0.0000 |       0.0000 |       0.0000 |       0.0000 |       0.0000 |       0.0000 |       0.0000 |       0.0000 |       0.0000 |       0.0000 |       0.0000 |       0.0000 |       0.0000 |       0.0000 |       0.0000 |       0.0000 |       0.0000 |       0.0000 |       0.0000 |       0.0000 |       0.0000 |       0.0000 |       0.0000 |
itlb.repl_rate                              0.0000 |       0.0000 |       0.0000 |       0.0000 |       0.0000 |       0.0000 |       0.0000 |       0.0000 |       0.0000 |       0.0000 |       0.0000 |       0.0000 |       0.0000 |       0.0000 |       0.0000 |       0.0000 |       0.0000 |       0.0000 |       0.0000 |       0.0000 |       0.0000 |       0.0000 |       0.0000 |       0.0000 |       0.0000 |       0.0000 |       0.0000 |       0.0000 |       0.0000 |       0.0000 |       0.0000 |       0.0000 |       0.0000 |       0.0000 |       0.0000 |       0.0000 |       0.0000 |       0.0000 |       0.0000 |       0.0000 |       0.0000 |       0.0000 |       0.0000 |       0.0000 |
itlb.wb_rate                                0.0000 |       0.0000 |       0.0000 |       0.0000 |       0.0000 |       0.0000 |       0.0000 |       0.0000 |       0.0000 |       0.0000 |       0.0000 |       0.0000 |       0.0000 |       0.0000 |       0.0000 |       0.0000 |       0.0000 |       0.0000 |       0.0000 |       0.0000 |       0.0000 |       0.0000 |       0.0000 |       0.0000 |       0.0000 |       0.0000 |       0.0000 |       0.0000 |       0.0000 |       0.0000 |       0.0000 |       0.0000 |       0.0000 |       0.0000 |       0.0000 |       0.0000 |       0.0000 |       0.0000 |       0.0000 |       0.0000 |       0.0000 |       0.0000 |       0.0000 |       0.0000 |
itlb.inv_rate                               0.0000 |       0.0000 |       0.0000 |       0.0000 |       0.0000 |       0.0000 |       0.0000 |       0.0000 |       0.0000 |       0.0000 |       0.0000 |       0.0000 |       0.0000 |       0.0000 |       0.0000 |       0.0000 |       0.0000 |       0.0000 |       0.0000 |       0.0000 |       0.0000 |       0.0000 |       0.0000 |       0.0000 |       0.0000 |       0.0000 |       0.0000 |       0.0000 |       0.0000 |       0.0000 |       0.0000 |       0.0000 |       0.0000 |       0.0000 |       0.0000 |       0.0000 |       0.0000 |       0.0000 |       0.0000 |       0.0000 |       0.0000 |       0.0000 |       0.0000 |       0.0000 |
dtlb.accesses                               142777 |       142777 |       142777 |       142777 |       304260 |       304260 |       304260 |       304260 |       642028 |       642028 |       642028 |       642028 |      1344544 |      1344544 |      1344544 |      1344544 |      2890112 |      2890112 |      2890112 |      2890112 |      6172301 |      6172301 |      6172301 |      6172301 |     12555699 |     12555699 |     12555699 |     12555699 |     26702743 |     26702743 |     26702743 |     26702743 |     55942588 |     55942588 |     55942588 |     55942588 |    115804353 |    115804353 |    115804353 |    115804353 |    247293136 |    247293136 |    247293136 |    247293136 |
dtlb.hits                                   142765 |       142765 |       142765 |       142765 |       304244 |       304244 |       304244 |       304244 |       642004 |       642004 |       642004 |       642004 |      1344504 |      1344504 |      1344504 |      1344504 |      2890040 |      2890040 |      2890040 |      2890040 |      6172119 |      6172119 |      6172119 |      6172119 |     12554739 |     12554739 |     12554739 |     12554739 |     26699857 |     26699857 |     26699857 |     26699857 |     55934508 |     55934508 |     55934508 |     55934508 |    115786155 |    115786155 |    115786155 |    115786155 |    247245516 |    247245516 |    247245516 |    247245516 |
dtlb.misses                                     12 |           12 |           12 |           12 |           16 |           16 |           16 |           16 |           24 |           24 |           24 |           24 |           40 |           40 |           40 |           40 |           72 |           72 |           72 |           72 |          182 |          182 |          182 |          182 |          960 |          960 |          960 |          960 |         2886 |         2886 |         2886 |         2886 |         8080 |         8080 |         8080 |         8080 |        18198 |        18198 |        18198 |        18198 |        47620 |        47620 |        47620 |        47620 |
dtlb.replacements                                0 |            0 |            0 |            0 |            0 |            0 |            0 |            0 |            0 |            0 |            0 |            0 |            0 |            0 |            0 |            0 |            0 |            0 |            0 |            0 |           54 |           54 |           54 |           54 |          832 |          832 |          832 |          832 |         2758 |         2758 |         2758 |         2758 |         7952 |         7952 |         7952 |         7952 |        18070 |        18070 |        18070 |        18070 |        47492 |        47492 |        47492 |        47492 |
dtlb.writebacks                                  0 |            0 |            0 |            0 |            0 |            0 |            0 |            0 |            0 |            0 |            0 |            0 |            0 |            0 |            0 |            0 |            0 |            0 |            0 |            0 |           52 |           52 |           52 |           52 |          830 |          830 |          830 |          830 |         2756 |         2756 |         2756 |         2756 |         7944 |         7944 |         7944 |         7944 |        18067 |        18067 |        18067 |        18067 |        47426 |        47426 |        47426 |        47426 |
dtlb.invalidations                               0 |            0 |            0 |            0 |            0 |            0 |            0 |            0 |            0 |            0 |            0 |            0 |            0 |            0 |            0 |            0 |            0 |            0 |            0 |            0 |            0 |            0 |            0 |            0 |            0 |            0 |            0 |            0 |            0 |            0 |            0 |            0 |            0 |            0 |            0 |            0 |            0 |            0 |            0 |            0 |            0 |            0 |            0 |            0 |
dtlb.miss_rate                              0.0001 |       0.0001 |       0.0001 |       0.0001 |       0.0001 |       0.0001 |       0.0001 |       0.0001 |       0.0000 |       0.0000 |       0.0000 |       0.0000 |       0.0000 |       0.0000 |       0.0000 |       0.0000 |       0.0000 |       0.0000 |       0.0000 |       0.0000 |       0.0000 |       0.0000 |       0.0000 |       0.0000 |       0.0001 |       0.0001 |       0.0001 |       0.0001 |       0.0001 |       0.0001 |       0.0001 |       0.0001 |       0.0001 |       0.0001 |       0.0001 |       0.0001 |       0.0002 |       0.0002 |       0.0002 |       0.0002 |       0.0002 |       0.0002 |       0.0002 |       0.0002 |
dtlb.repl_rate                              0.0000 |       0.0000 |       0.0000 |       0.0000 |       0.0000 |       0.0000 |       0.0000 |       0.0000 |       0.0000 |       0.0000 |       0.0000 |       0.0000 |       0.0000 |       0.0000 |       0.0000 |       0.0000 |       0.0000 |       0.0000 |       0.0000 |       0.0000 |       0.0000 |       0.0000 |       0.0000 |       0.0000 |       0.0001 |       0.0001 |       0.0001 |       0.0001 |       0.0001 |       0.0001 |       0.0001 |       0.0001 |       0.0001 |       0.0001 |       0.0001 |       0.0001 |       0.0002 |       0.0002 |       0.0002 |       0.0002 |       0.0002 |       0.0002 |       0.0002 |       0.0002 |
dtlb.wb_rate                                0.0000 |       0.0000 |       0.0000 |       0.0000 |       0.0000 |       0.0000 |       0.0000 |       0.0000 |       0.0000 |       0.0000 |       0.0000 |       0.0000 |       0.0000 |       0.0000 |       0.0000 |       0.0000 |       0.0000 |       0.0000 |       0.0000 |       0.0000 |       0.0000 |       0.0000 |       0.0000 |       0.0000 |       0.0001 |       0.0001 |       0.0001 |       0.0001 |       0.0001 |       0.0001 |       0.0001 |       0.0001 |       0.0001 |       0.0001 |       0.0001 |       0.0001 |       0.0002 |       0.0002 |       0.0002 |       0.0002 |       0.0002 |       0.0002 |       0.0002 |       0.0002 |
dtlb.inv_rate                               0.0000 |       0.0000 |       0.0000 |       0.0000 |       0.0000 |       0.0000 |       0.0000 |       0.0000 |       0.0000 |       0.0000 |       0.0000 |       0.0000 |       0.0000 |       0.0000 |       0.0000 |       0.0000 |       0.0000 |       0.0000 |       0.0000 |       0.0000 |       0.0000 |       0.0000 |       0.0000 |       0.0000 |       0.0000 |       0.0000 |       0.0000 |       0.0000 |       0.0000 |       0.0000 |       0.0000 |       0.0000 |       0.0000 |       0.0000 |       0.0000 |       0.0000 |       0.0000 |       0.0000 |       0.0000 |       0.0000 |       0.0000 |       0.0000 |       0.0000 |       0.0000 |
ld_text_base                            0x00400000 |   0x00400000 |   0x00400000 |   0x00400000 |   0x00400000 |   0x00400000 |   0x00400000 |   0x00400000 |   0x00400000 |   0x00400000 |   0x00400000 |   0x00400000 |   0x00400000 |   0x00400000 |   0x00400000 |   0x00400000 |   0x00400000 |   0x00400000 |   0x00400000 |   0x00400000 |   0x00400000 |   0x00400000 |   0x00400000 |   0x00400000 |   0x00400000 |   0x00400000 |   0x00400000 |   0x00400000 |   0x00400000 |   0x00400000 |   0x00400000 |   0x00400000 |   0x00400000 |   0x00400000 |   0x00400000 |   0x00400000 |   0x00400000 |   0x00400000 |   0x00400000 |   0x00400000 |   0x00400000 |   0x00400000 |   0x00400000 |   0x00400000 |
ld_text_size                                 73136 |        73136 |        73136 |        73136 |        73168 |        73168 |        73168 |        73168 |        73184 |        73184 |        73184 |        73184 |        73200 |        73200 |        73200 |        73200 |        73200 |        73200 |        73200 |        73200 |        73200 |        73200 |        73200 |        73200 |        73200 |        73200 |        73200 |        73200 |        73200 |        73200 |        73200 |        73200 |        73200 |        73200 |        73200 |        73200 |        73200 |        73200 |        73200 |        73200 |        73200 |        73200 |        73200 |        73200 |
ld_data_base                            0x10000000 |   0x10000000 |   0x10000000 |   0x10000000 |   0x10000000 |   0x10000000 |   0x10000000 |   0x10000000 |   0x10000000 |   0x10000000 |   0x10000000 |   0x10000000 |   0x10000000 |   0x10000000 |   0x10000000 |   0x10000000 |   0x10000000 |   0x10000000 |   0x10000000 |   0x10000000 |   0x10000000 |   0x10000000 |   0x10000000 |   0x10000000 |   0x10000000 |   0x10000000 |   0x10000000 |   0x10000000 |   0x10000000 |   0x10000000 |   0x10000000 |   0x10000000 |   0x10000000 |   0x10000000 |   0x10000000 |   0x10000000 |   0x10000000 |   0x10000000 |   0x10000000 |   0x10000000 |   0x10000000 |   0x10000000 |   0x10000000 |   0x10000000 |
ld_data_size                                  8192 |         8192 |         8192 |         8192 |         8192 |         8192 |         8192 |         8192 |         8192 |         8192 |         8192 |         8192 |         8192 |         8192 |         8192 |         8192 |         8192 |         8192 |         8192 |         8192 |         8192 |         8192 |         8192 |         8192 |         8192 |         8192 |         8192 |         8192 |         8192 |         8192 |         8192 |         8192 |         8192 |         8192 |         8192 |         8192 |         8192 |         8192 |         8192 |         8192 |         8192 |         8192 |         8192 |         8192 |
ld_stack_base                           0x7fffc000 |   0x7fffc000 |   0x7fffc000 |   0x7fffc000 |   0x7fffc000 |   0x7fffc000 |   0x7fffc000 |   0x7fffc000 |   0x7fffc000 |   0x7fffc000 |   0x7fffc000 |   0x7fffc000 |   0x7fffc000 |   0x7fffc000 |   0x7fffc000 |   0x7fffc000 |   0x7fffc000 |   0x7fffc000 |   0x7fffc000 |   0x7fffc000 |   0x7fffc000 |   0x7fffc000 |   0x7fffc000 |   0x7fffc000 |   0x7fffc000 |   0x7fffc000 |   0x7fffc000 |   0x7fffc000 |   0x7fffc000 |   0x7fffc000 |   0x7fffc000 |   0x7fffc000 |   0x7fffc000 |   0x7fffc000 |   0x7fffc000 |   0x7fffc000 |   0x7fffc000 |   0x7fffc000 |   0x7fffc000 |   0x7fffc000 |   0x7fffc000 |   0x7fffc000 |   0x7fffc000 |   0x7fffc000 |
ld_stack_size                                16384 |        16384 |        16384 |        16384 |        16384 |        16384 |        16384 |        16384 |        16384 |        16384 |        16384 |        16384 |        16384 |        16384 |        16384 |        16384 |        16384 |        16384 |        16384 |        16384 |        16384 |        16384 |        16384 |        16384 |        16384 |        16384 |        16384 |        16384 |        16384 |        16384 |        16384 |        16384 |        16384 |        16384 |        16384 |        16384 |        16384 |        16384 |        16384 |        16384 |        16384 |        16384 |        16384 |        16384 |
ld_prog_entry                           0x00400140 |   0x00400140 |   0x00400140 |   0x00400140 |   0x00400140 |   0x00400140 |   0x00400140 |   0x00400140 |   0x00400140 |   0x00400140 |   0x00400140 |   0x00400140 |   0x00400140 |   0x00400140 |   0x00400140 |   0x00400140 |   0x00400140 |   0x00400140 |   0x00400140 |   0x00400140 |   0x00400140 |   0x00400140 |   0x00400140 |   0x00400140 |   0x00400140 |   0x00400140 |   0x00400140 |   0x00400140 |   0x00400140 |   0x00400140 |   0x00400140 |   0x00400140 |   0x00400140 |   0x00400140 |   0x00400140 |   0x00400140 |   0x00400140 |   0x00400140 |   0x00400140 |   0x00400140 |   0x00400140 |   0x00400140 |   0x00400140 |   0x00400140 |
ld_environ_base                         0x7fff8000 |   0x7fff8000 |   0x7fff8000 |   0x7fff8000 |   0x7fff8000 |   0x7fff8000 |   0x7fff8000 |   0x7fff8000 |   0x7fff8000 |   0x7fff8000 |   0x7fff8000 |   0x7fff8000 |   0x7fff8000 |   0x7fff8000 |   0x7fff8000 |   0x7fff8000 |   0x7fff8000 |   0x7fff8000 |   0x7fff8000 |   0x7fff8000 |   0x7fff8000 |   0x7fff8000 |   0x7fff8000 |   0x7fff8000 |   0x7fff8000 |   0x7fff8000 |   0x7fff8000 |   0x7fff8000 |   0x7fff8000 |   0x7fff8000 |   0x7fff8000 |   0x7fff8000 |   0x7fff8000 |   0x7fff8000 |   0x7fff8000 |   0x7fff8000 |   0x7fff8000 |   0x7fff8000 |   0x7fff8000 |   0x7fff8000 |   0x7fff8000 |   0x7fff8000 |   0x7fff8000 |   0x7fff8000 |
ld_target_big_endian                             0 |            0 |            0 |            0 |            0 |            0 |            0 |            0 |            0 |            0 |            0 |            0 |            0 |            0 |            0 |            0 |            0 |            0 |            0 |            0 |            0 |            0 |            0 |            0 |            0 |            0 |            0 |            0 |            0 |            0 |            0 |            0 |            0 |            0 |            0 |            0 |            0 |            0 |            0 |            0 |            0 |            0 |            0 |            0 |
mem.page_count                                  30 |           30 |           30 |           30 |           34 |           34 |           34 |           34 |           42 |           42 |           42 |           42 |           58 |           58 |           58 |           58 |           90 |           90 |           90 |           90 |          154 |          154 |          154 |          154 |          282 |          282 |          282 |          282 |          538 |          538 |          538 |          538 |         1050 |         1050 |         1050 |         1050 |         2074 |         2074 |         2074 |         2074 |         4122 |         4122 |         4122 |         4122 |
mem.page_mem                                  120k |         120k |         120k |         120k |         136k |         136k |         136k |         136k |         168k |         168k |         168k |         168k |         232k |         232k |         232k |         232k |         360k |         360k |         360k |         360k |         616k |         616k |         616k |         616k |        1128k |        1128k |        1128k |        1128k |        2152k |        2152k |        2152k |        2152k |        4200k |        4200k |        4200k |        4200k |        8296k |        8296k |        8296k |        8296k |       16488k |       16488k |       16488k |       16488k |
mem.ptab_misses                                 30 |           30 |           30 |           30 |           34 |           34 |           34 |           34 |           42 |           42 |           42 |           42 |           58 |           58 |           58 |           58 |           90 |           90 |           90 |           90 |          154 |          154 |          154 |          154 |          282 |          282 |          282 |          282 |          538 |          538 |          538 |          538 |         1050 |         1050 |         1050 |         1050 |         2074 |         2074 |         2074 |         2074 |         4122 |         4122 |         4122 |         4122 |
mem.ptab_accesses                          2702256 |      2702256 |      2702256 |      2702256 |      5395670 |      5395670 |      5395670 |      5395670 |     11007354 |     11007354 |     11007354 |     11007354 |     22786198 |     22786198 |     22786198 |     22786198 |     49633738 |     49633738 |     49633738 |     49633738 |    108010104 |    108010104 |    108010104 |    108010104 |    215288704 |    215288704 |    215288704 |    215288704 |    466975008 |    466975008 |    466975008 |    466975008 |    977539006 |    977539006 |    977539006 |    977539006 |   2033027124 |   2033027124 |   2033027124 |   2033027124 |   4458298178 |   4458298178 |   4458298178 |   4458298178 |
mem.ptab_miss_rate                          0.0000 |       0.0000 |       0.0000 |       0.0000 |       0.0000 |       0.0000 |       0.0000 |       0.0000 |       0.0000 |       0.0000 |       0.0000 |       0.0000 |       0.0000 |       0.0000 |       0.0000 |       0.0000 |       0.0000 |       0.0000 |       0.0000 |       0.0000 |       0.0000 |       0.0000 |       0.0000 |       0.0000 |       0.0000 |       0.0000 |       0.0000 |       0.0000 |       0.0000 |       0.0000 |       0.0000 |       0.0000 |       0.0000 |       0.0000 |       0.0000 |       0.0000 |       0.0000 |       0.0000 |       0.0000 |       0.0000 |       0.0000 |       0.0000 |       0.0000 |       0.0000 |
-------------------------------------------------------------------------------------------------
sim-bpred                                     4096 |         4096 |         4096 |         4096 |         4096 |         4096 |         4096 |         8192 |         8192 |         8192 |         8192 |         8192 |         8192 |         8192 |        16384 |        16384 |        16384 |        16384 |        16384 |        16384 |        16384 |        32768 |        32768 |        32768 |        32768 |        32768 |        32768 |        32768 |        65536 |        65536 |        65536 |        65536 |        65536 |        65536 |        65536 |       131072 |       131072 |       131072 |       131072 |       131072 |       131072 |       131072 |       262144 |       262144 |       262144 |       262144 |       262144 |       262144 |       262144 |       524288 |       524288 |       524288 |       524288 |       524288 |       524288 |       524288 |      1048576 |      1048576 |      1048576 |      1048576 |      1048576 |      1048576 |      1048576 |      2097152 |      2097152 |      2097152 |      2097152 |      2097152 |      2097152 |      2097152 |      4194304 |      4194304 |      4194304 |      4194304 |      4194304 |      4194304 |      4194304 |
-bpred bimod -bpred:bimod 512
-bpred bimod -bpred:bimod 1024
-bpred bimod -bpred:bimod 2048
-bpred 2lev -bpred:2lev 1 512 10 1
-bpred 2lev -bpred:2lev 1 1024 10 1
-bpred 2lev -bpred:2lev 1 2048 10 1
-bpred 2lev -bpred:2lev 1 4096 10 1
-------------------------------------------------------------------------------------------------
sim_num_insn                                490818 |       490818 |       490818 |       490818 |       490818 |       490818 |       490818 |      1083382 |      1083382 |      1083382 |      1083382 |      1083382 |      1083382 |      1083382 |      2317395 |      2317395 |      2317395 |      2317395 |      2317395 |      2317395 |      2317395 |      4910824 |      4910824 |      4910824 |      4910824 |      4910824 |      4910824 |      4910824 |     10849925 |     10849925 |     10849925 |     10849925 |     10849925 |     10849925 |     10849925 |     23802922 |     23802922 |     23802922 |     23802922 |     23802922 |     23802922 |     23802922 |     47430873 |     47430873 |     47430873 |     47430873 |     47430873 |     47430873 |     47430873 |    103278927 |    103278927 |    103278927 |    103278927 |    103278927 |    103278927 |    103278927 |    216300004 |    216300004 |    216300004 |    216300004 |    216300004 |    216300004 |    216300004 |    450241151 |    450241151 |    450241151 |    450241151 |    450241151 |    450241151 |    450241151 |    990814523 |    990814523 |    990814523 |    990814523 |    990814523 |    990814523 |    990814523 |
sim_num_refs                                126311 |       126311 |       126311 |       126311 |       126311 |       126311 |       126311 |       271410 |       271410 |       271410 |       271410 |       271410 |       271410 |       271410 |       576410 |       576410 |       576410 |       576410 |       576410 |       576410 |       576410 |      1213390 |      1213390 |      1213390 |      1213390 |      1213390 |      1213390 |      1213390 |      2627886 |      2627886 |      2627886 |      2627886 |      2627886 |      2627886 |      2627886 |      5647931 |      5647931 |      5647931 |      5647931 |      5647931 |      5647931 |      5647931 |     11507041 |     11507041 |     11507041 |     11507041 |     11507041 |     11507041 |     11507041 |     24605509 |     24605509 |     24605509 |     24605509 |     24605509 |     24605509 |     24605509 |     51748202 |     51748202 |     51748202 |     51748202 |     51748202 |     51748202 |     51748202 |    107415663 |    107415663 |    107415663 |    107415663 |    107415663 |    107415663 |    107415663 |    230515838 |    230515838 |    230515838 |    230515838 |    230515838 |    230515838 |    230515838 |
sim_elapsed_time                                 1 |            1 |            1 |            1 |            1 |            1 |            1 |            1 |            1 |            1 |            1 |            1 |            1 |            1 |            1 |            1 |            1 |            1 |            1 |            1 |            1 |            1 |            1 |            1 |            1 |            1 |            1 |            1 |            1 |            1 |            2 |            1 |            1 |            2 |            1 |            2 |            3 |            3 |            3 |            3 |            3 |            3 |            5 |            6 |            6 |            5 |            6 |            6 |            6 |           12 |           12 |           13 |           12 |           12 |           13 |           12 |           26 |           25 |           26 |           26 |           26 |           26 |           26 |           53 |           54 |           53 |           54 |           54 |           55 |           54 |          117 |          118 |          117 |          119 |          120 |          119 |          120 |
sim_inst_rate                          490818.0000 |  490818.0000 |  490818.0000 |  490818.0000 |  490818.0000 |  490818.0000 |  490818.0000 | 1083382.0000 | 1083382.0000 | 1083382.0000 | 1083382.0000 | 1083382.0000 | 1083382.0000 | 1083382.0000 | 2317395.0000 | 2317395.0000 | 2317395.0000 | 2317395.0000 | 2317395.0000 | 2317395.0000 | 2317395.0000 | 4910824.0000 | 4910824.0000 | 4910824.0000 | 4910824.0000 | 4910824.0000 | 4910824.0000 | 4910824.0000 |10849925.0000 |10849925.0000 | 5424962.5000 |10849925.0000 |10849925.0000 | 5424962.5000 |10849925.0000 |11901461.0000 | 7934307.3333 | 7934307.3333 | 7934307.3333 | 7934307.3333 | 7934307.3333 | 7934307.3333 | 9486174.6000 | 7905145.5000 | 7905145.5000 | 9486174.6000 | 7905145.5000 | 7905145.5000 | 7905145.5000 | 8606577.2500 | 8606577.2500 | 7944532.8462 | 8606577.2500 | 8606577.2500 | 7944532.8462 | 8606577.2500 | 8319230.9231 | 8652000.1600 | 8319230.9231 | 8319230.9231 | 8319230.9231 | 8319230.9231 | 8319230.9231 | 8495116.0566 | 8337799.0926 | 8495116.0566 | 8337799.0926 | 8337799.0926 | 8186202.7455 | 8337799.0926 | 8468500.1966 | 8396733.2458 | 8468500.1966 | 8326172.4622 | 8256787.6917 | 8326172.4622 | 8256787.6917 |
sim_num_branches                             96435 |        96435 |        96435 |        96435 |        96435 |        96435 |        96435 |       215555 |       215555 |       215555 |       215555 |       215555 |       215555 |       215555 |       462385 |       462385 |       462385 |       462385 |       462385 |       462385 |       462385 |       997304 |       997304 |       997304 |       997304 |       997304 |       997304 |       997304 |      2194445 |      2194445 |      2194445 |      2194445 |      2194445 |      2194445 |      2194445 |      4974040 |      4974040 |      4974040 |      4974040 |      4974040 |      4974040 |      4974040 |      9802634 |      9802634 |      9802634 |      9802634 |      9802634 |      9802634 |      9802634 |     21417184 |     21417184 |     21417184 |     21417184 |     21417184 |     21417184 |     21417184 |     44016212 |     44016212 |     44016212 |     44016212 |     44016212 |     44016212 |     44016212 |     93389323 |     93389323 |     93389323 |     93389323 |     93389323 |     93389323 |     93389323 |    210079288 |    210079288 |    210079288 |    210079288 |    210079288 |    210079288 |    210079288 |
sim_IPB                                     5.0896 |       5.0896 |       5.0896 |       5.0896 |       5.0896 |       5.0896 |       5.0896 |       5.0260 |       5.0260 |       5.0260 |       5.0260 |       5.0260 |       5.0260 |       5.0260 |       5.0118 |       5.0118 |       5.0118 |       5.0118 |       5.0118 |       5.0118 |       5.0118 |       4.9241 |       4.9241 |       4.9241 |       4.9241 |       4.9241 |       4.9241 |       4.9241 |       4.9443 |       4.9443 |       4.9443 |       4.9443 |       4.9443 |       4.9443 |       4.9443 |       4.7854 |       4.7854 |       4.7854 |       4.7854 |       4.7854 |       4.7854 |       4.7854 |       4.8386 |       4.8386 |       4.8386 |       4.8386 |       4.8386 |       4.8386 |       4.8386 |       4.8222 |       4.8222 |       4.8222 |       4.8222 |       4.8222 |       4.8222 |       4.8222 |       4.9141 |       4.9141 |       4.9141 |       4.9141 |       4.9141 |       4.9141 |       4.9141 |       4.8211 |       4.8211 |       4.8211 |       4.8211 |       4.8211 |       4.8211 |       4.8211 |       4.7164 |       4.7164 |       4.7164 |       4.7164 |       4.7164 |       4.7164 |       4.7164 |
bpred_bimod.lookups                          96435 |        96435 |        96435 |xxxxxxxxxxxxx |xxxxxxxxxxxxx |xxxxxxxxxxxxx |xxxxxxxxxxxxx |       215555 |       215555 |       215555 |xxxxxxxxxxxxx |xxxxxxxxxxxxx |xxxxxxxxxxxxx |xxxxxxxxxxxxx |       462385 |       462385 |       462385 |xxxxxxxxxxxxx |xxxxxxxxxxxxx |xxxxxxxxxxxxx |xxxxxxxxxxxxx |       997304 |       997304 |       997304 |xxxxxxxxxxxxx |xxxxxxxxxxxxx |xxxxxxxxxxxxx |xxxxxxxxxxxxx |      2194445 |      2194445 |      2194445 |xxxxxxxxxxxxx |xxxxxxxxxxxxx |xxxxxxxxxxxxx |xxxxxxxxxxxxx |      4974040 |      4974040 |      4974040 |xxxxxxxxxxxxx |xxxxxxxxxxxxx |xxxxxxxxxxxxx |xxxxxxxxxxxxx |      9802634 |      9802634 |      9802634 |xxxxxxxxxxxxx |xxxxxxxxxxxxx |xxxxxxxxxxxxx |xxxxxxxxxxxxx |     21417184 |     21417184 |     21417184 |xxxxxxxxxxxxx |xxxxxxxxxxxxx |xxxxxxxxxxxxx |xxxxxxxxxxxxx |     44016212 |     44016212 |     44016212 |xxxxxxxxxxxxx |xxxxxxxxxxxxx |xxxxxxxxxxxxx |xxxxxxxxxxxxx |     93389323 |     93389323 |     93389323 |xxxxxxxxxxxxx |xxxxxxxxxxxxx |xxxxxxxxxxxxx |xxxxxxxxxxxxx |    210079288 |    210079288 |    210079288 |
bpred_bimod.updates                          96435 |        96435 |        96435 |xxxxxxxxxxxxx |xxxxxxxxxxxxx |xxxxxxxxxxxxx |xxxxxxxxxxxxx |       215555 |       215555 |       215555 |xxxxxxxxxxxxx |xxxxxxxxxxxxx |xxxxxxxxxxxxx |xxxxxxxxxxxxx |       462385 |       462385 |       462385 |xxxxxxxxxxxxx |xxxxxxxxxxxxx |xxxxxxxxxxxxx |xxxxxxxxxxxxx |       997304 |       997304 |       997304 |xxxxxxxxxxxxx |xxxxxxxxxxxxx |xxxxxxxxxxxxx |xxxxxxxxxxxxx |      2194445 |      2194445 |      2194445 |xxxxxxxxxxxxx |xxxxxxxxxxxxx |xxxxxxxxxxxxx |xxxxxxxxxxxxx |      4974040 |      4974040 |      4974040 |xxxxxxxxxxxxx |xxxxxxxxxxxxx |xxxxxxxxxxxxx |xxxxxxxxxxxxx |      9802634 |      9802634 |      9802634 |xxxxxxxxxxxxx |xxxxxxxxxxxxx |xxxxxxxxxxxxx |xxxxxxxxxxxxx |     21417184 |     21417184 |     21417184 |xxxxxxxxxxxxx |xxxxxxxxxxxxx |xxxxxxxxxxxxx |xxxxxxxxxxxxx |     44016212 |     44016212 |     44016212 |xxxxxxxxxxxxx |xxxxxxxxxxxxx |xxxxxxxxxxxxx |xxxxxxxxxxxxx |     93389323 |     93389323 |     93389323 |xxxxxxxxxxxxx |xxxxxxxxxxxxx |xxxxxxxxxxxxx |xxxxxxxxxxxxx |    210079288 |    210079288 |    210079288 |
bpred_bimod.addr_hits                        74226 |        74226 |        74228 |xxxxxxxxxxxxx |xxxxxxxxxxxxx |xxxxxxxxxxxxx |xxxxxxxxxxxxx |       169124 |       169123 |       169123 |xxxxxxxxxxxxx |xxxxxxxxxxxxx |xxxxxxxxxxxxx |xxxxxxxxxxxxx |       362418 |       362420 |       362420 |xxxxxxxxxxxxx |xxxxxxxxxxxxx |xxxxxxxxxxxxx |xxxxxxxxxxxxx |       788627 |       788628 |       788632 |xxxxxxxxxxxxx |xxxxxxxxxxxxx |xxxxxxxxxxxxx |xxxxxxxxxxxxx |      1754168 |      1754169 |      1754170 |xxxxxxxxxxxxx |xxxxxxxxxxxxx |xxxxxxxxxxxxx |xxxxxxxxxxxxx |      4044426 |      4044427 |      4044427 |xxxxxxxxxxxxx |xxxxxxxxxxxxx |xxxxxxxxxxxxx |xxxxxxxxxxxxx |      7793072 |      7793073 |      7793074 |xxxxxxxxxxxxx |xxxxxxxxxxxxx |xxxxxxxxxxxxx |xxxxxxxxxxxxx |     17311664 |     17311665 |     17311668 |xxxxxxxxxxxxx |xxxxxxxxxxxxx |xxxxxxxxxxxxx |xxxxxxxxxxxxx |     35220365 |     35220366 |     35220370 |xxxxxxxxxxxxx |xxxxxxxxxxxxx |xxxxxxxxxxxxx |xxxxxxxxxxxxx |     74911730 |     74911731 |     74911735 |xxxxxxxxxxxxx |xxxxxxxxxxxxx |xxxxxxxxxxxxx |xxxxxxxxxxxxx |    172410885 |    172410886 |    172410890 |
bpred_bimod.dir_hits                         74337 |        74335 |        74337 |xxxxxxxxxxxxx |xxxxxxxxxxxxx |xxxxxxxxxxxxx |xxxxxxxxxxxxx |       169236 |       169233 |       169234 |xxxxxxxxxxxxx |xxxxxxxxxxxxx |xxxxxxxxxxxxx |xxxxxxxxxxxxx |       362530 |       362530 |       362530 |xxxxxxxxxxxxx |xxxxxxxxxxxxx |xxxxxxxxxxxxx |xxxxxxxxxxxxx |       788738 |       788737 |       788740 |xxxxxxxxxxxxx |xxxxxxxxxxxxx |xxxxxxxxxxxxx |xxxxxxxxxxxxx |      1754281 |      1754280 |      1754280 |xxxxxxxxxxxxx |xxxxxxxxxxxxx |xxxxxxxxxxxxx |xxxxxxxxxxxxx |      4044539 |      4044538 |      4044537 |xxxxxxxxxxxxx |xxxxxxxxxxxxx |xxxxxxxxxxxxx |xxxxxxxxxxxxx |      7793187 |      7793186 |      7793186 |xxxxxxxxxxxxx |xxxxxxxxxxxxx |xxxxxxxxxxxxx |xxxxxxxxxxxxx |     17311778 |     17311777 |     17311780 |xxxxxxxxxxxxx |xxxxxxxxxxxxx |xxxxxxxxxxxxx |xxxxxxxxxxxxx |     35220479 |     35220478 |     35220481 |xxxxxxxxxxxxx |xxxxxxxxxxxxx |xxxxxxxxxxxxx |xxxxxxxxxxxxx |     74911842 |     74911841 |     74911844 |xxxxxxxxxxxxx |xxxxxxxxxxxxx |xxxxxxxxxxxxx |xxxxxxxxxxxxx |    172410998 |    172410997 |    172411000 |
bpred_bimod.misses                           22098 |        22100 |        22098 |xxxxxxxxxxxxx |xxxxxxxxxxxxx |xxxxxxxxxxxxx |xxxxxxxxxxxxx |        46319 |        46322 |        46321 |xxxxxxxxxxxxx |xxxxxxxxxxxxx |xxxxxxxxxxxxx |xxxxxxxxxxxxx |        99855 |        99855 |        99855 |xxxxxxxxxxxxx |xxxxxxxxxxxxx |xxxxxxxxxxxxx |xxxxxxxxxxxxx |       208566 |       208567 |       208564 |xxxxxxxxxxxxx |xxxxxxxxxxxxx |xxxxxxxxxxxxx |xxxxxxxxxxxxx |       440164 |       440165 |       440165 |xxxxxxxxxxxxx |xxxxxxxxxxxxx |xxxxxxxxxxxxx |xxxxxxxxxxxxx |       929501 |       929502 |       929503 |xxxxxxxxxxxxx |xxxxxxxxxxxxx |xxxxxxxxxxxxx |xxxxxxxxxxxxx |      2009447 |      2009448 |      2009448 |xxxxxxxxxxxxx |xxxxxxxxxxxxx |xxxxxxxxxxxxx |xxxxxxxxxxxxx |      4105406 |      4105407 |      4105404 |xxxxxxxxxxxxx |xxxxxxxxxxxxx |xxxxxxxxxxxxx |xxxxxxxxxxxxx |      8795733 |      8795734 |      8795731 |xxxxxxxxxxxxx |xxxxxxxxxxxxx |xxxxxxxxxxxxx |xxxxxxxxxxxxx |     18477481 |     18477482 |     18477479 |xxxxxxxxxxxxx |xxxxxxxxxxxxx |xxxxxxxxxxxxx |xxxxxxxxxxxxx |     37668290 |     37668291 |     37668288 |
bpred_bimod.jr_hits                             64 |           64 |           64 |xxxxxxxxxxxxx |xxxxxxxxxxxxx |xxxxxxxxxxxxx |xxxxxxxxxxxxx |           64 |           64 |           64 |xxxxxxxxxxxxx |xxxxxxxxxxxxx |xxxxxxxxxxxxx |xxxxxxxxxxxxx |           64 |           64 |           64 |xxxxxxxxxxxxx |xxxxxxxxxxxxx |xxxxxxxxxxxxx |xxxxxxxxxxxxx |           64 |           64 |           64 |xxxxxxxxxxxxx |xxxxxxxxxxxxx |xxxxxxxxxxxxx |xxxxxxxxxxxxx |           64 |           64 |           64 |xxxxxxxxxxxxx |xxxxxxxxxxxxx |xxxxxxxxxxxxx |xxxxxxxxxxxxx |           64 |           64 |           64 |xxxxxxxxxxxxx |xxxxxxxxxxxxx |xxxxxxxxxxxxx |xxxxxxxxxxxxx |           64 |           64 |           64 |xxxxxxxxxxxxx |xxxxxxxxxxxxx |xxxxxxxxxxxxx |xxxxxxxxxxxxx |           64 |           64 |           64 |xxxxxxxxxxxxx |xxxxxxxxxxxxx |xxxxxxxxxxxxx |xxxxxxxxxxxxx |           64 |           64 |           64 |xxxxxxxxxxxxx |xxxxxxxxxxxxx |xxxxxxxxxxxxx |xxxxxxxxxxxxx |           64 |           64 |           64 |xxxxxxxxxxxxx |xxxxxxxxxxxxx |xxxxxxxxxxxxx |xxxxxxxxxxxxx |           64 |           64 |           64 |
bpred_bimod.jr_seen                             64 |           64 |           64 |xxxxxxxxxxxxx |xxxxxxxxxxxxx |xxxxxxxxxxxxx |xxxxxxxxxxxxx |           64 |           64 |           64 |xxxxxxxxxxxxx |xxxxxxxxxxxxx |xxxxxxxxxxxxx |xxxxxxxxxxxxx |           64 |           64 |           64 |xxxxxxxxxxxxx |xxxxxxxxxxxxx |xxxxxxxxxxxxx |xxxxxxxxxxxxx |           64 |           64 |           64 |xxxxxxxxxxxxx |xxxxxxxxxxxxx |xxxxxxxxxxxxx |xxxxxxxxxxxxx |           64 |           64 |           64 |xxxxxxxxxxxxx |xxxxxxxxxxxxx |xxxxxxxxxxxxx |xxxxxxxxxxxxx |           64 |           64 |           64 |xxxxxxxxxxxxx |xxxxxxxxxxxxx |xxxxxxxxxxxxx |xxxxxxxxxxxxx |           64 |           64 |           64 |xxxxxxxxxxxxx |xxxxxxxxxxxxx |xxxxxxxxxxxxx |xxxxxxxxxxxxx |           64 |           64 |           64 |xxxxxxxxxxxxx |xxxxxxxxxxxxx |xxxxxxxxxxxxx |xxxxxxxxxxxxx |           64 |           64 |           64 |xxxxxxxxxxxxx |xxxxxxxxxxxxx |xxxxxxxxxxxxx |xxxxxxxxxxxxx |           64 |           64 |           64 |xxxxxxxxxxxxx |xxxxxxxxxxxxx |xxxxxxxxxxxxx |xxxxxxxxxxxxx |           64 |           64 |           64 |
bpred_bimod.jr_non_ras_hits.PP                   0 |            0 |            0 |xxxxxxxxxxxxx |xxxxxxxxxxxxx |xxxxxxxxxxxxx |xxxxxxxxxxxxx |            0 |            0 |            0 |xxxxxxxxxxxxx |xxxxxxxxxxxxx |xxxxxxxxxxxxx |xxxxxxxxxxxxx |            0 |            0 |            0 |xxxxxxxxxxxxx |xxxxxxxxxxxxx |xxxxxxxxxxxxx |xxxxxxxxxxxxx |            0 |            0 |            0 |xxxxxxxxxxxxx |xxxxxxxxxxxxx |xxxxxxxxxxxxx |xxxxxxxxxxxxx |            0 |            0 |            0 |xxxxxxxxxxxxx |xxxxxxxxxxxxx |xxxxxxxxxxxxx |xxxxxxxxxxxxx |            0 |            0 |            0 |xxxxxxxxxxxxx |xxxxxxxxxxxxx |xxxxxxxxxxxxx |xxxxxxxxxxxxx |            0 |            0 |            0 |xxxxxxxxxxxxx |xxxxxxxxxxxxx |xxxxxxxxxxxxx |xxxxxxxxxxxxx |            0 |            0 |            0 |xxxxxxxxxxxxx |xxxxxxxxxxxxx |xxxxxxxxxxxxx |xxxxxxxxxxxxx |            0 |            0 |            0 |xxxxxxxxxxxxx |xxxxxxxxxxxxx |xxxxxxxxxxxxx |xxxxxxxxxxxxx |            0 |            0 |            0 |xxxxxxxxxxxxx |xxxxxxxxxxxxx |xxxxxxxxxxxxx |xxxxxxxxxxxxx |            0 |            0 |            0 |
bpred_bimod.jr_non_ras_seen.PP                   0 |            0 |            0 |xxxxxxxxxxxxx |xxxxxxxxxxxxx |xxxxxxxxxxxxx |xxxxxxxxxxxxx |            0 |            0 |            0 |xxxxxxxxxxxxx |xxxxxxxxxxxxx |xxxxxxxxxxxxx |xxxxxxxxxxxxx |            0 |            0 |            0 |xxxxxxxxxxxxx |xxxxxxxxxxxxx |xxxxxxxxxxxxx |xxxxxxxxxxxxx |            0 |            0 |            0 |xxxxxxxxxxxxx |xxxxxxxxxxxxx |xxxxxxxxxxxxx |xxxxxxxxxxxxx |            0 |            0 |            0 |xxxxxxxxxxxxx |xxxxxxxxxxxxx |xxxxxxxxxxxxx |xxxxxxxxxxxxx |            0 |            0 |            0 |xxxxxxxxxxxxx |xxxxxxxxxxxxx |xxxxxxxxxxxxx |xxxxxxxxxxxxx |            0 |            0 |            0 |xxxxxxxxxxxxx |xxxxxxxxxxxxx |xxxxxxxxxxxxx |xxxxxxxxxxxxx |            0 |            0 |            0 |xxxxxxxxxxxxx |xxxxxxxxxxxxx |xxxxxxxxxxxxx |xxxxxxxxxxxxx |            0 |            0 |            0 |xxxxxxxxxxxxx |xxxxxxxxxxxxx |xxxxxxxxxxxxx |xxxxxxxxxxxxx |            0 |            0 |            0 |xxxxxxxxxxxxx |xxxxxxxxxxxxx |xxxxxxxxxxxxx |xxxxxxxxxxxxx |            0 |            0 |            0 |
bpred_bimod.bpred_addr_rate                 0.7697 |       0.7697 |       0.7697 |xxxxxxxxxxxxx |xxxxxxxxxxxxx |xxxxxxxxxxxxx |xxxxxxxxxxxxx |       0.7846 |       0.7846 |       0.7846 |xxxxxxxxxxxxx |xxxxxxxxxxxxx |xxxxxxxxxxxxx |xxxxxxxxxxxxx |       0.7838 |       0.7838 |       0.7838 |xxxxxxxxxxxxx |xxxxxxxxxxxxx |xxxxxxxxxxxxx |xxxxxxxxxxxxx |       0.7908 |       0.7908 |       0.7908 |xxxxxxxxxxxxx |xxxxxxxxxxxxx |xxxxxxxxxxxxx |xxxxxxxxxxxxx |       0.7994 |       0.7994 |       0.7994 |xxxxxxxxxxxxx |xxxxxxxxxxxxx |xxxxxxxxxxxxx |xxxxxxxxxxxxx |       0.8131 |       0.8131 |       0.8131 |xxxxxxxxxxxxx |xxxxxxxxxxxxx |xxxxxxxxxxxxx |xxxxxxxxxxxxx |       0.7950 |       0.7950 |       0.7950 |xxxxxxxxxxxxx |xxxxxxxxxxxxx |xxxxxxxxxxxxx |xxxxxxxxxxxxx |       0.8083 |       0.8083 |       0.8083 |xxxxxxxxxxxxx |xxxxxxxxxxxxx |xxxxxxxxxxxxx |xxxxxxxxxxxxx |       0.8002 |       0.8002 |       0.8002 |xxxxxxxxxxxxx |xxxxxxxxxxxxx |xxxxxxxxxxxxx |xxxxxxxxxxxxx |       0.8021 |       0.8021 |       0.8021 |xxxxxxxxxxxxx |xxxxxxxxxxxxx |xxxxxxxxxxxxx |xxxxxxxxxxxxx |       0.8207 |       0.8207 |       0.8207 |
bpred_bimod.bpred_dir_rate                  0.7709 |       0.7708 |       0.7709 |xxxxxxxxxxxxx |xxxxxxxxxxxxx |xxxxxxxxxxxxx |xxxxxxxxxxxxx |       0.7851 |       0.7851 |       0.7851 |xxxxxxxxxxxxx |xxxxxxxxxxxxx |xxxxxxxxxxxxx |xxxxxxxxxxxxx |       0.7840 |       0.7840 |       0.7840 |xxxxxxxxxxxxx |xxxxxxxxxxxxx |xxxxxxxxxxxxx |xxxxxxxxxxxxx |       0.7909 |       0.7909 |       0.7909 |xxxxxxxxxxxxx |xxxxxxxxxxxxx |xxxxxxxxxxxxx |xxxxxxxxxxxxx |       0.7994 |       0.7994 |       0.7994 |xxxxxxxxxxxxx |xxxxxxxxxxxxx |xxxxxxxxxxxxx |xxxxxxxxxxxxx |       0.8131 |       0.8131 |       0.8131 |xxxxxxxxxxxxx |xxxxxxxxxxxxx |xxxxxxxxxxxxx |xxxxxxxxxxxxx |       0.7950 |       0.7950 |       0.7950 |xxxxxxxxxxxxx |xxxxxxxxxxxxx |xxxxxxxxxxxxx |xxxxxxxxxxxxx |       0.8083 |       0.8083 |       0.8083 |xxxxxxxxxxxxx |xxxxxxxxxxxxx |xxxxxxxxxxxxx |xxxxxxxxxxxxx |       0.8002 |       0.8002 |       0.8002 |xxxxxxxxxxxxx |xxxxxxxxxxxxx |xxxxxxxxxxxxx |xxxxxxxxxxxxx |       0.8021 |       0.8021 |       0.8021 |xxxxxxxxxxxxx |xxxxxxxxxxxxx |xxxxxxxxxxxxx |xxxxxxxxxxxxx |       0.8207 |       0.8207 |       0.8207 |
bpred_bimod.bpred_jr_rate                   1.0000 |       1.0000 |       1.0000 |xxxxxxxxxxxxx |xxxxxxxxxxxxx |xxxxxxxxxxxxx |xxxxxxxxxxxxx |       1.0000 |       1.0000 |       1.0000 |xxxxxxxxxxxxx |xxxxxxxxxxxxx |xxxxxxxxxxxxx |xxxxxxxxxxxxx |       1.0000 |       1.0000 |       1.0000 |xxxxxxxxxxxxx |xxxxxxxxxxxxx |xxxxxxxxxxxxx |xxxxxxxxxxxxx |       1.0000 |       1.0000 |       1.0000 |xxxxxxxxxxxxx |xxxxxxxxxxxxx |xxxxxxxxxxxxx |xxxxxxxxxxxxx |       1.0000 |       1.0000 |       1.0000 |xxxxxxxxxxxxx |xxxxxxxxxxxxx |xxxxxxxxxxxxx |xxxxxxxxxxxxx |       1.0000 |       1.0000 |       1.0000 |xxxxxxxxxxxxx |xxxxxxxxxxxxx |xxxxxxxxxxxxx |xxxxxxxxxxxxx |       1.0000 |       1.0000 |       1.0000 |xxxxxxxxxxxxx |xxxxxxxxxxxxx |xxxxxxxxxxxxx |xxxxxxxxxxxxx |       1.0000 |       1.0000 |       1.0000 |xxxxxxxxxxxxx |xxxxxxxxxxxxx |xxxxxxxxxxxxx |xxxxxxxxxxxxx |       1.0000 |       1.0000 |       1.0000 |xxxxxxxxxxxxx |xxxxxxxxxxxxx |xxxxxxxxxxxxx |xxxxxxxxxxxxx |       1.0000 |       1.0000 |       1.0000 |xxxxxxxxxxxxx |xxxxxxxxxxxxx |xxxxxxxxxxxxx |xxxxxxxxxxxxx |       1.0000 |       1.0000 |       1.0000 |
bpred_bimod.bpred_jr_non_ras_rate.PP       <error: |      <error: |      <error: |xxxxxxxxxxxxx |xxxxxxxxxxxxx |xxxxxxxxxxxxx |xxxxxxxxxxxxx |      <error: |      <error: |      <error: |xxxxxxxxxxxxx |xxxxxxxxxxxxx |xxxxxxxxxxxxx |xxxxxxxxxxxxx |      <error: |      <error: |      <error: |xxxxxxxxxxxxx |xxxxxxxxxxxxx |xxxxxxxxxxxxx |xxxxxxxxxxxxx |      <error: |      <error: |      <error: |xxxxxxxxxxxxx |xxxxxxxxxxxxx |xxxxxxxxxxxxx |xxxxxxxxxxxxx |      <error: |      <error: |      <error: |xxxxxxxxxxxxx |xxxxxxxxxxxxx |xxxxxxxxxxxxx |xxxxxxxxxxxxx |      <error: |      <error: |      <error: |xxxxxxxxxxxxx |xxxxxxxxxxxxx |xxxxxxxxxxxxx |xxxxxxxxxxxxx |      <error: |      <error: |      <error: |xxxxxxxxxxxxx |xxxxxxxxxxxxx |xxxxxxxxxxxxx |xxxxxxxxxxxxx |      <error: |      <error: |      <error: |xxxxxxxxxxxxx |xxxxxxxxxxxxx |xxxxxxxxxxxxx |xxxxxxxxxxxxx |      <error: |      <error: |      <error: |xxxxxxxxxxxxx |xxxxxxxxxxxxx |xxxxxxxxxxxxx |xxxxxxxxxxxxx |      <error: |      <error: |      <error: |xxxxxxxxxxxxx |xxxxxxxxxxxxx |xxxxxxxxxxxxx |xxxxxxxxxxxxx |      <error: |      <error: |      <error: |
bpred_bimod.retstack_pushes                     66 |           66 |           66 |xxxxxxxxxxxxx |xxxxxxxxxxxxx |xxxxxxxxxxxxx |xxxxxxxxxxxxx |           66 |           66 |           66 |xxxxxxxxxxxxx |xxxxxxxxxxxxx |xxxxxxxxxxxxx |xxxxxxxxxxxxx |           66 |           66 |           66 |xxxxxxxxxxxxx |xxxxxxxxxxxxx |xxxxxxxxxxxxx |xxxxxxxxxxxxx |           66 |           66 |           66 |xxxxxxxxxxxxx |xxxxxxxxxxxxx |xxxxxxxxxxxxx |xxxxxxxxxxxxx |           66 |           66 |           66 |xxxxxxxxxxxxx |xxxxxxxxxxxxx |xxxxxxxxxxxxx |xxxxxxxxxxxxx |           66 |           66 |           66 |xxxxxxxxxxxxx |xxxxxxxxxxxxx |xxxxxxxxxxxxx |xxxxxxxxxxxxx |           66 |           66 |           66 |xxxxxxxxxxxxx |xxxxxxxxxxxxx |xxxxxxxxxxxxx |xxxxxxxxxxxxx |           66 |           66 |           66 |xxxxxxxxxxxxx |xxxxxxxxxxxxx |xxxxxxxxxxxxx |xxxxxxxxxxxxx |           66 |           66 |           66 |xxxxxxxxxxxxx |xxxxxxxxxxxxx |xxxxxxxxxxxxx |xxxxxxxxxxxxx |           66 |           66 |           66 |xxxxxxxxxxxxx |xxxxxxxxxxxxx |xxxxxxxxxxxxx |xxxxxxxxxxxxx |           66 |           66 |           66 |
bpred_bimod.retstack_pops                       64 |           64 |           64 |xxxxxxxxxxxxx |xxxxxxxxxxxxx |xxxxxxxxxxxxx |xxxxxxxxxxxxx |           64 |           64 |           64 |xxxxxxxxxxxxx |xxxxxxxxxxxxx |xxxxxxxxxxxxx |xxxxxxxxxxxxx |           64 |           64 |           64 |xxxxxxxxxxxxx |xxxxxxxxxxxxx |xxxxxxxxxxxxx |xxxxxxxxxxxxx |           64 |           64 |           64 |xxxxxxxxxxxxx |xxxxxxxxxxxxx |xxxxxxxxxxxxx |xxxxxxxxxxxxx |           64 |           64 |           64 |xxxxxxxxxxxxx |xxxxxxxxxxxxx |xxxxxxxxxxxxx |xxxxxxxxxxxxx |           64 |           64 |           64 |xxxxxxxxxxxxx |xxxxxxxxxxxxx |xxxxxxxxxxxxx |xxxxxxxxxxxxx |           64 |           64 |           64 |xxxxxxxxxxxxx |xxxxxxxxxxxxx |xxxxxxxxxxxxx |xxxxxxxxxxxxx |           64 |           64 |           64 |xxxxxxxxxxxxx |xxxxxxxxxxxxx |xxxxxxxxxxxxx |xxxxxxxxxxxxx |           64 |           64 |           64 |xxxxxxxxxxxxx |xxxxxxxxxxxxx |xxxxxxxxxxxxx |xxxxxxxxxxxxx |           64 |           64 |           64 |xxxxxxxxxxxxx |xxxxxxxxxxxxx |xxxxxxxxxxxxx |xxxxxxxxxxxxx |           64 |           64 |           64 |
bpred_bimod.used_ras.PP                         64 |           64 |           64 |xxxxxxxxxxxxx |xxxxxxxxxxxxx |xxxxxxxxxxxxx |xxxxxxxxxxxxx |           64 |           64 |           64 |xxxxxxxxxxxxx |xxxxxxxxxxxxx |xxxxxxxxxxxxx |xxxxxxxxxxxxx |           64 |           64 |           64 |xxxxxxxxxxxxx |xxxxxxxxxxxxx |xxxxxxxxxxxxx |xxxxxxxxxxxxx |           64 |           64 |           64 |xxxxxxxxxxxxx |xxxxxxxxxxxxx |xxxxxxxxxxxxx |xxxxxxxxxxxxx |           64 |           64 |           64 |xxxxxxxxxxxxx |xxxxxxxxxxxxx |xxxxxxxxxxxxx |xxxxxxxxxxxxx |           64 |           64 |           64 |xxxxxxxxxxxxx |xxxxxxxxxxxxx |xxxxxxxxxxxxx |xxxxxxxxxxxxx |           64 |           64 |           64 |xxxxxxxxxxxxx |xxxxxxxxxxxxx |xxxxxxxxxxxxx |xxxxxxxxxxxxx |           64 |           64 |           64 |xxxxxxxxxxxxx |xxxxxxxxxxxxx |xxxxxxxxxxxxx |xxxxxxxxxxxxx |           64 |           64 |           64 |xxxxxxxxxxxxx |xxxxxxxxxxxxx |xxxxxxxxxxxxx |xxxxxxxxxxxxx |           64 |           64 |           64 |xxxxxxxxxxxxx |xxxxxxxxxxxxx |xxxxxxxxxxxxx |xxxxxxxxxxxxx |           64 |           64 |           64 |
bpred_bimod.ras_hits.PP                         64 |           64 |           64 |xxxxxxxxxxxxx |xxxxxxxxxxxxx |xxxxxxxxxxxxx |xxxxxxxxxxxxx |           64 |           64 |           64 |xxxxxxxxxxxxx |xxxxxxxxxxxxx |xxxxxxxxxxxxx |xxxxxxxxxxxxx |           64 |           64 |           64 |xxxxxxxxxxxxx |xxxxxxxxxxxxx |xxxxxxxxxxxxx |xxxxxxxxxxxxx |           64 |           64 |           64 |xxxxxxxxxxxxx |xxxxxxxxxxxxx |xxxxxxxxxxxxx |xxxxxxxxxxxxx |           64 |           64 |           64 |xxxxxxxxxxxxx |xxxxxxxxxxxxx |xxxxxxxxxxxxx |xxxxxxxxxxxxx |           64 |           64 |           64 |xxxxxxxxxxxxx |xxxxxxxxxxxxx |xxxxxxxxxxxxx |xxxxxxxxxxxxx |           64 |           64 |           64 |xxxxxxxxxxxxx |xxxxxxxxxxxxx |xxxxxxxxxxxxx |xxxxxxxxxxxxx |           64 |           64 |           64 |xxxxxxxxxxxxx |xxxxxxxxxxxxx |xxxxxxxxxxxxx |xxxxxxxxxxxxx |           64 |           64 |           64 |xxxxxxxxxxxxx |xxxxxxxxxxxxx |xxxxxxxxxxxxx |xxxxxxxxxxxxx |           64 |           64 |           64 |xxxxxxxxxxxxx |xxxxxxxxxxxxx |xxxxxxxxxxxxx |xxxxxxxxxxxxx |           64 |           64 |           64 |
bpred_bimod.ras_rate.PP                     1.0000 |       1.0000 |       1.0000 |xxxxxxxxxxxxx |xxxxxxxxxxxxx |xxxxxxxxxxxxx |xxxxxxxxxxxxx |       1.0000 |       1.0000 |       1.0000 |xxxxxxxxxxxxx |xxxxxxxxxxxxx |xxxxxxxxxxxxx |xxxxxxxxxxxxx |       1.0000 |       1.0000 |       1.0000 |xxxxxxxxxxxxx |xxxxxxxxxxxxx |xxxxxxxxxxxxx |xxxxxxxxxxxxx |       1.0000 |       1.0000 |       1.0000 |xxxxxxxxxxxxx |xxxxxxxxxxxxx |xxxxxxxxxxxxx |xxxxxxxxxxxxx |       1.0000 |       1.0000 |       1.0000 |xxxxxxxxxxxxx |xxxxxxxxxxxxx |xxxxxxxxxxxxx |xxxxxxxxxxxxx |       1.0000 |       1.0000 |       1.0000 |xxxxxxxxxxxxx |xxxxxxxxxxxxx |xxxxxxxxxxxxx |xxxxxxxxxxxxx |       1.0000 |       1.0000 |       1.0000 |xxxxxxxxxxxxx |xxxxxxxxxxxxx |xxxxxxxxxxxxx |xxxxxxxxxxxxx |       1.0000 |       1.0000 |       1.0000 |xxxxxxxxxxxxx |xxxxxxxxxxxxx |xxxxxxxxxxxxx |xxxxxxxxxxxxx |       1.0000 |       1.0000 |       1.0000 |xxxxxxxxxxxxx |xxxxxxxxxxxxx |xxxxxxxxxxxxx |xxxxxxxxxxxxx |       1.0000 |       1.0000 |       1.0000 |xxxxxxxxxxxxx |xxxxxxxxxxxxx |xxxxxxxxxxxxx |xxxxxxxxxxxxx |       1.0000 |       1.0000 |       1.0000 |
bpred_2lev.lookups                   xxxxxxxxxxxxx |xxxxxxxxxxxxx |xxxxxxxxxxxxx |        96435 |        96435 |        96435 |        96435 |xxxxxxxxxxxxx |xxxxxxxxxxxxx |xxxxxxxxxxxxx |       215555 |       215555 |       215555 |       215555 |xxxxxxxxxxxxx |xxxxxxxxxxxxx |xxxxxxxxxxxxx |       462385 |       462385 |       462385 |       462385 |xxxxxxxxxxxxx |xxxxxxxxxxxxx |xxxxxxxxxxxxx |       997304 |       997304 |       997304 |       997304 |xxxxxxxxxxxxx |xxxxxxxxxxxxx |xxxxxxxxxxxxx |      2194445 |      2194445 |      2194445 |      2194445 |xxxxxxxxxxxxx |xxxxxxxxxxxxx |xxxxxxxxxxxxx |      4974040 |      4974040 |      4974040 |      4974040 |xxxxxxxxxxxxx |xxxxxxxxxxxxx |xxxxxxxxxxxxx |      9802634 |      9802634 |      9802634 |      9802634 |xxxxxxxxxxxxx |xxxxxxxxxxxxx |xxxxxxxxxxxxx |     21417184 |     21417184 |     21417184 |     21417184 |xxxxxxxxxxxxx |xxxxxxxxxxxxx |xxxxxxxxxxxxx |     44016212 |     44016212 |     44016212 |     44016212 |xxxxxxxxxxxxx |xxxxxxxxxxxxx |xxxxxxxxxxxxx |     93389323 |     93389323 |     93389323 |     93389323 |xxxxxxxxxxxxx |xxxxxxxxxxxxx |xxxxxxxxxxxxx |    210079288 |    210079288 |    210079288 |    210079288 |
[...]
bpred_2lev.retstack_pushes           xxxxxxxxxxxxx |xxxxxxxxxxxxx |xxxxxxxxxxxxx |           66 |           66 |           66 |           66 |xxxxxxxxxxxxx |xxxxxxxxxxxxx |xxxxxxxxxxxxx |           66 |           66 |           66 |           66 |xxxxxxxxxxxxx |xxxxxxxxxxxxx |xxxxxxxxxxxxx |           66 |           66 |           66 |           66 |xxxxxxxxxxxxx |xxxxxxxxxxxxx |xxxxxxxxxxxxx |           66 |           66 |           66 |           66 |xxxxxxxxxxxxx |xxxxxxxxxxxxx |xxxxxxxxxxxxx |           66 |           66 |           66 |           66 |xxxxxxxxxxxxx |xxxxxxxxxxxxx |xxxxxxxxxxxxx |           66 |           66 |           66 |           66 |xxxxxxxxxxxxx |xxxxxxxxxxxxx |xxxxxxxxxxxxx |           66 |           66 |           66 |           66 |xxxxxxxxxxxxx |xxxxxxxxxxxxx |xxxxxxxxxxxxx |           66 |           66 |           66 |           66 |xxxxxxxxxxxxx |xxxxxxxxxxxxx |xxxxxxxxxxxxx |           66 |           66 |           66 |           66 |xxxxxxxxxxxxx |xxxxxxxxxxxxx |xxxxxxxxxxxxx |           66 |           66 |           66 |           66 |xxxxxxxxxxxxx |xxxxxxxxxxxxx |xxxxxxxxxxxxx |           66 |           66 |           66 |           66 |
bpred_2lev.retstack_pops             xxxxxxxxxxxxx |xxxxxxxxxxxxx |xxxxxxxxxxxxx |           64 |           64 |           64 |           64 |xxxxxxxxxxxxx |xxxxxxxxxxxxx |xxxxxxxxxxxxx |           64 |           64 |           64 |           64 |xxxxxxxxxxxxx |xxxxxxxxxxxxx |xxxxxxxxxxxxx |           64 |           64 |           64 |           64 |xxxxxxxxxxxxx |xxxxxxxxxxxxx |xxxxxxxxxxxxx |           64 |           64 |           64 |           64 |xxxxxxxxxxxxx |xxxxxxxxxxxxx |xxxxxxxxxxxxx |           64 |           64 |           64 |           64 |xxxxxxxxxxxxx |xxxxxxxxxxxxx |xxxxxxxxxxxxx |           64 |           64 |           64 |           64 |xxxxxxxxxxxxx |xxxxxxxxxxxxx |xxxxxxxxxxxxx |           64 |           64 |           64 |           64 |xxxxxxxxxxxxx |xxxxxxxxxxxxx |xxxxxxxxxxxxx |           64 |           64 |           64 |           64 |xxxxxxxxxxxxx |xxxxxxxxxxxxx |xxxxxxxxxxxxx |           64 |           64 |           64 |           64 |xxxxxxxxxxxxx |xxxxxxxxxxxxx |xxxxxxxxxxxxx |           64 |           64 |           64 |           64 |xxxxxxxxxxxxx |xxxxxxxxxxxxx |xxxxxxxxxxxxx |           64 |           64 |           64 |           64 |
bpred_2lev.used_ras.PP               xxxxxxxxxxxxx |xxxxxxxxxxxxx |xxxxxxxxxxxxx |           64 |           64 |           64 |           64 |xxxxxxxxxxxxx |xxxxxxxxxxxxx |xxxxxxxxxxxxx |           64 |           64 |           64 |           64 |xxxxxxxxxxxxx |xxxxxxxxxxxxx |xxxxxxxxxxxxx |           64 |           64 |           64 |           64 |xxxxxxxxxxxxx |xxxxxxxxxxxxx |xxxxxxxxxxxxx |           64 |           64 |           64 |           64 |xxxxxxxxxxxxx |xxxxxxxxxxxxx |xxxxxxxxxxxxx |           64 |           64 |           64 |           64 |xxxxxxxxxxxxx |xxxxxxxxxxxxx |xxxxxxxxxxxxx |           64 |           64 |           64 |           64 |xxxxxxxxxxxxx |xxxxxxxxxxxxx |xxxxxxxxxxxxx |           64 |           64 |           64 |           64 |xxxxxxxxxxxxx |xxxxxxxxxxxxx |xxxxxxxxxxxxx |           64 |           64 |           64 |           64 |xxxxxxxxxxxxx |xxxxxxxxxxxxx |xxxxxxxxxxxxx |           64 |           64 |           64 |           64 |xxxxxxxxxxxxx |xxxxxxxxxxxxx |xxxxxxxxxxxxx |           64 |           64 |           64 |           64 |xxxxxxxxxxxxx |xxxxxxxxxxxxx |xxxxxxxxxxxxx |           64 |           64 |           64 |           64 |
bpred_2lev.ras_hits.PP               xxxxxxxxxxxxx |xxxxxxxxxxxxx |xxxxxxxxxxxxx |           64 |           64 |           64 |           64 |xxxxxxxxxxxxx |xxxxxxxxxxxxx |xxxxxxxxxxxxx |           64 |           64 |           64 |           64 |xxxxxxxxxxxxx |xxxxxxxxxxxxx |xxxxxxxxxxxxx |           64 |           64 |           64 |           64 |xxxxxxxxxxxxx |xxxxxxxxxxxxx |xxxxxxxxxxxxx |           64 |           64 |           64 |           64 |xxxxxxxxxxxxx |xxxxxxxxxxxxx |xxxxxxxxxxxxx |           64 |           64 |           64 |           64 |xxxxxxxxxxxxx |xxxxxxxxxxxxx |xxxxxxxxxxxxx |           64 |           64 |           64 |           64 |xxxxxxxxxxxxx |xxxxxxxxxxxxx |xxxxxxxxxxxxx |           64 |           64 |           64 |           64 |xxxxxxxxxxxxx |xxxxxxxxxxxxx |xxxxxxxxxxxxx |           64 |           64 |           64 |           64 |xxxxxxxxxxxxx |xxxxxxxxxxxxx |xxxxxxxxxxxxx |           64 |           64 |           64 |           64 |xxxxxxxxxxxxx |xxxxxxxxxxxxx |xxxxxxxxxxxxx |           64 |           64 |           64 |           64 |xxxxxxxxxxxxx |xxxxxxxxxxxxx |xxxxxxxxxxxxx |           64 |           64 |           64 |           64 |
bpred_2lev.ras_rate.PP               xxxxxxxxxxxxx |xxxxxxxxxxxxx |xxxxxxxxxxxxx |       1.0000 |       1.0000 |       1.0000 |       1.0000 |xxxxxxxxxxxxx |xxxxxxxxxxxxx |xxxxxxxxxxxxx |       1.0000 |       1.0000 |       1.0000 |       1.0000 |xxxxxxxxxxxxx |xxxxxxxxxxxxx |xxxxxxxxxxxxx |       1.0000 |       1.0000 |       1.0000 |       1.0000 |xxxxxxxxxxxxx |xxxxxxxxxxxxx |xxxxxxxxxxxxx |       1.0000 |       1.0000 |       1.0000 |       1.0000 |xxxxxxxxxxxxx |xxxxxxxxxxxxx |xxxxxxxxxxxxx |       1.0000 |       1.0000 |       1.0000 |       1.0000 |xxxxxxxxxxxxx |xxxxxxxxxxxxx |xxxxxxxxxxxxx |       1.0000 |       1.0000 |       1.0000 |       1.0000 |xxxxxxxxxxxxx |xxxxxxxxxxxxx |xxxxxxxxxxxxx |       1.0000 |       1.0000 |       1.0000 |       1.0000 |xxxxxxxxxxxxx |xxxxxxxxxxxxx |xxxxxxxxxxxxx |       1.0000 |       1.0000 |       1.0000 |       1.0000 |xxxxxxxxxxxxx |xxxxxxxxxxxxx |xxxxxxxxxxxxx |       1.0000 |       1.0000 |       1.0000 |       1.0000 |xxxxxxxxxxxxx |xxxxxxxxxxxxx |xxxxxxxxxxxxx |       1.0000 |       1.0000 |       1.0000 |       1.0000 |xxxxxxxxxxxxx |xxxxxxxxxxxxx |xxxxxxxxxxxxx |       1.0000 |       1.0000 |       1.0000 |       1.0000 |

Command list: 
	sslittle-na-sstrix-gcc -Wall -O3 -funroll-loops -finline-functions  -DRANDOM_SIZE=4096 -DOFFSET=1 -DSORT=base_quicksort1 sorts/base_quicksort1997375740.c simpleMain.c -o base_quicksort11837703990
	sim-cache -cache:dl1 dl1:256:32:1:l -cache:dl2 dl2:131072:32:1:l -cache:il1 il1:256:32:1:l -cache:il2 dl2 base_quicksort11837703990
	sim-cache -cache:dl1 dl1:256:32:1:l -cache:dl2 dl2:65536:32:1:l -cache:il1 il1:256:32:1:l -cache:il2 dl2 base_quicksort11837703990
	sim-cache -cache:dl1 dl1:1:32:256:l -cache:dl2 dl2:1:32:131072:l -cache:il1 il1:1:32:256:l -cache:il2 dl2 base_quicksort11837703990
	sim-cache -cache:dl1 dl1:1:32:256:l -cache:dl2 dl2:1:32:65536:l -cache:il1 il1:1:32:256:l -cache:il2 dl2 base_quicksort11837703990
	sim-bpred -bpred bimod -bpred:bimod 512 base_quicksort11837703990
	sim-bpred -bpred bimod -bpred:bimod 1024 base_quicksort11837703990
	sim-bpred -bpred bimod -bpred:bimod 2048 base_quicksort11837703990
	sim-bpred -bpred 2lev -bpred:2lev 1 512 10 1 base_quicksort11837703990
	sim-bpred -bpred 2lev -bpred:2lev 1 1024 10 1 base_quicksort11837703990
	sim-bpred -bpred 2lev -bpred:2lev 1 2048 10 1 base_quicksort11837703990
	sim-bpred -bpred 2lev -bpred:2lev 1 4096 10 1 base_quicksort11837703990
	sslittle-na-sstrix-gcc -Wall -O3 -funroll-loops -finline-functions  -DRANDOM_SIZE=8192 -DOFFSET=1 -DSORT=base_quicksort1 sorts/base_quicksort1997375740.c simpleMain.c -o base_quicksort11837703990
	sim-cache -cache:dl1 dl1:256:32:1:l -cache:dl2 dl2:131072:32:1:l -cache:il1 il1:256:32:1:l -cache:il2 dl2 base_quicksort11837703990
	sim-cache -cache:dl1 dl1:256:32:1:l -cache:dl2 dl2:65536:32:1:l -cache:il1 il1:256:32:1:l -cache:il2 dl2 base_quicksort11837703990
	sim-cache -cache:dl1 dl1:1:32:256:l -cache:dl2 dl2:1:32:131072:l -cache:il1 il1:1:32:256:l -cache:il2 dl2 base_quicksort11837703990
	sim-cache -cache:dl1 dl1:1:32:256:l -cache:dl2 dl2:1:32:65536:l -cache:il1 il1:1:32:256:l -cache:il2 dl2 base_quicksort11837703990
	sim-bpred -bpred bimod -bpred:bimod 512 base_quicksort11837703990
	sim-bpred -bpred bimod -bpred:bimod 1024 base_quicksort11837703990
	sim-bpred -bpred bimod -bpred:bimod 2048 base_quicksort11837703990
	sim-bpred -bpred 2lev -bpred:2lev 1 512 10 1 base_quicksort11837703990
	sim-bpred -bpred 2lev -bpred:2lev 1 1024 10 1 base_quicksort11837703990
	sim-bpred -bpred 2lev -bpred:2lev 1 2048 10 1 base_quicksort11837703990
	sim-bpred -bpred 2lev -bpred:2lev 1 4096 10 1 base_quicksort11837703990
	sslittle-na-sstrix-gcc -Wall -O3 -funroll-loops -finline-functions  -DRANDOM_SIZE=16384 -DOFFSET=1 -DSORT=base_quicksort1 sorts/base_quicksort1997375740.c simpleMain.c -o base_quicksort11837703990
	sim-cache -cache:dl1 dl1:256:32:1:l -cache:dl2 dl2:131072:32:1:l -cache:il1 il1:256:32:1:l -cache:il2 dl2 base_quicksort11837703990
	sim-cache -cache:dl1 dl1:256:32:1:l -cache:dl2 dl2:65536:32:1:l -cache:il1 il1:256:32:1:l -cache:il2 dl2 base_quicksort11837703990
	sim-cache -cache:dl1 dl1:1:32:256:l -cache:dl2 dl2:1:32:131072:l -cache:il1 il1:1:32:256:l -cache:il2 dl2 base_quicksort11837703990
	sim-cache -cache:dl1 dl1:1:32:256:l -cache:dl2 dl2:1:32:65536:l -cache:il1 il1:1:32:256:l -cache:il2 dl2 base_quicksort11837703990
	sim-bpred -bpred bimod -bpred:bimod 512 base_quicksort11837703990
	sim-bpred -bpred bimod -bpred:bimod 1024 base_quicksort11837703990
	sim-bpred -bpred bimod -bpred:bimod 2048 base_quicksort11837703990
	sim-bpred -bpred 2lev -bpred:2lev 1 512 10 1 base_quicksort11837703990
	sim-bpred -bpred 2lev -bpred:2lev 1 1024 10 1 base_quicksort11837703990
	sim-bpred -bpred 2lev -bpred:2lev 1 2048 10 1 base_quicksort11837703990
	sim-bpred -bpred 2lev -bpred:2lev 1 4096 10 1 base_quicksort11837703990
	sslittle-na-sstrix-gcc -Wall -O3 -funroll-loops -finline-functions  -DRANDOM_SIZE=32768 -DOFFSET=1 -DSORT=base_quicksort1 sorts/base_quicksort1997375740.c simpleMain.c -o base_quicksort11837703990
	sim-cache -cache:dl1 dl1:256:32:1:l -cache:dl2 dl2:131072:32:1:l -cache:il1 il1:256:32:1:l -cache:il2 dl2 base_quicksort11837703990
	sim-cache -cache:dl1 dl1:256:32:1:l -cache:dl2 dl2:65536:32:1:l -cache:il1 il1:256:32:1:l -cache:il2 dl2 base_quicksort11837703990
	sim-cache -cache:dl1 dl1:1:32:256:l -cache:dl2 dl2:1:32:131072:l -cache:il1 il1:1:32:256:l -cache:il2 dl2 base_quicksort11837703990
	sim-cache -cache:dl1 dl1:1:32:256:l -cache:dl2 dl2:1:32:65536:l -cache:il1 il1:1:32:256:l -cache:il2 dl2 base_quicksort11837703990
	sim-bpred -bpred bimod -bpred:bimod 512 base_quicksort11837703990
	sim-bpred -bpred bimod -bpred:bimod 1024 base_quicksort11837703990
	sim-bpred -bpred bimod -bpred:bimod 2048 base_quicksort11837703990
	sim-bpred -bpred 2lev -bpred:2lev 1 512 10 1 base_quicksort11837703990
	sim-bpred -bpred 2lev -bpred:2lev 1 1024 10 1 base_quicksort11837703990
	sim-bpred -bpred 2lev -bpred:2lev 1 2048 10 1 base_quicksort11837703990
	sim-bpred -bpred 2lev -bpred:2lev 1 4096 10 1 base_quicksort11837703990
	sslittle-na-sstrix-gcc -Wall -O3 -funroll-loops -finline-functions  -DRANDOM_SIZE=65536 -DOFFSET=1 -DSORT=base_quicksort1 sorts/base_quicksort1997375740.c simpleMain.c -o base_quicksort11837703990
	sim-cache -cache:dl1 dl1:256:32:1:l -cache:dl2 dl2:131072:32:1:l -cache:il1 il1:256:32:1:l -cache:il2 dl2 base_quicksort11837703990
	sim-cache -cache:dl1 dl1:256:32:1:l -cache:dl2 dl2:65536:32:1:l -cache:il1 il1:256:32:1:l -cache:il2 dl2 base_quicksort11837703990
	sim-cache -cache:dl1 dl1:1:32:256:l -cache:dl2 dl2:1:32:131072:l -cache:il1 il1:1:32:256:l -cache:il2 dl2 base_quicksort11837703990
	sim-cache -cache:dl1 dl1:1:32:256:l -cache:dl2 dl2:1:32:65536:l -cache:il1 il1:1:32:256:l -cache:il2 dl2 base_quicksort11837703990
	sim-bpred -bpred bimod -bpred:bimod 512 base_quicksort11837703990
	sim-bpred -bpred bimod -bpred:bimod 1024 base_quicksort11837703990
	sim-bpred -bpred bimod -bpred:bimod 2048 base_quicksort11837703990
	sim-bpred -bpred 2lev -bpred:2lev 1 512 10 1 base_quicksort11837703990
	sim-bpred -bpred 2lev -bpred:2lev 1 1024 10 1 base_quicksort11837703990
	sim-bpred -bpred 2lev -bpred:2lev 1 2048 10 1 base_quicksort11837703990
	sim-bpred -bpred 2lev -bpred:2lev 1 4096 10 1 base_quicksort11837703990
	sslittle-na-sstrix-gcc -Wall -O3 -funroll-loops -finline-functions  -DRANDOM_SIZE=131072 -DOFFSET=1 -DSORT=base_quicksort1 sorts/base_quicksort1997375740.c simpleMain.c -o base_quicksort11837703990
	sim-cache -cache:dl1 dl1:256:32:1:l -cache:dl2 dl2:131072:32:1:l -cache:il1 il1:256:32:1:l -cache:il2 dl2 base_quicksort11837703990
	sim-cache -cache:dl1 dl1:256:32:1:l -cache:dl2 dl2:65536:32:1:l -cache:il1 il1:256:32:1:l -cache:il2 dl2 base_quicksort11837703990
	sim-cache -cache:dl1 dl1:1:32:256:l -cache:dl2 dl2:1:32:131072:l -cache:il1 il1:1:32:256:l -cache:il2 dl2 base_quicksort11837703990
	sim-cache -cache:dl1 dl1:1:32:256:l -cache:dl2 dl2:1:32:65536:l -cache:il1 il1:1:32:256:l -cache:il2 dl2 base_quicksort11837703990
	sim-bpred -bpred bimod -bpred:bimod 512 base_quicksort11837703990
	sim-bpred -bpred bimod -bpred:bimod 1024 base_quicksort11837703990
	sim-bpred -bpred bimod -bpred:bimod 2048 base_quicksort11837703990
	sim-bpred -bpred 2lev -bpred:2lev 1 512 10 1 base_quicksort11837703990
	sim-bpred -bpred 2lev -bpred:2lev 1 1024 10 1 base_quicksort11837703990
	sim-bpred -bpred 2lev -bpred:2lev 1 2048 10 1 base_quicksort11837703990
	sim-bpred -bpred 2lev -bpred:2lev 1 4096 10 1 base_quicksort11837703990
	sslittle-na-sstrix-gcc -Wall -O3 -funroll-loops -finline-functions  -DRANDOM_SIZE=262144 -DOFFSET=1 -DSORT=base_quicksort1 sorts/base_quicksort1997375740.c simpleMain.c -o base_quicksort11837703990
	sim-cache -cache:dl1 dl1:256:32:1:l -cache:dl2 dl2:131072:32:1:l -cache:il1 il1:256:32:1:l -cache:il2 dl2 base_quicksort11837703990
	sim-cache -cache:dl1 dl1:256:32:1:l -cache:dl2 dl2:65536:32:1:l -cache:il1 il1:256:32:1:l -cache:il2 dl2 base_quicksort11837703990
	sim-cache -cache:dl1 dl1:1:32:256:l -cache:dl2 dl2:1:32:131072:l -cache:il1 il1:1:32:256:l -cache:il2 dl2 base_quicksort11837703990
	sim-cache -cache:dl1 dl1:1:32:256:l -cache:dl2 dl2:1:32:65536:l -cache:il1 il1:1:32:256:l -cache:il2 dl2 base_quicksort11837703990
	sim-bpred -bpred bimod -bpred:bimod 512 base_quicksort11837703990
	sim-bpred -bpred bimod -bpred:bimod 1024 base_quicksort11837703990
	sim-bpred -bpred bimod -bpred:bimod 2048 base_quicksort11837703990
	sim-bpred -bpred 2lev -bpred:2lev 1 512 10 1 base_quicksort11837703990
	sim-bpred -bpred 2lev -bpred:2lev 1 1024 10 1 base_quicksort11837703990
	sim-bpred -bpred 2lev -bpred:2lev 1 2048 10 1 base_quicksort11837703990
	sim-bpred -bpred 2lev -bpred:2lev 1 4096 10 1 base_quicksort11837703990
	sslittle-na-sstrix-gcc -Wall -O3 -funroll-loops -finline-functions  -DRANDOM_SIZE=524288 -DOFFSET=1 -DSORT=base_quicksort1 sorts/base_quicksort1997375740.c simpleMain.c -o base_quicksort11837703990
	sim-cache -cache:dl1 dl1:256:32:1:l -cache:dl2 dl2:131072:32:1:l -cache:il1 il1:256:32:1:l -cache:il2 dl2 base_quicksort11837703990
	sim-cache -cache:dl1 dl1:256:32:1:l -cache:dl2 dl2:65536:32:1:l -cache:il1 il1:256:32:1:l -cache:il2 dl2 base_quicksort11837703990
	sim-cache -cache:dl1 dl1:1:32:256:l -cache:dl2 dl2:1:32:131072:l -cache:il1 il1:1:32:256:l -cache:il2 dl2 base_quicksort11837703990
	sim-cache -cache:dl1 dl1:1:32:256:l -cache:dl2 dl2:1:32:65536:l -cache:il1 il1:1:32:256:l -cache:il2 dl2 base_quicksort11837703990
	sim-bpred -bpred bimod -bpred:bimod 512 base_quicksort11837703990
	sim-bpred -bpred bimod -bpred:bimod 1024 base_quicksort11837703990
	sim-bpred -bpred bimod -bpred:bimod 2048 base_quicksort11837703990
	sim-bpred -bpred 2lev -bpred:2lev 1 512 10 1 base_quicksort11837703990
	sim-bpred -bpred 2lev -bpred:2lev 1 1024 10 1 base_quicksort11837703990
	sim-bpred -bpred 2lev -bpred:2lev 1 2048 10 1 base_quicksort11837703990
	sim-bpred -bpred 2lev -bpred:2lev 1 4096 10 1 base_quicksort11837703990
	sslittle-na-sstrix-gcc -Wall -O3 -funroll-loops -finline-functions  -DRANDOM_SIZE=1048576 -DOFFSET=1 -DSORT=base_quicksort1 sorts/base_quicksort1997375740.c simpleMain.c -o base_quicksort11837703990
	sim-cache -cache:dl1 dl1:256:32:1:l -cache:dl2 dl2:131072:32:1:l -cache:il1 il1:256:32:1:l -cache:il2 dl2 base_quicksort11837703990
	sim-cache -cache:dl1 dl1:256:32:1:l -cache:dl2 dl2:65536:32:1:l -cache:il1 il1:256:32:1:l -cache:il2 dl2 base_quicksort11837703990
	sim-cache -cache:dl1 dl1:1:32:256:l -cache:dl2 dl2:1:32:131072:l -cache:il1 il1:1:32:256:l -cache:il2 dl2 base_quicksort11837703990
	sim-cache -cache:dl1 dl1:1:32:256:l -cache:dl2 dl2:1:32:65536:l -cache:il1 il1:1:32:256:l -cache:il2 dl2 base_quicksort11837703990
	sim-bpred -bpred bimod -bpred:bimod 512 base_quicksort11837703990
	sim-bpred -bpred bimod -bpred:bimod 1024 base_quicksort11837703990
	sim-bpred -bpred bimod -bpred:bimod 2048 base_quicksort11837703990
	sim-bpred -bpred 2lev -bpred:2lev 1 512 10 1 base_quicksort11837703990
	sim-bpred -bpred 2lev -bpred:2lev 1 1024 10 1 base_quicksort11837703990
	sim-bpred -bpred 2lev -bpred:2lev 1 2048 10 1 base_quicksort11837703990
	sim-bpred -bpred 2lev -bpred:2lev 1 4096 10 1 base_quicksort11837703990
	sslittle-na-sstrix-gcc -Wall -O3 -funroll-loops -finline-functions  -DRANDOM_SIZE=2097152 -DOFFSET=1 -DSORT=base_quicksort1 sorts/base_quicksort1997375740.c simpleMain.c -o base_quicksort11837703990
	sim-cache -cache:dl1 dl1:256:32:1:l -cache:dl2 dl2:131072:32:1:l -cache:il1 il1:256:32:1:l -cache:il2 dl2 base_quicksort11837703990
	sim-cache -cache:dl1 dl1:256:32:1:l -cache:dl2 dl2:65536:32:1:l -cache:il1 il1:256:32:1:l -cache:il2 dl2 base_quicksort11837703990
	sim-cache -cache:dl1 dl1:1:32:256:l -cache:dl2 dl2:1:32:131072:l -cache:il1 il1:1:32:256:l -cache:il2 dl2 base_quicksort11837703990
	sim-cache -cache:dl1 dl1:1:32:256:l -cache:dl2 dl2:1:32:65536:l -cache:il1 il1:1:32:256:l -cache:il2 dl2 base_quicksort11837703990
	sim-bpred -bpred bimod -bpred:bimod 512 base_quicksort11837703990
	sim-bpred -bpred bimod -bpred:bimod 1024 base_quicksort11837703990
	sim-bpred -bpred bimod -bpred:bimod 2048 base_quicksort11837703990
	sim-bpred -bpred 2lev -bpred:2lev 1 512 10 1 base_quicksort11837703990
	sim-bpred -bpred 2lev -bpred:2lev 1 1024 10 1 base_quicksort11837703990
	sim-bpred -bpred 2lev -bpred:2lev 1 2048 10 1 base_quicksort11837703990
	sim-bpred -bpred 2lev -bpred:2lev 1 4096 10 1 base_quicksort11837703990
	sslittle-na-sstrix-gcc -Wall -O3 -funroll-loops -finline-functions  -DRANDOM_SIZE=4194304 -DOFFSET=1 -DSORT=base_quicksort1 sorts/base_quicksort1997375740.c simpleMain.c -o base_quicksort11837703990
	sim-cache -cache:dl1 dl1:256:32:1:l -cache:dl2 dl2:131072:32:1:l -cache:il1 il1:256:32:1:l -cache:il2 dl2 base_quicksort11837703990
	sim-cache -cache:dl1 dl1:256:32:1:l -cache:dl2 dl2:65536:32:1:l -cache:il1 il1:256:32:1:l -cache:il2 dl2 base_quicksort11837703990
	sim-cache -cache:dl1 dl1:1:32:256:l -cache:dl2 dl2:1:32:131072:l -cache:il1 il1:1:32:256:l -cache:il2 dl2 base_quicksort11837703990
	sim-cache -cache:dl1 dl1:1:32:256:l -cache:dl2 dl2:1:32:65536:l -cache:il1 il1:1:32:256:l -cache:il2 dl2 base_quicksort11837703990
	sim-bpred -bpred bimod -bpred:bimod 512 base_quicksort11837703990
	sim-bpred -bpred bimod -bpred:bimod 1024 base_quicksort11837703990
	sim-bpred -bpred bimod -bpred:bimod 2048 base_quicksort11837703990
	sim-bpred -bpred 2lev -bpred:2lev 1 512 10 1 base_quicksort11837703990
	sim-bpred -bpred 2lev -bpred:2lev 1 1024 10 1 base_quicksort11837703990
	sim-bpred -bpred 2lev -bpred:2lev 1 2048 10 1 base_quicksort11837703990
	sim-bpred -bpred 2lev -bpred:2lev 1 4096 10 1 base_quicksort11837703990
