Sun Aug  7 01:13:05 2005
Run as: "./do_simple -c random.org9 -o 9 -M 65536 on2_bubblesort"
-------------------------------------------------------------------------------------------------
sim-cache                                     4096 |         4096 |         4096 |         4096 |         8192 |         8192 |         8192 |         8192 |        16384 |        16384 |        16384 |        16384 |        32768 |        32768 |        32768 |        32768 |        65536 |        65536 |        65536 |        65536 |
-cache:dl1 dl1:256:32:1:l -cache:dl2 dl2:131072:32:1:l -cache:il1 il1:256:32:1:l -cache:il2 dl2
-cache:dl1 dl1:256:32:1:l -cache:dl2 dl2:65536:32:1:l -cache:il1 il1:256:32:1:l -cache:il2 dl2
-cache:dl1 dl1:1:32:256:l -cache:dl2 dl2:1:32:131072:l -cache:il1 il1:1:32:256:l -cache:il2 dl2
-cache:dl1 dl1:1:32:256:l -cache:dl2 dl2:1:32:65536:l -cache:il1 il1:1:32:256:l -cache:il2 dl2
-------------------------------------------------------------------------------------------------
sim_num_insn                              71432187 |     71432187 |     71432187 |     71432187 |    285404036 |    285404036 |    285404036 |    285404036 |   1139586446 |   1139586446 |   1139586446 |   1139586446 |   4557756209 |   4557756209 |   4557756209 |   4557756209 |  18227444227 |  18227444227 |  18227444227 |  18227444227 |
sim_num_refs                              25227047 |     25227047 |     25227047 |     25227047 |    100745741 |    100745741 |    100745741 |    100745741 |    401720317 |    401720317 |    401720317 |    401720317 |   1606665505 |   1606665505 |   1606665505 |   1606665505 |   6424676941 |   6424676941 |   6424676941 |   6424676941 |
sim_elapsed_time                                20 |           20 |           27 |           23 |           81 |           81 |           90 |           84 |          325 |          325 |          336 |          328 |         1295 |         1293 |         1310 |         1290 |         5160 |         5162 |         5185 |         5140 |
sim_inst_rate                         3571609.3500 | 3571609.3500 | 2645636.5556 | 3105747.2609 | 3523506.6173 | 3523506.6173 | 3171155.9556 | 3397667.0952 | 3506419.8338 | 3506419.8338 | 3391626.3274 | 3474348.9207 | 3519502.8641 | 3524946.7974 | 3479203.2130 | 3533144.3481 | 3532450.4316 | 3531081.7952 | 3515418.3659 | 3546195.3749 |
il1.accesses                              71432187 |     71432187 |     71432187 |     71432187 |    285404036 |    285404036 |    285404036 |    285404036 |   1139586446 |   1139586446 |   1139586446 |   1139586446 |   4557756209 |   4557756209 |   4557756209 |   4557756209 |  18227444227 |  18227444227 |  18227444227 |  18227444227 |
il1.hits                                  71431820 |     71431820 |     71431879 |     71431879 |    285403667 |    285403667 |    285403726 |    285403726 |   1139586086 |   1139586086 |   1139586142 |   1139586142 |   4557755839 |   4557755839 |   4557755898 |   4557755898 |  18227443857 |  18227443857 |  18227443916 |  18227443916 |
il1.misses                                     367 |          367 |          308 |          308 |          369 |          369 |          310 |          310 |          360 |          360 |          304 |          304 |          370 |          370 |          311 |          311 |          370 |          370 |          311 |          311 |
il1.replacements                               179 |          179 |           52 |           52 |          180 |          180 |           54 |           54 |          175 |          175 |           48 |           48 |          181 |          181 |           55 |           55 |          181 |          181 |           55 |           55 |
il1.writebacks                                   0 |            0 |            0 |            0 |            0 |            0 |            0 |            0 |            0 |            0 |            0 |            0 |            0 |            0 |            0 |            0 |            0 |            0 |            0 |            0 |
il1.invalidations                                0 |            0 |            0 |            0 |            0 |            0 |            0 |            0 |            0 |            0 |            0 |            0 |            0 |            0 |            0 |            0 |            0 |            0 |            0 |            0 |
il1.miss_rate                               0.0000 |       0.0000 |       0.0000 |       0.0000 |       0.0000 |       0.0000 |       0.0000 |       0.0000 |       0.0000 |       0.0000 |       0.0000 |       0.0000 |       0.0000 |       0.0000 |       0.0000 |       0.0000 |       0.0000 |       0.0000 |       0.0000 |       0.0000 |
il1.repl_rate                               0.0000 |       0.0000 |       0.0000 |       0.0000 |       0.0000 |       0.0000 |       0.0000 |       0.0000 |       0.0000 |       0.0000 |       0.0000 |       0.0000 |       0.0000 |       0.0000 |       0.0000 |       0.0000 |       0.0000 |       0.0000 |       0.0000 |       0.0000 |
il1.wb_rate                                 0.0000 |       0.0000 |       0.0000 |       0.0000 |       0.0000 |       0.0000 |       0.0000 |       0.0000 |       0.0000 |       0.0000 |       0.0000 |       0.0000 |       0.0000 |       0.0000 |       0.0000 |       0.0000 |       0.0000 |       0.0000 |       0.0000 |       0.0000 |
il1.inv_rate                                0.0000 |       0.0000 |       0.0000 |       0.0000 |       0.0000 |       0.0000 |       0.0000 |       0.0000 |       0.0000 |       0.0000 |       0.0000 |       0.0000 |       0.0000 |       0.0000 |       0.0000 |       0.0000 |       0.0000 |       0.0000 |       0.0000 |       0.0000 |
dl1.accesses                              25243513 |     25243513 |     25243513 |     25243513 |    100778591 |    100778591 |    100778591 |    100778591 |    401785935 |    401785935 |    401785935 |    401785935 |   1606796659 |   1606796659 |   1606796659 |   1606796659 |   6424939167 |   6424939167 |   6424939167 |   6424939167 |
dl1.hits                                  24715199 |     24715199 |     24454079 |     24454079 |     97100965 |     97100965 |     96839845 |     96839845 |    385518229 |    385518229 |    385257109 |    385257109 |   1540182969 |   1540182969 |   1539921849 |   1539921849 |   6156970213 |   6156970213 |   6156709093 |   6156709093 |
dl1.misses                                  528314 |       528314 |       789434 |       789434 |      3677626 |      3677626 |      3938746 |      3938746 |     16267706 |     16267706 |     16528826 |     16528826 |     66613690 |     66613690 |     66874810 |     66874810 |    267968954 |    267968954 |    268230074 |    268230074 |
dl1.replacements                            528058 |       528058 |       789178 |       789178 |      3677370 |      3677370 |      3938490 |      3938490 |     16267450 |     16267450 |     16528570 |     16528570 |     66613434 |     66613434 |     66874554 |     66874554 |    267968698 |    267968698 |    268229818 |    268229818 |
dl1.writebacks                              500169 |       500169 |       755077 |       755077 |      3418165 |      3418165 |      3631909 |      3631909 |     14787307 |     14787307 |     14923565 |     14923565 |     60091197 |     60091197 |     60171827 |     60171827 |    240874714 |    240874714 |    240914166 |    240914166 |
dl1.invalidations                                0 |            0 |            0 |            0 |            0 |            0 |            0 |            0 |            0 |            0 |            0 |            0 |            0 |            0 |            0 |            0 |            0 |            0 |            0 |            0 |
dl1.miss_rate                               0.0209 |       0.0209 |       0.0313 |       0.0313 |       0.0365 |       0.0365 |       0.0391 |       0.0391 |       0.0405 |       0.0405 |       0.0411 |       0.0411 |       0.0415 |       0.0415 |       0.0416 |       0.0416 |       0.0417 |       0.0417 |       0.0417 |       0.0417 |
dl1.repl_rate                               0.0209 |       0.0209 |       0.0313 |       0.0313 |       0.0365 |       0.0365 |       0.0391 |       0.0391 |       0.0405 |       0.0405 |       0.0411 |       0.0411 |       0.0415 |       0.0415 |       0.0416 |       0.0416 |       0.0417 |       0.0417 |       0.0417 |       0.0417 |
dl1.wb_rate                                 0.0198 |       0.0198 |       0.0299 |       0.0299 |       0.0339 |       0.0339 |       0.0360 |       0.0360 |       0.0368 |       0.0368 |       0.0371 |       0.0371 |       0.0374 |       0.0374 |       0.0374 |       0.0374 |       0.0375 |       0.0375 |       0.0375 |       0.0375 |
dl1.inv_rate                                0.0000 |       0.0000 |       0.0000 |       0.0000 |       0.0000 |       0.0000 |       0.0000 |       0.0000 |       0.0000 |       0.0000 |       0.0000 |       0.0000 |       0.0000 |       0.0000 |       0.0000 |       0.0000 |       0.0000 |       0.0000 |       0.0000 |       0.0000 |
dl2.accesses                               1028850 |      1028850 |      1544819 |      1544819 |      7096160 |      7096160 |      7570965 |      7570965 |     31055373 |     31055373 |     31452695 |     31452695 |    126705257 |    126705257 |    127046948 |    127046948 |    508844038 |    508844038 |    509144551 |    509144551 |
dl2.hits                                   1027610 |      1027610 |      1543587 |      1543587 |      7094405 |      7094405 |      7569219 |      7569219 |     31052599 |     31052599 |     31449931 |     31449931 |    126700430 |    126700430 |    127042129 |    127042129 |    508835115 |    508835115 |    509135636 |    509135636 |
dl2.misses                                    1240 |         1240 |         1232 |         1232 |         1755 |         1755 |         1746 |         1746 |         2774 |         2774 |         2764 |         2764 |         4827 |         4827 |         4819 |         4819 |         8923 |         8923 |         8915 |         8915 |
dl2.replacements                                67 |           67 |            0 |            0 |           68 |           68 |            0 |            0 |           69 |           69 |            0 |            0 |           67 |           67 |            0 |            0 |           67 |           67 |            0 |            0 |
dl2.writebacks                                   1 |            1 |            0 |            0 |            1 |            1 |            0 |            0 |            1 |            1 |            0 |            0 |            1 |            1 |            0 |            0 |            1 |            1 |            0 |            0 |
dl2.invalidations                                0 |            0 |            0 |            0 |            0 |            0 |            0 |            0 |            0 |            0 |            0 |            0 |            0 |            0 |            0 |            0 |            0 |            0 |            0 |            0 |
dl2.miss_rate                               0.0012 |       0.0012 |       0.0008 |       0.0008 |       0.0002 |       0.0002 |       0.0002 |       0.0002 |       0.0001 |       0.0001 |       0.0001 |       0.0001 |       0.0000 |       0.0000 |       0.0000 |       0.0000 |       0.0000 |       0.0000 |       0.0000 |       0.0000 |
dl2.repl_rate                               0.0001 |       0.0001 |       0.0000 |       0.0000 |       0.0000 |       0.0000 |       0.0000 |       0.0000 |       0.0000 |       0.0000 |       0.0000 |       0.0000 |       0.0000 |       0.0000 |       0.0000 |       0.0000 |       0.0000 |       0.0000 |       0.0000 |       0.0000 |
dl2.wb_rate                                 0.0000 |       0.0000 |       0.0000 |       0.0000 |       0.0000 |       0.0000 |       0.0000 |       0.0000 |       0.0000 |       0.0000 |       0.0000 |       0.0000 |       0.0000 |       0.0000 |       0.0000 |       0.0000 |       0.0000 |       0.0000 |       0.0000 |       0.0000 |
dl2.inv_rate                                0.0000 |       0.0000 |       0.0000 |       0.0000 |       0.0000 |       0.0000 |       0.0000 |       0.0000 |       0.0000 |       0.0000 |       0.0000 |       0.0000 |       0.0000 |       0.0000 |       0.0000 |       0.0000 |       0.0000 |       0.0000 |       0.0000 |       0.0000 |
itlb.accesses                             71432187 |     71432187 |     71432187 |     71432187 |    285404036 |    285404036 |    285404036 |    285404036 |   1139586446 |   1139586446 |   1139586446 |   1139586446 |   4557756209 |   4557756209 |   4557756209 |   4557756209 |  18227444227 |  18227444227 |  18227444227 |  18227444227 |
itlb.hits                                 71432178 |     71432178 |     71432178 |     71432178 |    285404027 |    285404027 |    285404027 |    285404027 |   1139586437 |   1139586437 |   1139586437 |   1139586437 |   4557756200 |   4557756200 |   4557756200 |   4557756200 |  18227444218 |  18227444218 |  18227444218 |  18227444218 |
itlb.misses                                      9 |            9 |            9 |            9 |            9 |            9 |            9 |            9 |            9 |            9 |            9 |            9 |            9 |            9 |            9 |            9 |            9 |            9 |            9 |            9 |
itlb.replacements                                0 |            0 |            0 |            0 |            0 |            0 |            0 |            0 |            0 |            0 |            0 |            0 |            0 |            0 |            0 |            0 |            0 |            0 |            0 |            0 |
itlb.writebacks                                  0 |            0 |            0 |            0 |            0 |            0 |            0 |            0 |            0 |            0 |            0 |            0 |            0 |            0 |            0 |            0 |            0 |            0 |            0 |            0 |
itlb.invalidations                               0 |            0 |            0 |            0 |            0 |            0 |            0 |            0 |            0 |            0 |            0 |            0 |            0 |            0 |            0 |            0 |            0 |            0 |            0 |            0 |
itlb.miss_rate                              0.0000 |       0.0000 |       0.0000 |       0.0000 |       0.0000 |       0.0000 |       0.0000 |       0.0000 |       0.0000 |       0.0000 |       0.0000 |       0.0000 |       0.0000 |       0.0000 |       0.0000 |       0.0000 |       0.0000 |       0.0000 |       0.0000 |       0.0000 |
itlb.repl_rate                              0.0000 |       0.0000 |       0.0000 |       0.0000 |       0.0000 |       0.0000 |       0.0000 |       0.0000 |       0.0000 |       0.0000 |       0.0000 |       0.0000 |       0.0000 |       0.0000 |       0.0000 |       0.0000 |       0.0000 |       0.0000 |       0.0000 |       0.0000 |
itlb.wb_rate                                0.0000 |       0.0000 |       0.0000 |       0.0000 |       0.0000 |       0.0000 |       0.0000 |       0.0000 |       0.0000 |       0.0000 |       0.0000 |       0.0000 |       0.0000 |       0.0000 |       0.0000 |       0.0000 |       0.0000 |       0.0000 |       0.0000 |       0.0000 |
itlb.inv_rate                               0.0000 |       0.0000 |       0.0000 |       0.0000 |       0.0000 |       0.0000 |       0.0000 |       0.0000 |       0.0000 |       0.0000 |       0.0000 |       0.0000 |       0.0000 |       0.0000 |       0.0000 |       0.0000 |       0.0000 |       0.0000 |       0.0000 |       0.0000 |
dtlb.accesses                             25243513 |     25243513 |     25243513 |     25243513 |    100778591 |    100778591 |    100778591 |    100778591 |    401785935 |    401785935 |    401785935 |    401785935 |   1606796659 |   1606796659 |   1606796659 |   1606796659 |   6424939167 |   6424939167 |   6424939167 |   6424939167 |
dtlb.hits                                 25243502 |     25243502 |     25243502 |     25243502 |    100778576 |    100778576 |    100778576 |    100778576 |    401785912 |    401785912 |    401785912 |    401785912 |   1606796620 |   1606796620 |   1606796620 |   1606796620 |   6424939096 |   6424939096 |   6424939096 |   6424939096 |
dtlb.misses                                     11 |           11 |           11 |           11 |           15 |           15 |           15 |           15 |           23 |           23 |           23 |           23 |           39 |           39 |           39 |           39 |           71 |           71 |           71 |           71 |
dtlb.replacements                                0 |            0 |            0 |            0 |            0 |            0 |            0 |            0 |            0 |            0 |            0 |            0 |            0 |            0 |            0 |            0 |            0 |            0 |            0 |            0 |
dtlb.writebacks                                  0 |            0 |            0 |            0 |            0 |            0 |            0 |            0 |            0 |            0 |            0 |            0 |            0 |            0 |            0 |            0 |            0 |            0 |            0 |            0 |
dtlb.invalidations                               0 |            0 |            0 |            0 |            0 |            0 |            0 |            0 |            0 |            0 |            0 |            0 |            0 |            0 |            0 |            0 |            0 |            0 |            0 |            0 |
dtlb.miss_rate                              0.0000 |       0.0000 |       0.0000 |       0.0000 |       0.0000 |       0.0000 |       0.0000 |       0.0000 |       0.0000 |       0.0000 |       0.0000 |       0.0000 |       0.0000 |       0.0000 |       0.0000 |       0.0000 |       0.0000 |       0.0000 |       0.0000 |       0.0000 |
dtlb.repl_rate                              0.0000 |       0.0000 |       0.0000 |       0.0000 |       0.0000 |       0.0000 |       0.0000 |       0.0000 |       0.0000 |       0.0000 |       0.0000 |       0.0000 |       0.0000 |       0.0000 |       0.0000 |       0.0000 |       0.0000 |       0.0000 |       0.0000 |       0.0000 |
dtlb.wb_rate                                0.0000 |       0.0000 |       0.0000 |       0.0000 |       0.0000 |       0.0000 |       0.0000 |       0.0000 |       0.0000 |       0.0000 |       0.0000 |       0.0000 |       0.0000 |       0.0000 |       0.0000 |       0.0000 |       0.0000 |       0.0000 |       0.0000 |       0.0000 |
dtlb.inv_rate                               0.0000 |       0.0000 |       0.0000 |       0.0000 |       0.0000 |       0.0000 |       0.0000 |       0.0000 |       0.0000 |       0.0000 |       0.0000 |       0.0000 |       0.0000 |       0.0000 |       0.0000 |       0.0000 |       0.0000 |       0.0000 |       0.0000 |       0.0000 |
ld_text_base                            0x00400000 |   0x00400000 |   0x00400000 |   0x00400000 |   0x00400000 |   0x00400000 |   0x00400000 |   0x00400000 |   0x00400000 |   0x00400000 |   0x00400000 |   0x00400000 |   0x00400000 |   0x00400000 |   0x00400000 |   0x00400000 |   0x00400000 |   0x00400000 |   0x00400000 |   0x00400000 |
ld_text_size                                 70896 |        70896 |        70896 |        70896 |        70928 |        70928 |        70928 |        70928 |        70944 |        70944 |        70944 |        70944 |        70960 |        70960 |        70960 |        70960 |        70960 |        70960 |        70960 |        70960 |
ld_data_base                            0x10000000 |   0x10000000 |   0x10000000 |   0x10000000 |   0x10000000 |   0x10000000 |   0x10000000 |   0x10000000 |   0x10000000 |   0x10000000 |   0x10000000 |   0x10000000 |   0x10000000 |   0x10000000 |   0x10000000 |   0x10000000 |   0x10000000 |   0x10000000 |   0x10000000 |   0x10000000 |
ld_data_size                                  8192 |         8192 |         8192 |         8192 |         8192 |         8192 |         8192 |         8192 |         8192 |         8192 |         8192 |         8192 |         8192 |         8192 |         8192 |         8192 |         8192 |         8192 |         8192 |         8192 |
ld_stack_base                           0x7fffc000 |   0x7fffc000 |   0x7fffc000 |   0x7fffc000 |   0x7fffc000 |   0x7fffc000 |   0x7fffc000 |   0x7fffc000 |   0x7fffc000 |   0x7fffc000 |   0x7fffc000 |   0x7fffc000 |   0x7fffc000 |   0x7fffc000 |   0x7fffc000 |   0x7fffc000 |   0x7fffc000 |   0x7fffc000 |   0x7fffc000 |   0x7fffc000 |
ld_stack_size                                16384 |        16384 |        16384 |        16384 |        16384 |        16384 |        16384 |        16384 |        16384 |        16384 |        16384 |        16384 |        16384 |        16384 |        16384 |        16384 |        16384 |        16384 |        16384 |        16384 |
ld_prog_entry                           0x00400140 |   0x00400140 |   0x00400140 |   0x00400140 |   0x00400140 |   0x00400140 |   0x00400140 |   0x00400140 |   0x00400140 |   0x00400140 |   0x00400140 |   0x00400140 |   0x00400140 |   0x00400140 |   0x00400140 |   0x00400140 |   0x00400140 |   0x00400140 |   0x00400140 |   0x00400140 |
ld_environ_base                         0x7fff8000 |   0x7fff8000 |   0x7fff8000 |   0x7fff8000 |   0x7fff8000 |   0x7fff8000 |   0x7fff8000 |   0x7fff8000 |   0x7fff8000 |   0x7fff8000 |   0x7fff8000 |   0x7fff8000 |   0x7fff8000 |   0x7fff8000 |   0x7fff8000 |   0x7fff8000 |   0x7fff8000 |   0x7fff8000 |   0x7fff8000 |   0x7fff8000 |
ld_target_big_endian                             0 |            0 |            0 |            0 |            0 |            0 |            0 |            0 |            0 |            0 |            0 |            0 |            0 |            0 |            0 |            0 |            0 |            0 |            0 |            0 |
mem.page_count                                  29 |           29 |           29 |           29 |           33 |           33 |           33 |           33 |           41 |           41 |           41 |           41 |           57 |           57 |           57 |           57 |           89 |           89 |           89 |           89 |
mem.page_mem                                  116k |         116k |         116k |         116k |         132k |         132k |         132k |         132k |         164k |         164k |         164k |         164k |         228k |         228k |         228k |         228k |         356k |         356k |         356k |         356k |
mem.ptab_misses                                 29 |           29 |           29 |           29 |           33 |           33 |           33 |           33 |           41 |           41 |           41 |           41 |           57 |           57 |           57 |           57 |           89 |           89 |           89 |           89 |
mem.ptab_accesses                        336655726 |    336655726 |    336655726 |    336655726 |   1343613470 |   1343613470 |   1343613470 |   1343613470 |   5362357894 |   5362357894 |   5362357894 |   5362357894 |  21445058490 |  21445058490 |  21445058490 |  21445058490 |  85760095578 |  85760095578 |  85760095578 |  85760095578 |
mem.ptab_miss_rate                          0.0000 |       0.0000 |       0.0000 |       0.0000 |       0.0000 |       0.0000 |       0.0000 |       0.0000 |       0.0000 |       0.0000 |       0.0000 |       0.0000 |       0.0000 |       0.0000 |       0.0000 |       0.0000 |       0.0000 |       0.0000 |       0.0000 |       0.0000 |
-------------------------------------------------------------------------------------------------
sim-bpred                                     4096 |         4096 |         4096 |         4096 |         4096 |         4096 |         4096 |         8192 |         8192 |         8192 |         8192 |         8192 |         8192 |         8192 |        16384 |        16384 |        16384 |        16384 |        16384 |        16384 |        16384 |        32768 |        32768 |        32768 |        32768 |        32768 |        32768 |        32768 |        65536 |        65536 |        65536 |        65536 |        65536 |        65536 |        65536 |
-bpred bimod -bpred:bimod 512
-bpred bimod -bpred:bimod 1024
-bpred bimod -bpred:bimod 2048
-bpred 2lev -bpred:2lev 1 512 10 1
-bpred 2lev -bpred:2lev 1 1024 10 1
-bpred 2lev -bpred:2lev 1 2048 10 1
-bpred 2lev -bpred:2lev 1 4096 10 1
-------------------------------------------------------------------------------------------------
sim_num_insn                              71432187 |     71432187 |     71432187 |     71432187 |     71432187 |     71432187 |     71432187 |    285404036 |    285404036 |    285404036 |    285404036 |    285404036 |    285404036 |    285404036 |   1139586446 |   1139586446 |   1139586446 |   1139586446 |   1139586446 |   1139586446 |   1139586446 |   4557756209 |   4557756209 |   4557756209 |   4557756209 |   4557756209 |   4557756209 |   4557756209 |  18227444227 |  18227444227 |  18227444227 |  18227444227 |  18227444227 |  18227444227 |  18227444227 |
sim_num_refs                              25227047 |     25227047 |     25227047 |     25227047 |     25227047 |     25227047 |     25227047 |    100745741 |    100745741 |    100745741 |    100745741 |    100745741 |    100745741 |    100745741 |    401720317 |    401720317 |    401720317 |    401720317 |    401720317 |    401720317 |    401720317 |   1606665505 |   1606665505 |   1606665505 |   1606665505 |   1606665505 |   1606665505 |   1606665505 |   6424676941 |   6424676941 |   6424676941 |   6424676941 |   6424676941 |   6424676941 |   6424676941 |
sim_elapsed_time                                 9 |           10 |            9 |           10 |           10 |           10 |            9 |           38 |           38 |           39 |           39 |           39 |           39 |           39 |          151 |          152 |          154 |          156 |          156 |          156 |          157 |          608 |          610 |          617 |          625 |          624 |          627 |          626 |         2428 |         2431 |         2467 |         2497 |         2488 |         2509 |         2504 |
sim_inst_rate                         7936909.6667 | 7143218.7000 | 7936909.6667 | 7143218.7000 | 7143218.7000 | 7143218.7000 | 7936909.6667 | 7510632.5263 | 7510632.5263 | 7318052.2051 | 7318052.2051 | 7318052.2051 | 7318052.2051 | 7318052.2051 | 7546930.1060 | 7497279.2500 | 7399911.9870 | 7305041.3205 | 7305041.3205 | 7305041.3205 | 7258512.3949 | 7496309.5543 | 7471731.4902 | 7386963.0616 | 7292409.9344 | 7304096.4888 | 7269148.6587 | 7280760.7173 | 7507184.6075 | 7497920.2908 | 7388505.9696 | 7299737.3757 | 7326143.1781 | 7264824.3232 | 7279330.7616 |
sim_num_branches                          16784039 |     16784039 |     16784039 |     16784039 |     16784039 |     16784039 |     16784039 |     67118770 |     67118770 |     67118770 |     67118770 |     67118770 |     67118770 |     67118770 |    268454571 |    268454571 |    268454571 |    268454571 |    268454571 |    268454571 |    268454571 |   1073781538 |   1073781538 |   1073781538 |   1073781538 |   1073781538 |   1073781538 |   1073781538 |   4295019026 |   4295019026 |   4295019026 |   4295019026 |   4295019026 |   4295019026 |   4295019026 |
sim_IPB                                     4.2560 |       4.2560 |       4.2560 |       4.2560 |       4.2560 |       4.2560 |       4.2560 |       4.2522 |       4.2522 |       4.2522 |       4.2522 |       4.2522 |       4.2522 |       4.2522 |       4.2450 |       4.2450 |       4.2450 |       4.2450 |       4.2450 |       4.2450 |       4.2450 |       4.2446 |       4.2446 |       4.2446 |       4.2446 |       4.2446 |       4.2446 |       4.2446 |       4.2439 |       4.2439 |       4.2439 |       4.2439 |       4.2439 |       4.2439 |       4.2439 |
bpred_bimod.lookups                       16784039 |     16784039 |     16784039 |xxxxxxxxxxxxx |xxxxxxxxxxxxx |xxxxxxxxxxxxx |xxxxxxxxxxxxx |     67118770 |     67118770 |     67118770 |xxxxxxxxxxxxx |xxxxxxxxxxxxx |xxxxxxxxxxxxx |xxxxxxxxxxxxx |    268454571 |    268454571 |    268454571 |xxxxxxxxxxxxx |xxxxxxxxxxxxx |xxxxxxxxxxxxx |xxxxxxxxxxxxx |   1073781538 |   1073781538 |   1073781538 |xxxxxxxxxxxxx |xxxxxxxxxxxxx |xxxxxxxxxxxxx |xxxxxxxxxxxxx |   4295019026 |   4295019026 |   4295019026 |
bpred_bimod.updates                       16784039 |     16784039 |     16784039 |xxxxxxxxxxxxx |xxxxxxxxxxxxx |xxxxxxxxxxxxx |xxxxxxxxxxxxx |     67118770 |     67118770 |     67118770 |xxxxxxxxxxxxx |xxxxxxxxxxxxx |xxxxxxxxxxxxx |xxxxxxxxxxxxx |    268454571 |    268454571 |    268454571 |xxxxxxxxxxxxx |xxxxxxxxxxxxx |xxxxxxxxxxxxx |xxxxxxxxxxxxx |   1073781538 |   1073781538 |   1073781538 |xxxxxxxxxxxxx |xxxxxxxxxxxxx |xxxxxxxxxxxxx |xxxxxxxxxxxxx |   4295019026 |   4295019026 |   4295019026 |
bpred_bimod.addr_hits                     14419631 |     14419634 |     14419635 |xxxxxxxxxxxxx |xxxxxxxxxxxxx |xxxxxxxxxxxxx |xxxxxxxxxxxxx |     57636093 |     57636096 |     57636096 |xxxxxxxxxxxxx |xxxxxxxxxxxxx |xxxxxxxxxxxxx |xxxxxxxxxxxxx |    230589726 |    230589728 |    230589728 |xxxxxxxxxxxxx |xxxxxxxxxxxxx |xxxxxxxxxxxxx |xxxxxxxxxxxxx |    921613869 |    921613872 |    921613872 |xxxxxxxxxxxxx |xxxxxxxxxxxxx |xxxxxxxxxxxxx |xxxxxxxxxxxxx |   3682710443 |   3682710446 |   3682710446 |
bpred_bimod.dir_hits                      14419724 |     14419726 |     14419726 |xxxxxxxxxxxxx |xxxxxxxxxxxxx |xxxxxxxxxxxxx |xxxxxxxxxxxxx |     57636186 |     57636188 |     57636187 |xxxxxxxxxxxxx |xxxxxxxxxxxxx |xxxxxxxxxxxxx |xxxxxxxxxxxxx |    230589820 |    230589820 |    230589819 |xxxxxxxxxxxxx |xxxxxxxxxxxxx |xxxxxxxxxxxxx |xxxxxxxxxxxxx |    921613963 |    921613965 |    921613962 |xxxxxxxxxxxxx |xxxxxxxxxxxxx |xxxxxxxxxxxxx |xxxxxxxxxxxxx |   3682710537 |   3682710539 |   3682710536 |
bpred_bimod.misses                         2364315 |      2364313 |      2364313 |xxxxxxxxxxxxx |xxxxxxxxxxxxx |xxxxxxxxxxxxx |xxxxxxxxxxxxx |      9482584 |      9482582 |      9482583 |xxxxxxxxxxxxx |xxxxxxxxxxxxx |xxxxxxxxxxxxx |xxxxxxxxxxxxx |     37864751 |     37864751 |     37864752 |xxxxxxxxxxxxx |xxxxxxxxxxxxx |xxxxxxxxxxxxx |xxxxxxxxxxxxx |    152167575 |    152167573 |    152167576 |xxxxxxxxxxxxx |xxxxxxxxxxxxx |xxxxxxxxxxxxx |xxxxxxxxxxxxx |    612308489 |    612308487 |    612308490 |
bpred_bimod.jr_hits                             57 |           57 |           57 |xxxxxxxxxxxxx |xxxxxxxxxxxxx |xxxxxxxxxxxxx |xxxxxxxxxxxxx |           57 |           57 |           57 |xxxxxxxxxxxxx |xxxxxxxxxxxxx |xxxxxxxxxxxxx |xxxxxxxxxxxxx |           57 |           57 |           57 |xxxxxxxxxxxxx |xxxxxxxxxxxxx |xxxxxxxxxxxxx |xxxxxxxxxxxxx |           57 |           57 |           57 |xxxxxxxxxxxxx |xxxxxxxxxxxxx |xxxxxxxxxxxxx |xxxxxxxxxxxxx |           57 |           57 |           57 |
bpred_bimod.jr_seen                             58 |           58 |           58 |xxxxxxxxxxxxx |xxxxxxxxxxxxx |xxxxxxxxxxxxx |xxxxxxxxxxxxx |           58 |           58 |           58 |xxxxxxxxxxxxx |xxxxxxxxxxxxx |xxxxxxxxxxxxx |xxxxxxxxxxxxx |           58 |           58 |           58 |xxxxxxxxxxxxx |xxxxxxxxxxxxx |xxxxxxxxxxxxx |xxxxxxxxxxxxx |           58 |           58 |           58 |xxxxxxxxxxxxx |xxxxxxxxxxxxx |xxxxxxxxxxxxx |xxxxxxxxxxxxx |           58 |           58 |           58 |
bpred_bimod.jr_non_ras_hits.PP                   0 |            0 |            0 |xxxxxxxxxxxxx |xxxxxxxxxxxxx |xxxxxxxxxxxxx |xxxxxxxxxxxxx |            0 |            0 |            0 |xxxxxxxxxxxxx |xxxxxxxxxxxxx |xxxxxxxxxxxxx |xxxxxxxxxxxxx |            0 |            0 |            0 |xxxxxxxxxxxxx |xxxxxxxxxxxxx |xxxxxxxxxxxxx |xxxxxxxxxxxxx |            0 |            0 |            0 |xxxxxxxxxxxxx |xxxxxxxxxxxxx |xxxxxxxxxxxxx |xxxxxxxxxxxxx |            0 |            0 |            0 |
bpred_bimod.jr_non_ras_seen.PP                   0 |            0 |            0 |xxxxxxxxxxxxx |xxxxxxxxxxxxx |xxxxxxxxxxxxx |xxxxxxxxxxxxx |            0 |            0 |            0 |xxxxxxxxxxxxx |xxxxxxxxxxxxx |xxxxxxxxxxxxx |xxxxxxxxxxxxx |            0 |            0 |            0 |xxxxxxxxxxxxx |xxxxxxxxxxxxx |xxxxxxxxxxxxx |xxxxxxxxxxxxx |            0 |            0 |            0 |xxxxxxxxxxxxx |xxxxxxxxxxxxx |xxxxxxxxxxxxx |xxxxxxxxxxxxx |            0 |            0 |            0 |
bpred_bimod.bpred_addr_rate                 0.8591 |       0.8591 |       0.8591 |xxxxxxxxxxxxx |xxxxxxxxxxxxx |xxxxxxxxxxxxx |xxxxxxxxxxxxx |       0.8587 |       0.8587 |       0.8587 |xxxxxxxxxxxxx |xxxxxxxxxxxxx |xxxxxxxxxxxxx |xxxxxxxxxxxxx |       0.8590 |       0.8590 |       0.8590 |xxxxxxxxxxxxx |xxxxxxxxxxxxx |xxxxxxxxxxxxx |xxxxxxxxxxxxx |       0.8583 |       0.8583 |       0.8583 |xxxxxxxxxxxxx |xxxxxxxxxxxxx |xxxxxxxxxxxxx |xxxxxxxxxxxxx |       0.8574 |       0.8574 |       0.8574 |
bpred_bimod.bpred_dir_rate                  0.8591 |       0.8591 |       0.8591 |xxxxxxxxxxxxx |xxxxxxxxxxxxx |xxxxxxxxxxxxx |xxxxxxxxxxxxx |       0.8587 |       0.8587 |       0.8587 |xxxxxxxxxxxxx |xxxxxxxxxxxxx |xxxxxxxxxxxxx |xxxxxxxxxxxxx |       0.8590 |       0.8590 |       0.8590 |xxxxxxxxxxxxx |xxxxxxxxxxxxx |xxxxxxxxxxxxx |xxxxxxxxxxxxx |       0.8583 |       0.8583 |       0.8583 |xxxxxxxxxxxxx |xxxxxxxxxxxxx |xxxxxxxxxxxxx |xxxxxxxxxxxxx |       0.8574 |       0.8574 |       0.8574 |
bpred_bimod.bpred_jr_rate                   0.9828 |       0.9828 |       0.9828 |xxxxxxxxxxxxx |xxxxxxxxxxxxx |xxxxxxxxxxxxx |xxxxxxxxxxxxx |       0.9828 |       0.9828 |       0.9828 |xxxxxxxxxxxxx |xxxxxxxxxxxxx |xxxxxxxxxxxxx |xxxxxxxxxxxxx |       0.9828 |       0.9828 |       0.9828 |xxxxxxxxxxxxx |xxxxxxxxxxxxx |xxxxxxxxxxxxx |xxxxxxxxxxxxx |       0.9828 |       0.9828 |       0.9828 |xxxxxxxxxxxxx |xxxxxxxxxxxxx |xxxxxxxxxxxxx |xxxxxxxxxxxxx |       0.9828 |       0.9828 |       0.9828 |
bpred_bimod.bpred_jr_non_ras_rate.PP       <error: |      <error: |      <error: |xxxxxxxxxxxxx |xxxxxxxxxxxxx |xxxxxxxxxxxxx |xxxxxxxxxxxxx |      <error: |      <error: |      <error: |xxxxxxxxxxxxx |xxxxxxxxxxxxx |xxxxxxxxxxxxx |xxxxxxxxxxxxx |      <error: |      <error: |      <error: |xxxxxxxxxxxxx |xxxxxxxxxxxxx |xxxxxxxxxxxxx |xxxxxxxxxxxxx |      <error: |      <error: |      <error: |xxxxxxxxxxxxx |xxxxxxxxxxxxx |xxxxxxxxxxxxx |xxxxxxxxxxxxx |      <error: |      <error: |      <error: |
bpred_bimod.retstack_pushes                     60 |           60 |           60 |xxxxxxxxxxxxx |xxxxxxxxxxxxx |xxxxxxxxxxxxx |xxxxxxxxxxxxx |           60 |           60 |           60 |xxxxxxxxxxxxx |xxxxxxxxxxxxx |xxxxxxxxxxxxx |xxxxxxxxxxxxx |           60 |           60 |           60 |xxxxxxxxxxxxx |xxxxxxxxxxxxx |xxxxxxxxxxxxx |xxxxxxxxxxxxx |           60 |           60 |           60 |xxxxxxxxxxxxx |xxxxxxxxxxxxx |xxxxxxxxxxxxx |xxxxxxxxxxxxx |           60 |           60 |           60 |
bpred_bimod.retstack_pops                       58 |           58 |           58 |xxxxxxxxxxxxx |xxxxxxxxxxxxx |xxxxxxxxxxxxx |xxxxxxxxxxxxx |           58 |           58 |           58 |xxxxxxxxxxxxx |xxxxxxxxxxxxx |xxxxxxxxxxxxx |xxxxxxxxxxxxx |           58 |           58 |           58 |xxxxxxxxxxxxx |xxxxxxxxxxxxx |xxxxxxxxxxxxx |xxxxxxxxxxxxx |           58 |           58 |           58 |xxxxxxxxxxxxx |xxxxxxxxxxxxx |xxxxxxxxxxxxx |xxxxxxxxxxxxx |           58 |           58 |           58 |
bpred_bimod.used_ras.PP                         58 |           58 |           58 |xxxxxxxxxxxxx |xxxxxxxxxxxxx |xxxxxxxxxxxxx |xxxxxxxxxxxxx |           58 |           58 |           58 |xxxxxxxxxxxxx |xxxxxxxxxxxxx |xxxxxxxxxxxxx |xxxxxxxxxxxxx |           58 |           58 |           58 |xxxxxxxxxxxxx |xxxxxxxxxxxxx |xxxxxxxxxxxxx |xxxxxxxxxxxxx |           58 |           58 |           58 |xxxxxxxxxxxxx |xxxxxxxxxxxxx |xxxxxxxxxxxxx |xxxxxxxxxxxxx |           58 |           58 |           58 |
bpred_bimod.ras_hits.PP                         57 |           57 |           57 |xxxxxxxxxxxxx |xxxxxxxxxxxxx |xxxxxxxxxxxxx |xxxxxxxxxxxxx |           57 |           57 |           57 |xxxxxxxxxxxxx |xxxxxxxxxxxxx |xxxxxxxxxxxxx |xxxxxxxxxxxxx |           57 |           57 |           57 |xxxxxxxxxxxxx |xxxxxxxxxxxxx |xxxxxxxxxxxxx |xxxxxxxxxxxxx |           57 |           57 |           57 |xxxxxxxxxxxxx |xxxxxxxxxxxxx |xxxxxxxxxxxxx |xxxxxxxxxxxxx |           57 |           57 |           57 |
bpred_bimod.ras_rate.PP                     0.9828 |       0.9828 |       0.9828 |xxxxxxxxxxxxx |xxxxxxxxxxxxx |xxxxxxxxxxxxx |xxxxxxxxxxxxx |       0.9828 |       0.9828 |       0.9828 |xxxxxxxxxxxxx |xxxxxxxxxxxxx |xxxxxxxxxxxxx |xxxxxxxxxxxxx |       0.9828 |       0.9828 |       0.9828 |xxxxxxxxxxxxx |xxxxxxxxxxxxx |xxxxxxxxxxxxx |xxxxxxxxxxxxx |       0.9828 |       0.9828 |       0.9828 |xxxxxxxxxxxxx |xxxxxxxxxxxxx |xxxxxxxxxxxxx |xxxxxxxxxxxxx |       0.9828 |       0.9828 |       0.9828 |
bpred_2lev.lookups                   xxxxxxxxxxxxx |xxxxxxxxxxxxx |xxxxxxxxxxxxx |     16784039 |     16784039 |     16784039 |     16784039 |xxxxxxxxxxxxx |xxxxxxxxxxxxx |xxxxxxxxxxxxx |     67118770 |     67118770 |     67118770 |     67118770 |xxxxxxxxxxxxx |xxxxxxxxxxxxx |xxxxxxxxxxxxx |    268454571 |    268454571 |    268454571 |    268454571 |xxxxxxxxxxxxx |xxxxxxxxxxxxx |xxxxxxxxxxxxx |   1073781538 |   1073781538 |   1073781538 |   1073781538 |xxxxxxxxxxxxx |xxxxxxxxxxxxx |xxxxxxxxxxxxx |   4295019026 |   4295019026 |   4295019026 |   4295019026 |
bpred_2lev.updates                   xxxxxxxxxxxxx |xxxxxxxxxxxxx |xxxxxxxxxxxxx |     16784039 |     16784039 |     16784039 |     16784039 |xxxxxxxxxxxxx |xxxxxxxxxxxxx |xxxxxxxxxxxxx |     67118770 |     67118770 |     67118770 |     67118770 |xxxxxxxxxxxxx |xxxxxxxxxxxxx |xxxxxxxxxxxxx |    268454571 |    268454571 |    268454571 |    268454571 |xxxxxxxxxxxxx |xxxxxxxxxxxxx |xxxxxxxxxxxxx |   1073781538 |   1073781538 |   1073781538 |   1073781538 |xxxxxxxxxxxxx |xxxxxxxxxxxxx |xxxxxxxxxxxxx |   4295019026 |   4295019026 |   4295019026 |   4295019026 |
bpred_2lev.addr_hits                 xxxxxxxxxxxxx |xxxxxxxxxxxxx |xxxxxxxxxxxxx |     14336220 |     14339654 |     14339898 |     14349796 |xxxxxxxxxxxxx |xxxxxxxxxxxxx |xxxxxxxxxxxxx |     57368045 |     57377957 |     57378506 |     57428230 |xxxxxxxxxxxxx |xxxxxxxxxxxxx |xxxxxxxxxxxxx |    229773375 |    229905138 |    229906425 |    230122604 |xxxxxxxxxxxxx |xxxxxxxxxxxxx |xxxxxxxxxxxxx |    919116754 |    919694563 |    919697250 |    920700873 |xxxxxxxxxxxxx |xxxxxxxxxxxxx |xxxxxxxxxxxxx |   3675052679 |   3677663733 |   3677669172 |   3682026467 |
bpred_2lev.dir_hits                  xxxxxxxxxxxxx |xxxxxxxxxxxxx |xxxxxxxxxxxxx |     14336311 |     14339747 |     14339990 |     14349890 |xxxxxxxxxxxxx |xxxxxxxxxxxxx |xxxxxxxxxxxxx |     57368144 |     57378051 |     57378598 |     57428321 |xxxxxxxxxxxxx |xxxxxxxxxxxxx |xxxxxxxxxxxxx |    229773470 |    229905231 |    229906515 |    230122693 |xxxxxxxxxxxxx |xxxxxxxxxxxxx |xxxxxxxxxxxxx |    919116855 |    919694657 |    919697340 |    920700964 |xxxxxxxxxxxxx |xxxxxxxxxxxxx |xxxxxxxxxxxxx |   3675052779 |   3677663826 |   3677669261 |   3682026558 |
bpred_2lev.misses                    xxxxxxxxxxxxx |xxxxxxxxxxxxx |xxxxxxxxxxxxx |      2447728 |      2444292 |      2444049 |      2434149 |xxxxxxxxxxxxx |xxxxxxxxxxxxx |xxxxxxxxxxxxx |      9750626 |      9740719 |      9740172 |      9690449 |xxxxxxxxxxxxx |xxxxxxxxxxxxx |xxxxxxxxxxxxx |     38681101 |     38549340 |     38548056 |     38331878 |xxxxxxxxxxxxx |xxxxxxxxxxxxx |xxxxxxxxxxxxx |    154664683 |    154086881 |    154084198 |    153080574 |xxxxxxxxxxxxx |xxxxxxxxxxxxx |xxxxxxxxxxxxx |    619966247 |    617355200 |    617349765 |    612992468 |
bpred_2lev.jr_hits                   xxxxxxxxxxxxx |xxxxxxxxxxxxx |xxxxxxxxxxxxx |           57 |           57 |           57 |           57 |xxxxxxxxxxxxx |xxxxxxxxxxxxx |xxxxxxxxxxxxx |           57 |           57 |           57 |           57 |xxxxxxxxxxxxx |xxxxxxxxxxxxx |xxxxxxxxxxxxx |           57 |           57 |           57 |           57 |xxxxxxxxxxxxx |xxxxxxxxxxxxx |xxxxxxxxxxxxx |           57 |           57 |           57 |           57 |xxxxxxxxxxxxx |xxxxxxxxxxxxx |xxxxxxxxxxxxx |           57 |           57 |           57 |           57 |
bpred_2lev.jr_seen                   xxxxxxxxxxxxx |xxxxxxxxxxxxx |xxxxxxxxxxxxx |           58 |           58 |           58 |           58 |xxxxxxxxxxxxx |xxxxxxxxxxxxx |xxxxxxxxxxxxx |           58 |           58 |           58 |           58 |xxxxxxxxxxxxx |xxxxxxxxxxxxx |xxxxxxxxxxxxx |           58 |           58 |           58 |           58 |xxxxxxxxxxxxx |xxxxxxxxxxxxx |xxxxxxxxxxxxx |           58 |           58 |           58 |           58 |xxxxxxxxxxxxx |xxxxxxxxxxxxx |xxxxxxxxxxxxx |           58 |           58 |           58 |           58 |
bpred_2lev.jr_non_ras_hits.PP        xxxxxxxxxxxxx |xxxxxxxxxxxxx |xxxxxxxxxxxxx |            0 |            0 |            0 |            0 |xxxxxxxxxxxxx |xxxxxxxxxxxxx |xxxxxxxxxxxxx |            0 |            0 |            0 |            0 |xxxxxxxxxxxxx |xxxxxxxxxxxxx |xxxxxxxxxxxxx |            0 |            0 |            0 |            0 |xxxxxxxxxxxxx |xxxxxxxxxxxxx |xxxxxxxxxxxxx |            0 |            0 |            0 |            0 |xxxxxxxxxxxxx |xxxxxxxxxxxxx |xxxxxxxxxxxxx |            0 |            0 |            0 |            0 |
bpred_2lev.jr_non_ras_seen.PP        xxxxxxxxxxxxx |xxxxxxxxxxxxx |xxxxxxxxxxxxx |            0 |            0 |            0 |            0 |xxxxxxxxxxxxx |xxxxxxxxxxxxx |xxxxxxxxxxxxx |            0 |            0 |            0 |            0 |xxxxxxxxxxxxx |xxxxxxxxxxxxx |xxxxxxxxxxxxx |            0 |            0 |            0 |            0 |xxxxxxxxxxxxx |xxxxxxxxxxxxx |xxxxxxxxxxxxx |            0 |            0 |            0 |            0 |xxxxxxxxxxxxx |xxxxxxxxxxxxx |xxxxxxxxxxxxx |            0 |            0 |            0 |            0 |
bpred_2lev.bpred_addr_rate           xxxxxxxxxxxxx |xxxxxxxxxxxxx |xxxxxxxxxxxxx |       0.8542 |       0.8544 |       0.8544 |       0.8550 |xxxxxxxxxxxxx |xxxxxxxxxxxxx |xxxxxxxxxxxxx |       0.8547 |       0.8549 |       0.8549 |       0.8556 |xxxxxxxxxxxxx |xxxxxxxxxxxxx |xxxxxxxxxxxxx |       0.8559 |       0.8564 |       0.8564 |       0.8572 |xxxxxxxxxxxxx |xxxxxxxxxxxxx |xxxxxxxxxxxxx |       0.8560 |       0.8565 |       0.8565 |       0.8574 |xxxxxxxxxxxxx |xxxxxxxxxxxxx |xxxxxxxxxxxxx |       0.8557 |       0.8563 |       0.8563 |       0.8573 |
bpred_2lev.bpred_dir_rate            xxxxxxxxxxxxx |xxxxxxxxxxxxx |xxxxxxxxxxxxx |       0.8542 |       0.8544 |       0.8544 |       0.8550 |xxxxxxxxxxxxx |xxxxxxxxxxxxx |xxxxxxxxxxxxx |       0.8547 |       0.8549 |       0.8549 |       0.8556 |xxxxxxxxxxxxx |xxxxxxxxxxxxx |xxxxxxxxxxxxx |       0.8559 |       0.8564 |       0.8564 |       0.8572 |xxxxxxxxxxxxx |xxxxxxxxxxxxx |xxxxxxxxxxxxx |       0.8560 |       0.8565 |       0.8565 |       0.8574 |xxxxxxxxxxxxx |xxxxxxxxxxxxx |xxxxxxxxxxxxx |       0.8557 |       0.8563 |       0.8563 |       0.8573 |
bpred_2lev.bpred_jr_rate             xxxxxxxxxxxxx |xxxxxxxxxxxxx |xxxxxxxxxxxxx |       0.9828 |       0.9828 |       0.9828 |       0.9828 |xxxxxxxxxxxxx |xxxxxxxxxxxxx |xxxxxxxxxxxxx |       0.9828 |       0.9828 |       0.9828 |       0.9828 |xxxxxxxxxxxxx |xxxxxxxxxxxxx |xxxxxxxxxxxxx |       0.9828 |       0.9828 |       0.9828 |       0.9828 |xxxxxxxxxxxxx |xxxxxxxxxxxxx |xxxxxxxxxxxxx |       0.9828 |       0.9828 |       0.9828 |       0.9828 |xxxxxxxxxxxxx |xxxxxxxxxxxxx |xxxxxxxxxxxxx |       0.9828 |       0.9828 |       0.9828 |       0.9828 |
bpred_2lev.bpred_jr_non_ras_rate.PP  xxxxxxxxxxxxx |xxxxxxxxxxxxx |xxxxxxxxxxxxx |      <error: |      <error: |      <error: |      <error: |xxxxxxxxxxxxx |xxxxxxxxxxxxx |xxxxxxxxxxxxx |      <error: |      <error: |      <error: |      <error: |xxxxxxxxxxxxx |xxxxxxxxxxxxx |xxxxxxxxxxxxx |      <error: |      <error: |      <error: |      <error: |xxxxxxxxxxxxx |xxxxxxxxxxxxx |xxxxxxxxxxxxx |      <error: |      <error: |      <error: |      <error: |xxxxxxxxxxxxx |xxxxxxxxxxxxx |xxxxxxxxxxxxx |      <error: |      <error: |      <error: |      <error: |
bpred_2lev.retstack_pushes           xxxxxxxxxxxxx |xxxxxxxxxxxxx |xxxxxxxxxxxxx |           60 |           60 |           60 |           60 |xxxxxxxxxxxxx |xxxxxxxxxxxxx |xxxxxxxxxxxxx |           60 |           60 |           60 |           60 |xxxxxxxxxxxxx |xxxxxxxxxxxxx |xxxxxxxxxxxxx |           60 |           60 |           60 |           60 |xxxxxxxxxxxxx |xxxxxxxxxxxxx |xxxxxxxxxxxxx |           60 |           60 |           60 |           60 |xxxxxxxxxxxxx |xxxxxxxxxxxxx |xxxxxxxxxxxxx |           60 |           60 |           60 |           60 |
bpred_2lev.retstack_pops             xxxxxxxxxxxxx |xxxxxxxxxxxxx |xxxxxxxxxxxxx |           58 |           58 |           58 |           58 |xxxxxxxxxxxxx |xxxxxxxxxxxxx |xxxxxxxxxxxxx |           58 |           58 |           58 |           58 |xxxxxxxxxxxxx |xxxxxxxxxxxxx |xxxxxxxxxxxxx |           58 |           58 |           58 |           58 |xxxxxxxxxxxxx |xxxxxxxxxxxxx |xxxxxxxxxxxxx |           58 |           58 |           58 |           58 |xxxxxxxxxxxxx |xxxxxxxxxxxxx |xxxxxxxxxxxxx |           58 |           58 |           58 |           58 |
bpred_2lev.used_ras.PP               xxxxxxxxxxxxx |xxxxxxxxxxxxx |xxxxxxxxxxxxx |           58 |           58 |           58 |           58 |xxxxxxxxxxxxx |xxxxxxxxxxxxx |xxxxxxxxxxxxx |           58 |           58 |           58 |           58 |xxxxxxxxxxxxx |xxxxxxxxxxxxx |xxxxxxxxxxxxx |           58 |           58 |           58 |           58 |xxxxxxxxxxxxx |xxxxxxxxxxxxx |xxxxxxxxxxxxx |           58 |           58 |           58 |           58 |xxxxxxxxxxxxx |xxxxxxxxxxxxx |xxxxxxxxxxxxx |           58 |           58 |           58 |           58 |
bpred_2lev.ras_hits.PP               xxxxxxxxxxxxx |xxxxxxxxxxxxx |xxxxxxxxxxxxx |           57 |           57 |           57 |           57 |xxxxxxxxxxxxx |xxxxxxxxxxxxx |xxxxxxxxxxxxx |           57 |           57 |           57 |           57 |xxxxxxxxxxxxx |xxxxxxxxxxxxx |xxxxxxxxxxxxx |           57 |           57 |           57 |           57 |xxxxxxxxxxxxx |xxxxxxxxxxxxx |xxxxxxxxxxxxx |           57 |           57 |           57 |           57 |xxxxxxxxxxxxx |xxxxxxxxxxxxx |xxxxxxxxxxxxx |           57 |           57 |           57 |           57 |
bpred_2lev.ras_rate.PP               xxxxxxxxxxxxx |xxxxxxxxxxxxx |xxxxxxxxxxxxx |       0.9828 |       0.9828 |       0.9828 |       0.9828 |xxxxxxxxxxxxx |xxxxxxxxxxxxx |xxxxxxxxxxxxx |       0.9828 |       0.9828 |       0.9828 |       0.9828 |xxxxxxxxxxxxx |xxxxxxxxxxxxx |xxxxxxxxxxxxx |       0.9828 |       0.9828 |       0.9828 |       0.9828 |xxxxxxxxxxxxx |xxxxxxxxxxxxx |xxxxxxxxxxxxx |       0.9828 |       0.9828 |       0.9828 |       0.9828 |xxxxxxxxxxxxx |xxxxxxxxxxxxx |xxxxxxxxxxxxx |       0.9828 |       0.9828 |       0.9828 |       0.9828 |

Command list: 
	sslittle-na-sstrix-gcc -Wall -O3 -funroll-loops -finline-functions  -DRANDOM_SIZE=4096 -DOFFSET=9 -DSORT=on2_bubblesort sorts/on2_bubblesort24262394.c simpleMain.c -o on2_bubblesort591752796
	sim-cache -cache:dl1 dl1:256:32:1:l -cache:dl2 dl2:131072:32:1:l -cache:il1 il1:256:32:1:l -cache:il2 dl2 on2_bubblesort591752796
	sim-cache -cache:dl1 dl1:256:32:1:l -cache:dl2 dl2:65536:32:1:l -cache:il1 il1:256:32:1:l -cache:il2 dl2 on2_bubblesort591752796
	sim-cache -cache:dl1 dl1:1:32:256:l -cache:dl2 dl2:1:32:131072:l -cache:il1 il1:1:32:256:l -cache:il2 dl2 on2_bubblesort591752796
	sim-cache -cache:dl1 dl1:1:32:256:l -cache:dl2 dl2:1:32:65536:l -cache:il1 il1:1:32:256:l -cache:il2 dl2 on2_bubblesort591752796
	sim-bpred -bpred bimod -bpred:bimod 512 on2_bubblesort591752796
	sim-bpred -bpred bimod -bpred:bimod 1024 on2_bubblesort591752796
	sim-bpred -bpred bimod -bpred:bimod 2048 on2_bubblesort591752796
	sim-bpred -bpred 2lev -bpred:2lev 1 512 10 1 on2_bubblesort591752796
	sim-bpred -bpred 2lev -bpred:2lev 1 1024 10 1 on2_bubblesort591752796
	sim-bpred -bpred 2lev -bpred:2lev 1 2048 10 1 on2_bubblesort591752796
	sim-bpred -bpred 2lev -bpred:2lev 1 4096 10 1 on2_bubblesort591752796
	sslittle-na-sstrix-gcc -Wall -O3 -funroll-loops -finline-functions  -DRANDOM_SIZE=8192 -DOFFSET=9 -DSORT=on2_bubblesort sorts/on2_bubblesort24262394.c simpleMain.c -o on2_bubblesort591752796
	sim-cache -cache:dl1 dl1:256:32:1:l -cache:dl2 dl2:131072:32:1:l -cache:il1 il1:256:32:1:l -cache:il2 dl2 on2_bubblesort591752796
	sim-cache -cache:dl1 dl1:256:32:1:l -cache:dl2 dl2:65536:32:1:l -cache:il1 il1:256:32:1:l -cache:il2 dl2 on2_bubblesort591752796
	sim-cache -cache:dl1 dl1:1:32:256:l -cache:dl2 dl2:1:32:131072:l -cache:il1 il1:1:32:256:l -cache:il2 dl2 on2_bubblesort591752796
	sim-cache -cache:dl1 dl1:1:32:256:l -cache:dl2 dl2:1:32:65536:l -cache:il1 il1:1:32:256:l -cache:il2 dl2 on2_bubblesort591752796
	sim-bpred -bpred bimod -bpred:bimod 512 on2_bubblesort591752796
	sim-bpred -bpred bimod -bpred:bimod 1024 on2_bubblesort591752796
	sim-bpred -bpred bimod -bpred:bimod 2048 on2_bubblesort591752796
	sim-bpred -bpred 2lev -bpred:2lev 1 512 10 1 on2_bubblesort591752796
	sim-bpred -bpred 2lev -bpred:2lev 1 1024 10 1 on2_bubblesort591752796
	sim-bpred -bpred 2lev -bpred:2lev 1 2048 10 1 on2_bubblesort591752796
	sim-bpred -bpred 2lev -bpred:2lev 1 4096 10 1 on2_bubblesort591752796
	sslittle-na-sstrix-gcc -Wall -O3 -funroll-loops -finline-functions  -DRANDOM_SIZE=16384 -DOFFSET=9 -DSORT=on2_bubblesort sorts/on2_bubblesort24262394.c simpleMain.c -o on2_bubblesort591752796
	sim-cache -cache:dl1 dl1:256:32:1:l -cache:dl2 dl2:131072:32:1:l -cache:il1 il1:256:32:1:l -cache:il2 dl2 on2_bubblesort591752796
	sim-cache -cache:dl1 dl1:256:32:1:l -cache:dl2 dl2:65536:32:1:l -cache:il1 il1:256:32:1:l -cache:il2 dl2 on2_bubblesort591752796
	sim-cache -cache:dl1 dl1:1:32:256:l -cache:dl2 dl2:1:32:131072:l -cache:il1 il1:1:32:256:l -cache:il2 dl2 on2_bubblesort591752796
	sim-cache -cache:dl1 dl1:1:32:256:l -cache:dl2 dl2:1:32:65536:l -cache:il1 il1:1:32:256:l -cache:il2 dl2 on2_bubblesort591752796
	sim-bpred -bpred bimod -bpred:bimod 512 on2_bubblesort591752796
	sim-bpred -bpred bimod -bpred:bimod 1024 on2_bubblesort591752796
	sim-bpred -bpred bimod -bpred:bimod 2048 on2_bubblesort591752796
	sim-bpred -bpred 2lev -bpred:2lev 1 512 10 1 on2_bubblesort591752796
	sim-bpred -bpred 2lev -bpred:2lev 1 1024 10 1 on2_bubblesort591752796
	sim-bpred -bpred 2lev -bpred:2lev 1 2048 10 1 on2_bubblesort591752796
	sim-bpred -bpred 2lev -bpred:2lev 1 4096 10 1 on2_bubblesort591752796
	sslittle-na-sstrix-gcc -Wall -O3 -funroll-loops -finline-functions  -DRANDOM_SIZE=32768 -DOFFSET=9 -DSORT=on2_bubblesort sorts/on2_bubblesort24262394.c simpleMain.c -o on2_bubblesort591752796
	sim-cache -cache:dl1 dl1:256:32:1:l -cache:dl2 dl2:131072:32:1:l -cache:il1 il1:256:32:1:l -cache:il2 dl2 on2_bubblesort591752796
	sim-cache -cache:dl1 dl1:256:32:1:l -cache:dl2 dl2:65536:32:1:l -cache:il1 il1:256:32:1:l -cache:il2 dl2 on2_bubblesort591752796
	sim-cache -cache:dl1 dl1:1:32:256:l -cache:dl2 dl2:1:32:131072:l -cache:il1 il1:1:32:256:l -cache:il2 dl2 on2_bubblesort591752796
	sim-cache -cache:dl1 dl1:1:32:256:l -cache:dl2 dl2:1:32:65536:l -cache:il1 il1:1:32:256:l -cache:il2 dl2 on2_bubblesort591752796
	sim-bpred -bpred bimod -bpred:bimod 512 on2_bubblesort591752796
	sim-bpred -bpred bimod -bpred:bimod 1024 on2_bubblesort591752796
	sim-bpred -bpred bimod -bpred:bimod 2048 on2_bubblesort591752796
	sim-bpred -bpred 2lev -bpred:2lev 1 512 10 1 on2_bubblesort591752796
	sim-bpred -bpred 2lev -bpred:2lev 1 1024 10 1 on2_bubblesort591752796
	sim-bpred -bpred 2lev -bpred:2lev 1 2048 10 1 on2_bubblesort591752796
	sim-bpred -bpred 2lev -bpred:2lev 1 4096 10 1 on2_bubblesort591752796
	sslittle-na-sstrix-gcc -Wall -O3 -funroll-loops -finline-functions  -DRANDOM_SIZE=65536 -DOFFSET=9 -DSORT=on2_bubblesort sorts/on2_bubblesort24262394.c simpleMain.c -o on2_bubblesort591752796
	sim-cache -cache:dl1 dl1:256:32:1:l -cache:dl2 dl2:131072:32:1:l -cache:il1 il1:256:32:1:l -cache:il2 dl2 on2_bubblesort591752796
	sim-cache -cache:dl1 dl1:256:32:1:l -cache:dl2 dl2:65536:32:1:l -cache:il1 il1:256:32:1:l -cache:il2 dl2 on2_bubblesort591752796
	sim-cache -cache:dl1 dl1:1:32:256:l -cache:dl2 dl2:1:32:131072:l -cache:il1 il1:1:32:256:l -cache:il2 dl2 on2_bubblesort591752796
	sim-cache -cache:dl1 dl1:1:32:256:l -cache:dl2 dl2:1:32:65536:l -cache:il1 il1:1:32:256:l -cache:il2 dl2 on2_bubblesort591752796
	sim-bpred -bpred bimod -bpred:bimod 512 on2_bubblesort591752796
	sim-bpred -bpred bimod -bpred:bimod 1024 on2_bubblesort591752796
	sim-bpred -bpred bimod -bpred:bimod 2048 on2_bubblesort591752796
	sim-bpred -bpred 2lev -bpred:2lev 1 512 10 1 on2_bubblesort591752796
	sim-bpred -bpred 2lev -bpred:2lev 1 1024 10 1 on2_bubblesort591752796
	sim-bpred -bpred 2lev -bpred:2lev 1 2048 10 1 on2_bubblesort591752796
	sim-bpred -bpred 2lev -bpred:2lev 1 4096 10 1 on2_bubblesort591752796
