Thu Jun 16 18:01:41 2005
Run as: "./do_simple -c 16_byte_cache_line_random.org0 -o 0 -L 16 cache4_heapsort"
-------------------------------------------------------------------------------------------------
sim-cache                                     4096 |         4096 |         4096 |         4096 |         8192 |         8192 |         8192 |         8192 |        16384 |        16384 |        16384 |        16384 |        32768 |        32768 |        32768 |        32768 |        65536 |        65536 |        65536 |        65536 |       131072 |       131072 |       131072 |       131072 |       262144 |       262144 |       262144 |       262144 |       524288 |       524288 |       524288 |       524288 |      1048576 |      1048576 |      1048576 |      1048576 |      2097152 |      2097152 |      2097152 |      2097152 |      4194304 |      4194304 |      4194304 |      4194304 |
-cache:dl1 dl1:512:16:1:l -cache:dl2 dl2:262144:16:1:l -cache:il1 il1:512:16:1:l -cache:il2 dl2
-cache:dl1 dl1:512:16:1:l -cache:dl2 dl2:131072:16:1:l -cache:il1 il1:512:16:1:l -cache:il2 dl2
-cache:dl1 dl1:1:16:512:l -cache:dl2 dl2:1:16:262144:l -cache:il1 il1:1:16:512:l -cache:il2 dl2
-cache:dl1 dl1:1:16:512:l -cache:dl2 dl2:1:16:131072:l -cache:il1 il1:1:16:512:l -cache:il2 dl2
-------------------------------------------------------------------------------------------------
sim_num_insn                                870970 |       870970 |       870970 |       870970 |      1868183 |      1868183 |      1868183 |      1868183 |      4003206 |      4003206 |      4003206 |      4003206 |      8531690 |      8531690 |      8531690 |      8531690 |     18152817 |     18152817 |     18152817 |     18152817 |     38444577 |     38444577 |     38444577 |     38444577 |     81265295 |     81265295 |     81265295 |     81265295 |    171080822 |    171080822 |    171080822 |    171080822 |    359742096 |    359742096 |    359742096 |    359742096 |    753706000 |    753706000 |    753706000 |    753706000 |   1577715453 |   1577715453 |   1577715453 |   1577715453 |
sim_num_refs                                218092 |       218092 |       218092 |       218092 |       464624 |       464624 |       464624 |       464624 |       991294 |       991294 |       991294 |       991294 |      2107821 |      2107821 |      2107821 |      2107821 |      4476188 |      4476188 |      4476188 |      4476188 |      9468684 |      9468684 |      9468684 |      9468684 |     19991748 |     19991748 |     19991748 |     19991748 |     42054411 |     42054411 |     42054411 |     42054411 |     88354025 |     88354025 |     88354025 |     88354025 |    184994256 |    184994256 |    184994256 |    184994256 |    386952112 |    386952112 |    386952112 |    386952112 |
sim_elapsed_time                                 1 |            1 |           35 |           18 |            1 |            1 |           55 |           27 |            1 |            1 |           95 |           47 |            2 |            3 |          171 |           85 |            5 |            5 |          319 |          151 |           10 |           10 |          582 |          256 |           22 |           22 |          991 |          346 |           46 |           46 |         1333 |          375 |           96 |           97 |         1395 |          437 |          204 |          205 |         1528 |          570 |          432 |          430 |         1809 |          852 |
sim_inst_rate                          870970.0000 |  870970.0000 |   24884.8571 |   48387.2222 | 1868183.0000 | 1868183.0000 |   33966.9636 |   69191.9630 | 4003206.0000 | 4003206.0000 |   42139.0105 |   85174.5957 | 4265845.0000 | 2843896.6667 |   49892.9240 |  100372.8235 | 3630563.4000 | 3630563.4000 |   56905.3824 |  120217.3311 | 3844457.7000 | 3844457.7000 |   66055.9742 |  150174.1289 | 3693877.0455 | 3693877.0455 |   82003.3249 |  234870.7948 | 3719148.3043 | 3719148.3043 |  128342.7022 |  456215.5253 | 3747313.5000 | 3708681.4021 |  257879.6387 |  823208.4577 | 3694637.2549 | 3676614.6341 |  493263.0890 | 1322291.2281 | 3652119.1042 | 3669105.7047 |  872147.8458 | 1851778.7007 |
il1.accesses                                870970 |       870970 |       870970 |       870970 |      1868183 |      1868183 |      1868183 |      1868183 |      4003206 |      4003206 |      4003206 |      4003206 |      8531690 |      8531690 |      8531690 |      8531690 |     18152817 |     18152817 |     18152817 |     18152817 |     38444577 |     38444577 |     38444577 |     38444577 |     81265295 |     81265295 |     81265295 |     81265295 |    171080822 |    171080822 |    171080822 |    171080822 |    359742096 |    359742096 |    359742096 |    359742096 |    753706000 |    753706000 |    753706000 |    753706000 |   1577715453 |   1577715453 |   1577715453 |   1577715453 |
il1.hits                                    870044 |       870044 |       870200 |       870200 |      1867203 |      1867203 |      1867424 |      1867424 |      4002227 |      4002227 |      4002446 |      4002446 |      8530711 |      8530711 |      8530931 |      8530931 |     18151838 |     18151838 |     18152058 |     18152058 |     38443599 |     38443599 |     38443816 |     38443816 |     81264317 |     81264317 |     81264534 |     81264534 |    171079844 |    171079844 |    171080061 |    171080061 |    359741045 |    359741045 |    359741211 |    359741211 |    753704949 |    753704949 |    753705115 |    753705115 |   1577714402 |   1577714402 |   1577714568 |   1577714568 |
il1.misses                                     926 |          926 |          770 |          770 |          980 |          980 |          759 |          759 |          979 |          979 |          760 |          760 |          979 |          979 |          759 |          759 |          979 |          979 |          759 |          759 |          978 |          978 |          761 |          761 |          978 |          978 |          761 |          761 |          978 |          978 |          761 |          761 |         1051 |         1051 |          885 |          885 |         1051 |         1051 |          885 |          885 |         1051 |         1051 |          885 |          885 |
il1.replacements                               509 |          509 |          258 |          258 |          551 |          551 |          247 |          247 |          551 |          551 |          248 |          248 |          551 |          551 |          247 |          247 |          551 |          551 |          247 |          247 |          550 |          550 |          249 |          249 |          550 |          550 |          249 |          249 |          550 |          550 |          249 |          249 |          627 |          627 |          373 |          373 |          627 |          627 |          373 |          373 |          627 |          627 |          373 |          373 |
il1.writebacks                                   0 |            0 |            0 |            0 |            0 |            0 |            0 |            0 |            0 |            0 |            0 |            0 |            0 |            0 |            0 |            0 |            0 |            0 |            0 |            0 |            0 |            0 |            0 |            0 |            0 |            0 |            0 |            0 |            0 |            0 |            0 |            0 |            0 |            0 |            0 |            0 |            0 |            0 |            0 |            0 |            0 |            0 |            0 |            0 |
il1.invalidations                                0 |            0 |            0 |            0 |            0 |            0 |            0 |            0 |            0 |            0 |            0 |            0 |            0 |            0 |            0 |            0 |            0 |            0 |            0 |            0 |            0 |            0 |            0 |            0 |            0 |            0 |            0 |            0 |            0 |            0 |            0 |            0 |            0 |            0 |            0 |            0 |            0 |            0 |            0 |            0 |            0 |            0 |            0 |            0 |
il1.miss_rate                               0.0011 |       0.0011 |       0.0009 |       0.0009 |       0.0005 |       0.0005 |       0.0004 |       0.0004 |       0.0002 |       0.0002 |       0.0002 |       0.0002 |       0.0001 |       0.0001 |       0.0001 |       0.0001 |       0.0001 |       0.0001 |       0.0000 |       0.0000 |       0.0000 |       0.0000 |       0.0000 |       0.0000 |       0.0000 |       0.0000 |       0.0000 |       0.0000 |       0.0000 |       0.0000 |       0.0000 |       0.0000 |       0.0000 |       0.0000 |       0.0000 |       0.0000 |       0.0000 |       0.0000 |       0.0000 |       0.0000 |       0.0000 |       0.0000 |       0.0000 |       0.0000 |
il1.repl_rate                               0.0006 |       0.0006 |       0.0003 |       0.0003 |       0.0003 |       0.0003 |       0.0001 |       0.0001 |       0.0001 |       0.0001 |       0.0001 |       0.0001 |       0.0001 |       0.0001 |       0.0000 |       0.0000 |       0.0000 |       0.0000 |       0.0000 |       0.0000 |       0.0000 |       0.0000 |       0.0000 |       0.0000 |       0.0000 |       0.0000 |       0.0000 |       0.0000 |       0.0000 |       0.0000 |       0.0000 |       0.0000 |       0.0000 |       0.0000 |       0.0000 |       0.0000 |       0.0000 |       0.0000 |       0.0000 |       0.0000 |       0.0000 |       0.0000 |       0.0000 |       0.0000 |
il1.wb_rate                                 0.0000 |       0.0000 |       0.0000 |       0.0000 |       0.0000 |       0.0000 |       0.0000 |       0.0000 |       0.0000 |       0.0000 |       0.0000 |       0.0000 |       0.0000 |       0.0000 |       0.0000 |       0.0000 |       0.0000 |       0.0000 |       0.0000 |       0.0000 |       0.0000 |       0.0000 |       0.0000 |       0.0000 |       0.0000 |       0.0000 |       0.0000 |       0.0000 |       0.0000 |       0.0000 |       0.0000 |       0.0000 |       0.0000 |       0.0000 |       0.0000 |       0.0000 |       0.0000 |       0.0000 |       0.0000 |       0.0000 |       0.0000 |       0.0000 |       0.0000 |       0.0000 |
il1.inv_rate                                0.0000 |       0.0000 |       0.0000 |       0.0000 |       0.0000 |       0.0000 |       0.0000 |       0.0000 |       0.0000 |       0.0000 |       0.0000 |       0.0000 |       0.0000 |       0.0000 |       0.0000 |       0.0000 |       0.0000 |       0.0000 |       0.0000 |       0.0000 |       0.0000 |       0.0000 |       0.0000 |       0.0000 |       0.0000 |       0.0000 |       0.0000 |       0.0000 |       0.0000 |       0.0000 |       0.0000 |       0.0000 |       0.0000 |       0.0000 |       0.0000 |       0.0000 |       0.0000 |       0.0000 |       0.0000 |       0.0000 |       0.0000 |       0.0000 |       0.0000 |       0.0000 |
dl1.accesses                                234558 |       234558 |       234558 |       234558 |       497474 |       497474 |       497474 |       497474 |      1056912 |      1056912 |      1056912 |      1056912 |      2238975 |      2238975 |      2238975 |      2238975 |      4738414 |      4738414 |      4738414 |      4738414 |      9993054 |      9993054 |      9993054 |      9993054 |     21040406 |     21040406 |     21040406 |     21040406 |     44151645 |     44151645 |     44151645 |     44151645 |     92548411 |     92548411 |     92548411 |     92548411 |    193382946 |    193382946 |    193382946 |    193382946 |    403729410 |    403729410 |    403729410 |    403729410 |
dl1.hits                                    226437 |       226437 |       226998 |       226998 |       477891 |       477891 |       478978 |       478978 |      1008311 |      1008311 |      1011640 |      1011640 |      2123202 |      2123202 |      2129623 |      2129623 |      4465793 |      4465793 |      4482350 |      4482350 |      9371486 |      9371486 |      9404135 |      9404135 |     19635657 |     19635657 |     19710085 |     19710085 |     41039866 |     41039866 |     41189579 |     41189579 |     85693743 |     85693743 |     86026370 |     86026370 |    178496843 |    178496843 |    179156876 |    179156876 |    371509178 |    371509178 |    372935852 |    372935852 |
dl1.misses                                    8121 |         8121 |         7560 |         7560 |        19583 |        19583 |        18496 |        18496 |        48601 |        48601 |        45272 |        45272 |       115773 |       115773 |       109352 |       109352 |       272621 |       272621 |       256064 |       256064 |       621568 |       621568 |       588919 |       588919 |      1404749 |      1404749 |      1330321 |      1330321 |      3111779 |      3111779 |      2962066 |      2962066 |      6854668 |      6854668 |      6522041 |      6522041 |     14886103 |     14886103 |     14226070 |     14226070 |     32220232 |     32220232 |     30793558 |     30793558 |
dl1.replacements                              7609 |         7609 |         7048 |         7048 |        19071 |        19071 |        17984 |        17984 |        48089 |        48089 |        44760 |        44760 |       115261 |       115261 |       108840 |       108840 |       272109 |       272109 |       255552 |       255552 |       621056 |       621056 |       588407 |       588407 |      1404237 |      1404237 |      1329809 |      1329809 |      3111267 |      3111267 |      2961554 |      2961554 |      6854156 |      6854156 |      6521529 |      6521529 |     14885591 |     14885591 |     14225558 |     14225558 |     32219720 |     32219720 |     30793046 |     30793046 |
dl1.writebacks                                6451 |         6451 |         5912 |         5912 |        16581 |        16581 |        15556 |        15556 |        42713 |        42713 |        39567 |        39567 |       104104 |       104104 |        98111 |        98111 |       249312 |       249312 |       233795 |       233795 |       574637 |       574637 |       544383 |       544383 |      1310127 |      1310127 |      1240942 |      1240942 |      2921524 |      2921524 |      2783178 |      2783178 |      6470157 |      6470157 |      6163684 |      6163684 |     14116141 |     14116141 |     13510751 |     13510751 |     30673111 |     30673111 |     29362308 |     29362308 |
dl1.invalidations                                0 |            0 |            0 |            0 |            0 |            0 |            0 |            0 |            0 |            0 |            0 |            0 |            0 |            0 |            0 |            0 |            0 |            0 |            0 |            0 |            0 |            0 |            0 |            0 |            0 |            0 |            0 |            0 |            0 |            0 |            0 |            0 |            0 |            0 |            0 |            0 |            0 |            0 |            0 |            0 |            0 |            0 |            0 |            0 |
dl1.miss_rate                               0.0346 |       0.0346 |       0.0322 |       0.0322 |       0.0394 |       0.0394 |       0.0372 |       0.0372 |       0.0460 |       0.0460 |       0.0428 |       0.0428 |       0.0517 |       0.0517 |       0.0488 |       0.0488 |       0.0575 |       0.0575 |       0.0540 |       0.0540 |       0.0622 |       0.0622 |       0.0589 |       0.0589 |       0.0668 |       0.0668 |       0.0632 |       0.0632 |       0.0705 |       0.0705 |       0.0671 |       0.0671 |       0.0741 |       0.0741 |       0.0705 |       0.0705 |       0.0770 |       0.0770 |       0.0736 |       0.0736 |       0.0798 |       0.0798 |       0.0763 |       0.0763 |
dl1.repl_rate                               0.0324 |       0.0324 |       0.0300 |       0.0300 |       0.0383 |       0.0383 |       0.0362 |       0.0362 |       0.0455 |       0.0455 |       0.0423 |       0.0423 |       0.0515 |       0.0515 |       0.0486 |       0.0486 |       0.0574 |       0.0574 |       0.0539 |       0.0539 |       0.0621 |       0.0621 |       0.0589 |       0.0589 |       0.0667 |       0.0667 |       0.0632 |       0.0632 |       0.0705 |       0.0705 |       0.0671 |       0.0671 |       0.0741 |       0.0741 |       0.0705 |       0.0705 |       0.0770 |       0.0770 |       0.0736 |       0.0736 |       0.0798 |       0.0798 |       0.0763 |       0.0763 |
dl1.wb_rate                                 0.0275 |       0.0275 |       0.0252 |       0.0252 |       0.0333 |       0.0333 |       0.0313 |       0.0313 |       0.0404 |       0.0404 |       0.0374 |       0.0374 |       0.0465 |       0.0465 |       0.0438 |       0.0438 |       0.0526 |       0.0526 |       0.0493 |       0.0493 |       0.0575 |       0.0575 |       0.0545 |       0.0545 |       0.0623 |       0.0623 |       0.0590 |       0.0590 |       0.0662 |       0.0662 |       0.0630 |       0.0630 |       0.0699 |       0.0699 |       0.0666 |       0.0666 |       0.0730 |       0.0730 |       0.0699 |       0.0699 |       0.0760 |       0.0760 |       0.0727 |       0.0727 |
dl1.inv_rate                                0.0000 |       0.0000 |       0.0000 |       0.0000 |       0.0000 |       0.0000 |       0.0000 |       0.0000 |       0.0000 |       0.0000 |       0.0000 |       0.0000 |       0.0000 |       0.0000 |       0.0000 |       0.0000 |       0.0000 |       0.0000 |       0.0000 |       0.0000 |       0.0000 |       0.0000 |       0.0000 |       0.0000 |       0.0000 |       0.0000 |       0.0000 |       0.0000 |       0.0000 |       0.0000 |       0.0000 |       0.0000 |       0.0000 |       0.0000 |       0.0000 |       0.0000 |       0.0000 |       0.0000 |       0.0000 |       0.0000 |       0.0000 |       0.0000 |       0.0000 |       0.0000 |
dl2.accesses                                 15498 |        15498 |        14242 |        14242 |        37144 |        37144 |        34811 |        34811 |        92293 |        92293 |        85599 |        85599 |       220856 |       220856 |       208222 |       208222 |       522912 |       522912 |       490618 |       490618 |      1197183 |      1197183 |      1134063 |      1134063 |      2715854 |      2715854 |      2572024 |      2572024 |      6034281 |      6034281 |      5746005 |      5746005 |     13325876 |     13325876 |     12686610 |     12686610 |     29003295 |     29003295 |     27737706 |     27737706 |     62894394 |     62894394 |     60156751 |     60156751 |
dl2.hits                                     11791 |        11791 |        10605 |        10605 |        31388 |        31388 |        29144 |        29144 |        82427 |        82427 |        75835 |        75835 |       202799 |       202799 |       190267 |       190267 |       488471 |       488471 |       456279 |       456279 |      1129971 |      1129971 |      1066954 |      1066954 |      2583104 |      2578096 |      2439379 |      2394832 |      5765453 |      5322602 |      5398829 |      5092223 |     11898416 |     11484521 |     11379813 |     10972767 |     25319712 |     24283241 |     24310553 |     23235558 |     53455102 |     50882617 |     51154243 |     48768044 |
dl2.misses                                    3707 |         3707 |         3637 |         3637 |         5756 |         5756 |         5667 |         5667 |         9866 |         9866 |         9764 |         9764 |        18057 |        18057 |        17955 |        17955 |        34441 |        34441 |        34339 |        34339 |        67212 |        67212 |        67109 |        67109 |       132750 |       137758 |       132645 |       177192 |       268828 |       711679 |       347176 |       653782 |      1427460 |      1841355 |      1306797 |      1713843 |      3683583 |      4720054 |      3427153 |      4502148 |      9439292 |     12011777 |      9002508 |     11388707 |
dl2.replacements                               466 |          466 |            0 |            0 |          456 |          456 |            0 |            0 |          514 |          514 |            0 |            0 |          514 |          514 |            0 |            0 |          514 |          514 |            0 |            0 |          515 |          515 |            0 |            0 |          517 |         8871 |            0 |        46120 |         8869 |       580607 |        85032 |       522710 |      1165316 |      1710283 |      1044653 |      1582771 |      3421439 |      4588982 |      3165009 |      4371076 |      9177148 |     11880705 |      8740364 |     11257635 |
dl2.writebacks                                 264 |          264 |            0 |            0 |          247 |          247 |            0 |            0 |          291 |          291 |            0 |            0 |          291 |          291 |            0 |            0 |          291 |          291 |            0 |            0 |          289 |          289 |            0 |            0 |          289 |         8643 |            0 |        44728 |         8643 |       453008 |        83640 |       389250 |       908444 |      1427590 |       778078 |      1295881 |      2857384 |      3972467 |      2592120 |      3749491 |      7945080 |     10568574 |      7497094 |      9939974 |
dl2.invalidations                                0 |            0 |            0 |            0 |            0 |            0 |            0 |            0 |            0 |            0 |            0 |            0 |            0 |            0 |            0 |            0 |            0 |            0 |            0 |            0 |            0 |            0 |            0 |            0 |            0 |            0 |            0 |            0 |            0 |            0 |            0 |            0 |            0 |            0 |            0 |            0 |            0 |            0 |            0 |            0 |            0 |            0 |            0 |            0 |
dl2.miss_rate                               0.2392 |       0.2392 |       0.2554 |       0.2554 |       0.1550 |       0.1550 |       0.1628 |       0.1628 |       0.1069 |       0.1069 |       0.1141 |       0.1141 |       0.0818 |       0.0818 |       0.0862 |       0.0862 |       0.0659 |       0.0659 |       0.0700 |       0.0700 |       0.0561 |       0.0561 |       0.0592 |       0.0592 |       0.0489 |       0.0507 |       0.0516 |       0.0689 |       0.0446 |       0.1179 |       0.0604 |       0.1138 |       0.1071 |       0.1382 |       0.1030 |       0.1351 |       0.1270 |       0.1627 |       0.1236 |       0.1623 |       0.1501 |       0.1910 |       0.1497 |       0.1893 |
dl2.repl_rate                               0.0301 |       0.0301 |       0.0000 |       0.0000 |       0.0123 |       0.0123 |       0.0000 |       0.0000 |       0.0056 |       0.0056 |       0.0000 |       0.0000 |       0.0023 |       0.0023 |       0.0000 |       0.0000 |       0.0010 |       0.0010 |       0.0000 |       0.0000 |       0.0004 |       0.0004 |       0.0000 |       0.0000 |       0.0002 |       0.0033 |       0.0000 |       0.0179 |       0.0015 |       0.0962 |       0.0148 |       0.0910 |       0.0874 |       0.1283 |       0.0823 |       0.1248 |       0.1180 |       0.1582 |       0.1141 |       0.1576 |       0.1459 |       0.1889 |       0.1453 |       0.1871 |
dl2.wb_rate                                 0.0170 |       0.0170 |       0.0000 |       0.0000 |       0.0066 |       0.0066 |       0.0000 |       0.0000 |       0.0032 |       0.0032 |       0.0000 |       0.0000 |       0.0013 |       0.0013 |       0.0000 |       0.0000 |       0.0006 |       0.0006 |       0.0000 |       0.0000 |       0.0002 |       0.0002 |       0.0000 |       0.0000 |       0.0001 |       0.0032 |       0.0000 |       0.0174 |       0.0014 |       0.0751 |       0.0146 |       0.0677 |       0.0682 |       0.1071 |       0.0613 |       0.1021 |       0.0985 |       0.1370 |       0.0935 |       0.1352 |       0.1263 |       0.1680 |       0.1246 |       0.1652 |
dl2.inv_rate                                0.0000 |       0.0000 |       0.0000 |       0.0000 |       0.0000 |       0.0000 |       0.0000 |       0.0000 |       0.0000 |       0.0000 |       0.0000 |       0.0000 |       0.0000 |       0.0000 |       0.0000 |       0.0000 |       0.0000 |       0.0000 |       0.0000 |       0.0000 |       0.0000 |       0.0000 |       0.0000 |       0.0000 |       0.0000 |       0.0000 |       0.0000 |       0.0000 |       0.0000 |       0.0000 |       0.0000 |       0.0000 |       0.0000 |       0.0000 |       0.0000 |       0.0000 |       0.0000 |       0.0000 |       0.0000 |       0.0000 |       0.0000 |       0.0000 |       0.0000 |       0.0000 |
itlb.accesses                               870970 |       870970 |       870970 |       870970 |      1868183 |      1868183 |      1868183 |      1868183 |      4003206 |      4003206 |      4003206 |      4003206 |      8531690 |      8531690 |      8531690 |      8531690 |     18152817 |     18152817 |     18152817 |     18152817 |     38444577 |     38444577 |     38444577 |     38444577 |     81265295 |     81265295 |     81265295 |     81265295 |    171080822 |    171080822 |    171080822 |    171080822 |    359742096 |    359742096 |    359742096 |    359742096 |    753706000 |    753706000 |    753706000 |    753706000 |   1577715453 |   1577715453 |   1577715453 |   1577715453 |
itlb.hits                                   870961 |       870961 |       870961 |       870961 |      1868174 |      1868174 |      1868174 |      1868174 |      4003197 |      4003197 |      4003197 |      4003197 |      8531681 |      8531681 |      8531681 |      8531681 |     18152808 |     18152808 |     18152808 |     18152808 |     38444568 |     38444568 |     38444568 |     38444568 |     81265286 |     81265286 |     81265286 |     81265286 |    171080813 |    171080813 |    171080813 |    171080813 |    359742087 |    359742087 |    359742087 |    359742087 |    753705991 |    753705991 |    753705991 |    753705991 |   1577715444 |   1577715444 |   1577715444 |   1577715444 |
itlb.misses                                      9 |            9 |            9 |            9 |            9 |            9 |            9 |            9 |            9 |            9 |            9 |            9 |            9 |            9 |            9 |            9 |            9 |            9 |            9 |            9 |            9 |            9 |            9 |            9 |            9 |            9 |            9 |            9 |            9 |            9 |            9 |            9 |            9 |            9 |            9 |            9 |            9 |            9 |            9 |            9 |            9 |            9 |            9 |            9 |
itlb.replacements                                0 |            0 |            0 |            0 |            0 |            0 |            0 |            0 |            0 |            0 |            0 |            0 |            0 |            0 |            0 |            0 |            0 |            0 |            0 |            0 |            0 |            0 |            0 |            0 |            0 |            0 |            0 |            0 |            0 |            0 |            0 |            0 |            0 |            0 |            0 |            0 |            0 |            0 |            0 |            0 |            0 |            0 |            0 |            0 |
itlb.writebacks                                  0 |            0 |            0 |            0 |            0 |            0 |            0 |            0 |            0 |            0 |            0 |            0 |            0 |            0 |            0 |            0 |            0 |            0 |            0 |            0 |            0 |            0 |            0 |            0 |            0 |            0 |            0 |            0 |            0 |            0 |            0 |            0 |            0 |            0 |            0 |            0 |            0 |            0 |            0 |            0 |            0 |            0 |            0 |            0 |
itlb.invalidations                               0 |            0 |            0 |            0 |            0 |            0 |            0 |            0 |            0 |            0 |            0 |            0 |            0 |            0 |            0 |            0 |            0 |            0 |            0 |            0 |            0 |            0 |            0 |            0 |            0 |            0 |            0 |            0 |            0 |            0 |            0 |            0 |            0 |            0 |            0 |            0 |            0 |            0 |            0 |            0 |            0 |            0 |            0 |            0 |
itlb.miss_rate                              0.0000 |       0.0000 |       0.0000 |       0.0000 |       0.0000 |       0.0000 |       0.0000 |       0.0000 |       0.0000 |       0.0000 |       0.0000 |       0.0000 |       0.0000 |       0.0000 |       0.0000 |       0.0000 |       0.0000 |       0.0000 |       0.0000 |       0.0000 |       0.0000 |       0.0000 |       0.0000 |       0.0000 |       0.0000 |       0.0000 |       0.0000 |       0.0000 |       0.0000 |       0.0000 |       0.0000 |       0.0000 |       0.0000 |       0.0000 |       0.0000 |       0.0000 |       0.0000 |       0.0000 |       0.0000 |       0.0000 |       0.0000 |       0.0000 |       0.0000 |       0.0000 |
itlb.repl_rate                              0.0000 |       0.0000 |       0.0000 |       0.0000 |       0.0000 |       0.0000 |       0.0000 |       0.0000 |       0.0000 |       0.0000 |       0.0000 |       0.0000 |       0.0000 |       0.0000 |       0.0000 |       0.0000 |       0.0000 |       0.0000 |       0.0000 |       0.0000 |       0.0000 |       0.0000 |       0.0000 |       0.0000 |       0.0000 |       0.0000 |       0.0000 |       0.0000 |       0.0000 |       0.0000 |       0.0000 |       0.0000 |       0.0000 |       0.0000 |       0.0000 |       0.0000 |       0.0000 |       0.0000 |       0.0000 |       0.0000 |       0.0000 |       0.0000 |       0.0000 |       0.0000 |
itlb.wb_rate                                0.0000 |       0.0000 |       0.0000 |       0.0000 |       0.0000 |       0.0000 |       0.0000 |       0.0000 |       0.0000 |       0.0000 |       0.0000 |       0.0000 |       0.0000 |       0.0000 |       0.0000 |       0.0000 |       0.0000 |       0.0000 |       0.0000 |       0.0000 |       0.0000 |       0.0000 |       0.0000 |       0.0000 |       0.0000 |       0.0000 |       0.0000 |       0.0000 |       0.0000 |       0.0000 |       0.0000 |       0.0000 |       0.0000 |       0.0000 |       0.0000 |       0.0000 |       0.0000 |       0.0000 |       0.0000 |       0.0000 |       0.0000 |       0.0000 |       0.0000 |       0.0000 |
itlb.inv_rate                               0.0000 |       0.0000 |       0.0000 |       0.0000 |       0.0000 |       0.0000 |       0.0000 |       0.0000 |       0.0000 |       0.0000 |       0.0000 |       0.0000 |       0.0000 |       0.0000 |       0.0000 |       0.0000 |       0.0000 |       0.0000 |       0.0000 |       0.0000 |       0.0000 |       0.0000 |       0.0000 |       0.0000 |       0.0000 |       0.0000 |       0.0000 |       0.0000 |       0.0000 |       0.0000 |       0.0000 |       0.0000 |       0.0000 |       0.0000 |       0.0000 |       0.0000 |       0.0000 |       0.0000 |       0.0000 |       0.0000 |       0.0000 |       0.0000 |       0.0000 |       0.0000 |
dtlb.accesses                               234558 |       234558 |       234558 |       234558 |       497474 |       497474 |       497474 |       497474 |      1056912 |      1056912 |      1056912 |      1056912 |      2238975 |      2238975 |      2238975 |      2238975 |      4738414 |      4738414 |      4738414 |      4738414 |      9993054 |      9993054 |      9993054 |      9993054 |     21040406 |     21040406 |     21040406 |     21040406 |     44151645 |     44151645 |     44151645 |     44151645 |     92548411 |     92548411 |     92548411 |     92548411 |    193382946 |    193382946 |    193382946 |    193382946 |    403729410 |    403729410 |    403729410 |    403729410 |
dtlb.hits                                   234542 |       234542 |       234542 |       234542 |       497450 |       497450 |       497450 |       497450 |      1056872 |      1056872 |      1056872 |      1056872 |      2238903 |      2238903 |      2238903 |      2238903 |      4738267 |      4738267 |      4738267 |      4738267 |      9992253 |      9992253 |      9992253 |      9992253 |     20983128 |     20983128 |     20983128 |     20983128 |     43801935 |     43801935 |     43801935 |     43801935 |     91255174 |     91255174 |     91255174 |     91255174 |    189530295 |    189530295 |    189530295 |    189530295 |    393430848 |    393430848 |    393430848 |    393430848 |
dtlb.misses                                     16 |           16 |           16 |           16 |           24 |           24 |           24 |           24 |           40 |           40 |           40 |           40 |           72 |           72 |           72 |           72 |          147 |          147 |          147 |          147 |          801 |          801 |          801 |          801 |        57278 |        57278 |        57278 |        57278 |       349710 |       349710 |       349710 |       349710 |      1293237 |      1293237 |      1293237 |      1293237 |      3852651 |      3852651 |      3852651 |      3852651 |     10298562 |     10298562 |     10298562 |     10298562 |
dtlb.replacements                                0 |            0 |            0 |            0 |            0 |            0 |            0 |            0 |            0 |            0 |            0 |            0 |            0 |            0 |            0 |            0 |           19 |           19 |           19 |           19 |          673 |          673 |          673 |          673 |        57150 |        57150 |        57150 |        57150 |       349582 |       349582 |       349582 |       349582 |      1293109 |      1293109 |      1293109 |      1293109 |      3852523 |      3852523 |      3852523 |      3852523 |     10298434 |     10298434 |     10298434 |     10298434 |
dtlb.writebacks                                  0 |            0 |            0 |            0 |            0 |            0 |            0 |            0 |            0 |            0 |            0 |            0 |            0 |            0 |            0 |            0 |           16 |           16 |           16 |           16 |          548 |          548 |          548 |          548 |        54108 |        54108 |        54108 |        54108 |       330756 |       330756 |       330756 |       330756 |      1233297 |      1233297 |      1233297 |      1233297 |      3703294 |      3703294 |      3703294 |      3703294 |      9962279 |      9962279 |      9962279 |      9962279 |
dtlb.invalidations                               0 |            0 |            0 |            0 |            0 |            0 |            0 |            0 |            0 |            0 |            0 |            0 |            0 |            0 |            0 |            0 |            0 |            0 |            0 |            0 |            0 |            0 |            0 |            0 |            0 |            0 |            0 |            0 |            0 |            0 |            0 |            0 |            0 |            0 |            0 |            0 |            0 |            0 |            0 |            0 |            0 |            0 |            0 |            0 |
dtlb.miss_rate                              0.0001 |       0.0001 |       0.0001 |       0.0001 |       0.0000 |       0.0000 |       0.0000 |       0.0000 |       0.0000 |       0.0000 |       0.0000 |       0.0000 |       0.0000 |       0.0000 |       0.0000 |       0.0000 |       0.0000 |       0.0000 |       0.0000 |       0.0000 |       0.0001 |       0.0001 |       0.0001 |       0.0001 |       0.0027 |       0.0027 |       0.0027 |       0.0027 |       0.0079 |       0.0079 |       0.0079 |       0.0079 |       0.0140 |       0.0140 |       0.0140 |       0.0140 |       0.0199 |       0.0199 |       0.0199 |       0.0199 |       0.0255 |       0.0255 |       0.0255 |       0.0255 |
dtlb.repl_rate                              0.0000 |       0.0000 |       0.0000 |       0.0000 |       0.0000 |       0.0000 |       0.0000 |       0.0000 |       0.0000 |       0.0000 |       0.0000 |       0.0000 |       0.0000 |       0.0000 |       0.0000 |       0.0000 |       0.0000 |       0.0000 |       0.0000 |       0.0000 |       0.0001 |       0.0001 |       0.0001 |       0.0001 |       0.0027 |       0.0027 |       0.0027 |       0.0027 |       0.0079 |       0.0079 |       0.0079 |       0.0079 |       0.0140 |       0.0140 |       0.0140 |       0.0140 |       0.0199 |       0.0199 |       0.0199 |       0.0199 |       0.0255 |       0.0255 |       0.0255 |       0.0255 |
dtlb.wb_rate                                0.0000 |       0.0000 |       0.0000 |       0.0000 |       0.0000 |       0.0000 |       0.0000 |       0.0000 |       0.0000 |       0.0000 |       0.0000 |       0.0000 |       0.0000 |       0.0000 |       0.0000 |       0.0000 |       0.0000 |       0.0000 |       0.0000 |       0.0000 |       0.0001 |       0.0001 |       0.0001 |       0.0001 |       0.0026 |       0.0026 |       0.0026 |       0.0026 |       0.0075 |       0.0075 |       0.0075 |       0.0075 |       0.0133 |       0.0133 |       0.0133 |       0.0133 |       0.0192 |       0.0192 |       0.0192 |       0.0192 |       0.0247 |       0.0247 |       0.0247 |       0.0247 |
dtlb.inv_rate                               0.0000 |       0.0000 |       0.0000 |       0.0000 |       0.0000 |       0.0000 |       0.0000 |       0.0000 |       0.0000 |       0.0000 |       0.0000 |       0.0000 |       0.0000 |       0.0000 |       0.0000 |       0.0000 |       0.0000 |       0.0000 |       0.0000 |       0.0000 |       0.0000 |       0.0000 |       0.0000 |       0.0000 |       0.0000 |       0.0000 |       0.0000 |       0.0000 |       0.0000 |       0.0000 |       0.0000 |       0.0000 |       0.0000 |       0.0000 |       0.0000 |       0.0000 |       0.0000 |       0.0000 |       0.0000 |       0.0000 |       0.0000 |       0.0000 |       0.0000 |       0.0000 |
ld_text_base                            0x00400000 |   0x00400000 |   0x00400000 |   0x00400000 |   0x00400000 |   0x00400000 |   0x00400000 |   0x00400000 |   0x00400000 |   0x00400000 |   0x00400000 |   0x00400000 |   0x00400000 |   0x00400000 |   0x00400000 |   0x00400000 |   0x00400000 |   0x00400000 |   0x00400000 |   0x00400000 |   0x00400000 |   0x00400000 |   0x00400000 |   0x00400000 |   0x00400000 |   0x00400000 |   0x00400000 |   0x00400000 |   0x00400000 |   0x00400000 |   0x00400000 |   0x00400000 |   0x00400000 |   0x00400000 |   0x00400000 |   0x00400000 |   0x00400000 |   0x00400000 |   0x00400000 |   0x00400000 |   0x00400000 |   0x00400000 |   0x00400000 |   0x00400000 |
ld_text_size                                 74304 |        74304 |        74304 |        74304 |        74336 |        74336 |        74336 |        74336 |        74352 |        74352 |        74352 |        74352 |        74352 |        74352 |        74352 |        74352 |        74352 |        74352 |        74352 |        74352 |        74368 |        74368 |        74368 |        74368 |        74368 |        74368 |        74368 |        74368 |        74368 |        74368 |        74368 |        74368 |        74368 |        74368 |        74368 |        74368 |        74368 |        74368 |        74368 |        74368 |        74368 |        74368 |        74368 |        74368 |
ld_data_base                            0x10000000 |   0x10000000 |   0x10000000 |   0x10000000 |   0x10000000 |   0x10000000 |   0x10000000 |   0x10000000 |   0x10000000 |   0x10000000 |   0x10000000 |   0x10000000 |   0x10000000 |   0x10000000 |   0x10000000 |   0x10000000 |   0x10000000 |   0x10000000 |   0x10000000 |   0x10000000 |   0x10000000 |   0x10000000 |   0x10000000 |   0x10000000 |   0x10000000 |   0x10000000 |   0x10000000 |   0x10000000 |   0x10000000 |   0x10000000 |   0x10000000 |   0x10000000 |   0x10000000 |   0x10000000 |   0x10000000 |   0x10000000 |   0x10000000 |   0x10000000 |   0x10000000 |   0x10000000 |   0x10000000 |   0x10000000 |   0x10000000 |   0x10000000 |
ld_data_size                                  8192 |         8192 |         8192 |         8192 |         8192 |         8192 |         8192 |         8192 |         8192 |         8192 |         8192 |         8192 |         8192 |         8192 |         8192 |         8192 |         8192 |         8192 |         8192 |         8192 |         8192 |         8192 |         8192 |         8192 |         8192 |         8192 |         8192 |         8192 |         8192 |         8192 |         8192 |         8192 |         8192 |         8192 |         8192 |         8192 |         8192 |         8192 |         8192 |         8192 |         8192 |         8192 |         8192 |         8192 |
ld_stack_base                           0x7fffc000 |   0x7fffc000 |   0x7fffc000 |   0x7fffc000 |   0x7fffc000 |   0x7fffc000 |   0x7fffc000 |   0x7fffc000 |   0x7fffc000 |   0x7fffc000 |   0x7fffc000 |   0x7fffc000 |   0x7fffc000 |   0x7fffc000 |   0x7fffc000 |   0x7fffc000 |   0x7fffc000 |   0x7fffc000 |   0x7fffc000 |   0x7fffc000 |   0x7fffc000 |   0x7fffc000 |   0x7fffc000 |   0x7fffc000 |   0x7fffc000 |   0x7fffc000 |   0x7fffc000 |   0x7fffc000 |   0x7fffc000 |   0x7fffc000 |   0x7fffc000 |   0x7fffc000 |   0x7fffc000 |   0x7fffc000 |   0x7fffc000 |   0x7fffc000 |   0x7fffc000 |   0x7fffc000 |   0x7fffc000 |   0x7fffc000 |   0x7fffc000 |   0x7fffc000 |   0x7fffc000 |   0x7fffc000 |
ld_stack_size                                16384 |        16384 |        16384 |        16384 |        16384 |        16384 |        16384 |        16384 |        16384 |        16384 |        16384 |        16384 |        16384 |        16384 |        16384 |        16384 |        16384 |        16384 |        16384 |        16384 |        16384 |        16384 |        16384 |        16384 |        16384 |        16384 |        16384 |        16384 |        16384 |        16384 |        16384 |        16384 |        16384 |        16384 |        16384 |        16384 |        16384 |        16384 |        16384 |        16384 |        16384 |        16384 |        16384 |        16384 |
ld_prog_entry                           0x00400140 |   0x00400140 |   0x00400140 |   0x00400140 |   0x00400140 |   0x00400140 |   0x00400140 |   0x00400140 |   0x00400140 |   0x00400140 |   0x00400140 |   0x00400140 |   0x00400140 |   0x00400140 |   0x00400140 |   0x00400140 |   0x00400140 |   0x00400140 |   0x00400140 |   0x00400140 |   0x00400140 |   0x00400140 |   0x00400140 |   0x00400140 |   0x00400140 |   0x00400140 |   0x00400140 |   0x00400140 |   0x00400140 |   0x00400140 |   0x00400140 |   0x00400140 |   0x00400140 |   0x00400140 |   0x00400140 |   0x00400140 |   0x00400140 |   0x00400140 |   0x00400140 |   0x00400140 |   0x00400140 |   0x00400140 |   0x00400140 |   0x00400140 |
ld_environ_base                         0x7fff8000 |   0x7fff8000 |   0x7fff8000 |   0x7fff8000 |   0x7fff8000 |   0x7fff8000 |   0x7fff8000 |   0x7fff8000 |   0x7fff8000 |   0x7fff8000 |   0x7fff8000 |   0x7fff8000 |   0x7fff8000 |   0x7fff8000 |   0x7fff8000 |   0x7fff8000 |   0x7fff8000 |   0x7fff8000 |   0x7fff8000 |   0x7fff8000 |   0x7fff8000 |   0x7fff8000 |   0x7fff8000 |   0x7fff8000 |   0x7fff8000 |   0x7fff8000 |   0x7fff8000 |   0x7fff8000 |   0x7fff8000 |   0x7fff8000 |   0x7fff8000 |   0x7fff8000 |   0x7fff8000 |   0x7fff8000 |   0x7fff8000 |   0x7fff8000 |   0x7fff8000 |   0x7fff8000 |   0x7fff8000 |   0x7fff8000 |   0x7fff8000 |   0x7fff8000 |   0x7fff8000 |   0x7fff8000 |
ld_target_big_endian                             0 |            0 |            0 |            0 |            0 |            0 |            0 |            0 |            0 |            0 |            0 |            0 |            0 |            0 |            0 |            0 |            0 |            0 |            0 |            0 |            0 |            0 |            0 |            0 |            0 |            0 |            0 |            0 |            0 |            0 |            0 |            0 |            0 |            0 |            0 |            0 |            0 |            0 |            0 |            0 |            0 |            0 |            0 |            0 |
mem.page_count                                  35 |           35 |           35 |           35 |           43 |           43 |           43 |           43 |           59 |           59 |           59 |           59 |           91 |           91 |           91 |           91 |          155 |          155 |          155 |          155 |          283 |          283 |          283 |          283 |          539 |          539 |          539 |          539 |         1051 |         1051 |         1051 |         1051 |         2081 |         2081 |         2081 |         2081 |         4135 |         4135 |         4135 |         4135 |         8243 |         8243 |         8243 |         8243 |
mem.page_mem                                  140k |         140k |         140k |         140k |         172k |         172k |         172k |         172k |         236k |         236k |         236k |         236k |         364k |         364k |         364k |         364k |         620k |         620k |         620k |         620k |        1132k |        1132k |        1132k |        1132k |        2156k |        2156k |        2156k |        2156k |        4204k |        4204k |        4204k |        4204k |        8324k |        8324k |        8324k |        8324k |       16540k |       16540k |       16540k |       16540k |       32972k |       32972k |       32972k |       32972k |
mem.ptab_misses                                 35 |           35 |           35 |           35 |           43 |           43 |           43 |           43 |           59 |           59 |           59 |           59 |           91 |           91 |           91 |           91 |          155 |          155 |          155 |          155 |          283 |          283 |          283 |          283 |          539 |          539 |          539 |          539 |         1051 |         1051 |         1051 |         1051 |         9156 |         9156 |         9156 |         9156 |        22666 |        22666 |        22666 |        22666 |        64716 |        64716 |        64716 |        64716 |
mem.ptab_accesses                          4413408 |      4413408 |      4413408 |      4413408 |      8928284 |      8928284 |      8928284 |      8928284 |     18587348 |     18587348 |     18587348 |     18587348 |     39065410 |     39065410 |     39065410 |     39065410 |     82548796 |     82548796 |     82548796 |     82548796 |    174225212 |    174225212 |    174225212 |    174225212 |    367602788 |    367602788 |    367602788 |    367602788 |    773087374 |    773087374 |    773087374 |    773087374 |   1624526002 |   1624526002 |   1624526002 |   1624526002 |   3402050688 |   3402050688 |   3402050688 |   3402050688 |   7118781428 |   7118781428 |   7118781428 |   7118781428 |
mem.ptab_miss_rate                          0.0000 |       0.0000 |       0.0000 |       0.0000 |       0.0000 |       0.0000 |       0.0000 |       0.0000 |       0.0000 |       0.0000 |       0.0000 |       0.0000 |       0.0000 |       0.0000 |       0.0000 |       0.0000 |       0.0000 |       0.0000 |       0.0000 |       0.0000 |       0.0000 |       0.0000 |       0.0000 |       0.0000 |       0.0000 |       0.0000 |       0.0000 |       0.0000 |       0.0000 |       0.0000 |       0.0000 |       0.0000 |       0.0000 |       0.0000 |       0.0000 |       0.0000 |       0.0000 |       0.0000 |       0.0000 |       0.0000 |       0.0000 |       0.0000 |       0.0000 |       0.0000 |
-------------------------------------------------------------------------------------------------
sim-bpred                                     4096 |         4096 |         4096 |         4096 |         4096 |         4096 |         4096 |         8192 |         8192 |         8192 |         8192 |         8192 |         8192 |         8192 |        16384 |        16384 |        16384 |        16384 |        16384 |        16384 |        16384 |        32768 |        32768 |        32768 |        32768 |        32768 |        32768 |        32768 |        65536 |        65536 |        65536 |        65536 |        65536 |        65536 |        65536 |       131072 |       131072 |       131072 |       131072 |       131072 |       131072 |       131072 |       262144 |       262144 |       262144 |       262144 |       262144 |       262144 |       262144 |       524288 |       524288 |       524288 |       524288 |       524288 |       524288 |       524288 |      1048576 |      1048576 |      1048576 |      1048576 |      1048576 |      1048576 |      1048576 |      2097152 |      2097152 |      2097152 |      2097152 |      2097152 |      2097152 |      2097152 |      4194304 |      4194304 |      4194304 |      4194304 |      4194304 |      4194304 |      4194304 |
-bpred bimod -bpred:bimod 512
-bpred bimod -bpred:bimod 1024
-bpred bimod -bpred:bimod 2048
-bpred 2lev -bpred:2lev 1 512 10 1
-bpred 2lev -bpred:2lev 1 1024 10 1
-bpred 2lev -bpred:2lev 1 2048 10 1
-bpred 2lev -bpred:2lev 1 4096 10 1
-------------------------------------------------------------------------------------------------
sim_num_insn                                870970 |       870970 |       870970 |       870970 |       870970 |       870970 |       870970 |      1868183 |      1868183 |      1868183 |      1868183 |      1868183 |      1868183 |      1868183 |      4003206 |      4003206 |      4003206 |      4003206 |      4003206 |      4003206 |      4003206 |      8531690 |      8531690 |      8531690 |      8531690 |      8531690 |      8531690 |      8531690 |     18152817 |     18152817 |     18152817 |     18152817 |     18152817 |     18152817 |     18152817 |     38444577 |     38444577 |     38444577 |     38444577 |     38444577 |     38444577 |     38444577 |     81265295 |     81265295 |     81265295 |     81265295 |     81265295 |     81265295 |     81265295 |    171080822 |    171080822 |    171080822 |    171080822 |    171080822 |    171080822 |    171080822 |    359742096 |    359742096 |    359742096 |    359742096 |    359742096 |    359742096 |    359742096 |    753706000 |    753706000 |    753706000 |    753706000 |    753706000 |    753706000 |    753706000 |   1577715453 |   1577715453 |   1577715453 |   1577715453 |   1577715453 |   1577715453 |   1577715453 |
sim_num_refs                                218092 |       218092 |       218092 |       218092 |       218092 |       218092 |       218092 |       464624 |       464624 |       464624 |       464624 |       464624 |       464624 |       464624 |       991294 |       991294 |       991294 |       991294 |       991294 |       991294 |       991294 |      2107821 |      2107821 |      2107821 |      2107821 |      2107821 |      2107821 |      2107821 |      4476188 |      4476188 |      4476188 |      4476188 |      4476188 |      4476188 |      4476188 |      9468684 |      9468684 |      9468684 |      9468684 |      9468684 |      9468684 |      9468684 |     19991748 |     19991748 |     19991748 |     19991748 |     19991748 |     19991748 |     19991748 |     42054411 |     42054411 |     42054411 |     42054411 |     42054411 |     42054411 |     42054411 |     88354025 |     88354025 |     88354025 |     88354025 |     88354025 |     88354025 |     88354025 |    184994256 |    184994256 |    184994256 |    184994256 |    184994256 |    184994256 |    184994256 |    386952112 |    386952112 |    386952112 |    386952112 |    386952112 |    386952112 |    386952112 |
sim_elapsed_time                                 1 |            1 |            1 |            1 |            1 |            1 |            1 |            1 |            1 |            1 |            1 |            1 |            1 |            1 |            1 |            1 |            1 |            1 |            1 |            1 |            1 |            1 |            1 |            1 |            1 |            1 |            1 |            1 |            2 |            3 |            2 |            2 |            2 |            3 |            2 |            5 |            4 |            5 |            5 |            4 |            5 |            5 |           10 |           10 |           10 |           10 |           10 |           10 |           10 |           20 |           21 |           21 |           21 |           21 |           21 |           21 |           43 |           44 |           44 |           44 |           44 |           44 |           44 |           91 |           92 |           91 |           92 |           94 |           93 |           92 |          189 |          188 |          190 |          194 |          193 |          191 |          193 |
sim_inst_rate                          870970.0000 |  870970.0000 |  870970.0000 |  870970.0000 |  870970.0000 |  870970.0000 |  870970.0000 | 1868183.0000 | 1868183.0000 | 1868183.0000 | 1868183.0000 | 1868183.0000 | 1868183.0000 | 1868183.0000 | 4003206.0000 | 4003206.0000 | 4003206.0000 | 4003206.0000 | 4003206.0000 | 4003206.0000 | 4003206.0000 | 8531690.0000 | 8531690.0000 | 8531690.0000 | 8531690.0000 | 8531690.0000 | 8531690.0000 | 8531690.0000 | 9076408.5000 | 6050939.0000 | 9076408.5000 | 9076408.5000 | 9076408.5000 | 6050939.0000 | 9076408.5000 | 7688915.4000 | 9611144.2500 | 7688915.4000 | 7688915.4000 | 9611144.2500 | 7688915.4000 | 7688915.4000 | 8126529.5000 | 8126529.5000 | 8126529.5000 | 8126529.5000 | 8126529.5000 | 8126529.5000 | 8126529.5000 | 8554041.1000 | 8146705.8095 | 8146705.8095 | 8146705.8095 | 8146705.8095 | 8146705.8095 | 8146705.8095 | 8366095.2558 | 8175956.7273 | 8175956.7273 | 8175956.7273 | 8175956.7273 | 8175956.7273 | 8175956.7273 | 8282483.5165 | 8192456.5217 | 8282483.5165 | 8192456.5217 | 8018148.9362 | 8104365.5914 | 8192456.5217 | 8347700.8095 | 8392103.4734 | 8303765.5421 | 8132553.8814 | 8174691.4663 | 8260290.3298 | 8174691.4663 |
sim_num_branches                            155054 |       155054 |       155054 |       155054 |       155054 |       155054 |       155054 |       333516 |       333516 |       333516 |       333516 |       333516 |       333516 |       333516 |       715558 |       715558 |       715558 |       715558 |       715558 |       715558 |       715558 |      1527082 |      1527082 |      1527082 |      1527082 |      1527082 |      1527082 |      1527082 |      3251479 |      3251479 |      3251479 |      3251479 |      3251479 |      3251479 |      3251479 |      6892657 |      6892657 |      6892657 |      6892657 |      6892657 |      6892657 |      6892657 |     14577387 |     14577387 |     14577387 |     14577387 |     14577387 |     14577387 |     14577387 |     30709988 |     30709988 |     30709988 |     30709988 |     30709988 |     30709988 |     30709988 |     64600234 |     64600234 |     64600234 |     64600234 |     64600234 |     64600234 |     64600234 |    135421070 |    135421070 |    135421070 |    135421070 |    135421070 |    135421070 |    135421070 |    283567379 |    283567379 |    283567379 |    283567379 |    283567379 |    283567379 |    283567379 |
sim_IPB                                     5.6172 |       5.6172 |       5.6172 |       5.6172 |       5.6172 |       5.6172 |       5.6172 |       5.6015 |       5.6015 |       5.6015 |       5.6015 |       5.6015 |       5.6015 |       5.6015 |       5.5945 |       5.5945 |       5.5945 |       5.5945 |       5.5945 |       5.5945 |       5.5945 |       5.5869 |       5.5869 |       5.5869 |       5.5869 |       5.5869 |       5.5869 |       5.5869 |       5.5829 |       5.5829 |       5.5829 |       5.5829 |       5.5829 |       5.5829 |       5.5829 |       5.5776 |       5.5776 |       5.5776 |       5.5776 |       5.5776 |       5.5776 |       5.5776 |       5.5748 |       5.5748 |       5.5748 |       5.5748 |       5.5748 |       5.5748 |       5.5748 |       5.5709 |       5.5709 |       5.5709 |       5.5709 |       5.5709 |       5.5709 |       5.5709 |       5.5687 |       5.5687 |       5.5687 |       5.5687 |       5.5687 |       5.5687 |       5.5687 |       5.5656 |       5.5656 |       5.5656 |       5.5656 |       5.5656 |       5.5656 |       5.5656 |       5.5638 |       5.5638 |       5.5638 |       5.5638 |       5.5638 |       5.5638 |       5.5638 |
bpred_bimod.lookups                         155054 |       155054 |       155054 |xxxxxxxxxxxxx |xxxxxxxxxxxxx |xxxxxxxxxxxxx |xxxxxxxxxxxxx |       333516 |       333516 |       333516 |xxxxxxxxxxxxx |xxxxxxxxxxxxx |xxxxxxxxxxxxx |xxxxxxxxxxxxx |       715558 |       715558 |       715558 |xxxxxxxxxxxxx |xxxxxxxxxxxxx |xxxxxxxxxxxxx |xxxxxxxxxxxxx |      1527082 |      1527082 |      1527082 |xxxxxxxxxxxxx |xxxxxxxxxxxxx |xxxxxxxxxxxxx |xxxxxxxxxxxxx |      3251479 |      3251479 |      3251479 |xxxxxxxxxxxxx |xxxxxxxxxxxxx |xxxxxxxxxxxxx |xxxxxxxxxxxxx |      6892657 |      6892657 |      6892657 |xxxxxxxxxxxxx |xxxxxxxxxxxxx |xxxxxxxxxxxxx |xxxxxxxxxxxxx |     14577387 |     14577387 |     14577387 |xxxxxxxxxxxxx |xxxxxxxxxxxxx |xxxxxxxxxxxxx |xxxxxxxxxxxxx |     30709988 |     30709988 |     30709988 |xxxxxxxxxxxxx |xxxxxxxxxxxxx |xxxxxxxxxxxxx |xxxxxxxxxxxxx |     64600234 |     64600234 |     64600234 |xxxxxxxxxxxxx |xxxxxxxxxxxxx |xxxxxxxxxxxxx |xxxxxxxxxxxxx |    135421070 |    135421070 |    135421070 |xxxxxxxxxxxxx |xxxxxxxxxxxxx |xxxxxxxxxxxxx |xxxxxxxxxxxxx |    283567379 |    283567379 |    283567379 |
bpred_bimod.updates                         155054 |       155054 |       155054 |xxxxxxxxxxxxx |xxxxxxxxxxxxx |xxxxxxxxxxxxx |xxxxxxxxxxxxx |       333516 |       333516 |       333516 |xxxxxxxxxxxxx |xxxxxxxxxxxxx |xxxxxxxxxxxxx |xxxxxxxxxxxxx |       715558 |       715558 |       715558 |xxxxxxxxxxxxx |xxxxxxxxxxxxx |xxxxxxxxxxxxx |xxxxxxxxxxxxx |      1527082 |      1527082 |      1527082 |xxxxxxxxxxxxx |xxxxxxxxxxxxx |xxxxxxxxxxxxx |xxxxxxxxxxxxx |      3251479 |      3251479 |      3251479 |xxxxxxxxxxxxx |xxxxxxxxxxxxx |xxxxxxxxxxxxx |xxxxxxxxxxxxx |      6892657 |      6892657 |      6892657 |xxxxxxxxxxxxx |xxxxxxxxxxxxx |xxxxxxxxxxxxx |xxxxxxxxxxxxx |     14577387 |     14577387 |     14577387 |xxxxxxxxxxxxx |xxxxxxxxxxxxx |xxxxxxxxxxxxx |xxxxxxxxxxxxx |     30709988 |     30709988 |     30709988 |xxxxxxxxxxxxx |xxxxxxxxxxxxx |xxxxxxxxxxxxx |xxxxxxxxxxxxx |     64600234 |     64600234 |     64600234 |xxxxxxxxxxxxx |xxxxxxxxxxxxx |xxxxxxxxxxxxx |xxxxxxxxxxxxx |    135421070 |    135421070 |    135421070 |xxxxxxxxxxxxx |xxxxxxxxxxxxx |xxxxxxxxxxxxx |xxxxxxxxxxxxx |    283567379 |    283567379 |    283567379 |
bpred_bimod.addr_hits                       124112 |       124120 |       124120 |xxxxxxxxxxxxx |xxxxxxxxxxxxx |xxxxxxxxxxxxx |xxxxxxxxxxxxx |       266946 |       266952 |       266952 |xxxxxxxxxxxxx |xxxxxxxxxxxxx |xxxxxxxxxxxxx |xxxxxxxxxxxxx |       573188 |       573193 |       573195 |xxxxxxxxxxxxx |xxxxxxxxxxxxx |xxxxxxxxxxxxx |xxxxxxxxxxxxx |      1221799 |      1221805 |      1221806 |xxxxxxxxxxxxx |xxxxxxxxxxxxx |xxxxxxxxxxxxx |xxxxxxxxxxxxx |      2602962 |      2602968 |      2602969 |xxxxxxxxxxxxx |xxxxxxxxxxxxx |xxxxxxxxxxxxx |xxxxxxxxxxxxx |      5513921 |      5513927 |      5513930 |xxxxxxxxxxxxx |xxxxxxxxxxxxx |xxxxxxxxxxxxx |xxxxxxxxxxxxx |     11670006 |     11670012 |     11670015 |xxxxxxxxxxxxx |xxxxxxxxxxxxx |xxxxxxxxxxxxx |xxxxxxxxxxxxx |     24565866 |     24565872 |     24565875 |xxxxxxxxxxxxx |xxxxxxxxxxxxx |xxxxxxxxxxxxx |xxxxxxxxxxxxx |     51707918 |     51707923 |     51707925 |xxxxxxxxxxxxx |xxxxxxxxxxxxx |xxxxxxxxxxxxx |xxxxxxxxxxxxx |    108309964 |    108309969 |    108309971 |xxxxxxxxxxxxx |xxxxxxxxxxxxx |xxxxxxxxxxxxx |xxxxxxxxxxxxx |    226958480 |    226958485 |    226958487 |
bpred_bimod.dir_hits                        124233 |       124241 |       124242 |xxxxxxxxxxxxx |xxxxxxxxxxxxx |xxxxxxxxxxxxx |xxxxxxxxxxxxx |       267073 |       267079 |       267079 |xxxxxxxxxxxxx |xxxxxxxxxxxxx |xxxxxxxxxxxxx |xxxxxxxxxxxxx |       573315 |       573320 |       573322 |xxxxxxxxxxxxx |xxxxxxxxxxxxx |xxxxxxxxxxxxx |xxxxxxxxxxxxx |      1221927 |      1221933 |      1221934 |xxxxxxxxxxxxx |xxxxxxxxxxxxx |xxxxxxxxxxxxx |xxxxxxxxxxxxx |      2603090 |      2603096 |      2603097 |xxxxxxxxxxxxx |xxxxxxxxxxxxx |xxxxxxxxxxxxx |xxxxxxxxxxxxx |      5514047 |      5514054 |      5514057 |xxxxxxxxxxxxx |xxxxxxxxxxxxx |xxxxxxxxxxxxx |xxxxxxxxxxxxx |     11670131 |     11670138 |     11670141 |xxxxxxxxxxxxx |xxxxxxxxxxxxx |xxxxxxxxxxxxx |xxxxxxxxxxxxx |     24565992 |     24565999 |     24566002 |xxxxxxxxxxxxx |xxxxxxxxxxxxx |xxxxxxxxxxxxx |xxxxxxxxxxxxx |     51708055 |     51708061 |     51708063 |xxxxxxxxxxxxx |xxxxxxxxxxxxx |xxxxxxxxxxxxx |xxxxxxxxxxxxx |    108310102 |    108310108 |    108310110 |xxxxxxxxxxxxx |xxxxxxxxxxxxx |xxxxxxxxxxxxx |xxxxxxxxxxxxx |    226958618 |    226958624 |    226958626 |
bpred_bimod.misses                           30821 |        30813 |        30812 |xxxxxxxxxxxxx |xxxxxxxxxxxxx |xxxxxxxxxxxxx |xxxxxxxxxxxxx |        66443 |        66437 |        66437 |xxxxxxxxxxxxx |xxxxxxxxxxxxx |xxxxxxxxxxxxx |xxxxxxxxxxxxx |       142243 |       142238 |       142236 |xxxxxxxxxxxxx |xxxxxxxxxxxxx |xxxxxxxxxxxxx |xxxxxxxxxxxxx |       305155 |       305149 |       305148 |xxxxxxxxxxxxx |xxxxxxxxxxxxx |xxxxxxxxxxxxx |xxxxxxxxxxxxx |       648389 |       648383 |       648382 |xxxxxxxxxxxxx |xxxxxxxxxxxxx |xxxxxxxxxxxxx |xxxxxxxxxxxxx |      1378610 |      1378603 |      1378600 |xxxxxxxxxxxxx |xxxxxxxxxxxxx |xxxxxxxxxxxxx |xxxxxxxxxxxxx |      2907256 |      2907249 |      2907246 |xxxxxxxxxxxxx |xxxxxxxxxxxxx |xxxxxxxxxxxxx |xxxxxxxxxxxxx |      6143996 |      6143989 |      6143986 |xxxxxxxxxxxxx |xxxxxxxxxxxxx |xxxxxxxxxxxxx |xxxxxxxxxxxxx |     12892179 |     12892173 |     12892171 |xxxxxxxxxxxxx |xxxxxxxxxxxxx |xxxxxxxxxxxxx |xxxxxxxxxxxxx |     27110968 |     27110962 |     27110960 |xxxxxxxxxxxxx |xxxxxxxxxxxxx |xxxxxxxxxxxxx |xxxxxxxxxxxxx |     56608761 |     56608755 |     56608753 |
bpred_bimod.jr_hits                           4157 |         4157 |         4157 |xxxxxxxxxxxxx |xxxxxxxxxxxxx |xxxxxxxxxxxxx |xxxxxxxxxxxxx |         8261 |         8261 |         8261 |xxxxxxxxxxxxx |xxxxxxxxxxxxx |xxxxxxxxxxxxx |xxxxxxxxxxxxx |        16453 |        16453 |        16453 |xxxxxxxxxxxxx |xxxxxxxxxxxxx |xxxxxxxxxxxxx |xxxxxxxxxxxxx |        32837 |        32837 |        32837 |xxxxxxxxxxxxx |xxxxxxxxxxxxx |xxxxxxxxxxxxx |xxxxxxxxxxxxx |        65605 |        65605 |        65605 |xxxxxxxxxxxxx |xxxxxxxxxxxxx |xxxxxxxxxxxxx |xxxxxxxxxxxxx |       131141 |       131141 |       131141 |xxxxxxxxxxxxx |xxxxxxxxxxxxx |xxxxxxxxxxxxx |xxxxxxxxxxxxx |       262213 |       262213 |       262213 |xxxxxxxxxxxxx |xxxxxxxxxxxxx |xxxxxxxxxxxxx |xxxxxxxxxxxxx |       524357 |       524357 |       524357 |xxxxxxxxxxxxx |xxxxxxxxxxxxx |xxxxxxxxxxxxx |xxxxxxxxxxxxx |      1048648 |      1048648 |      1048648 |xxxxxxxxxxxxx |xxxxxxxxxxxxx |xxxxxxxxxxxxx |xxxxxxxxxxxxx |      2097224 |      2097224 |      2097224 |xxxxxxxxxxxxx |xxxxxxxxxxxxx |xxxxxxxxxxxxx |xxxxxxxxxxxxx |      4194376 |      4194376 |      4194376 |
bpred_bimod.jr_seen                           4157 |         4157 |         4157 |xxxxxxxxxxxxx |xxxxxxxxxxxxx |xxxxxxxxxxxxx |xxxxxxxxxxxxx |         8262 |         8262 |         8262 |xxxxxxxxxxxxx |xxxxxxxxxxxxx |xxxxxxxxxxxxx |xxxxxxxxxxxxx |        16454 |        16454 |        16454 |xxxxxxxxxxxxx |xxxxxxxxxxxxx |xxxxxxxxxxxxx |xxxxxxxxxxxxx |        32838 |        32838 |        32838 |xxxxxxxxxxxxx |xxxxxxxxxxxxx |xxxxxxxxxxxxx |xxxxxxxxxxxxx |        65606 |        65606 |        65606 |xxxxxxxxxxxxx |xxxxxxxxxxxxx |xxxxxxxxxxxxx |xxxxxxxxxxxxx |       131142 |       131142 |       131142 |xxxxxxxxxxxxx |xxxxxxxxxxxxx |xxxxxxxxxxxxx |xxxxxxxxxxxxx |       262214 |       262214 |       262214 |xxxxxxxxxxxxx |xxxxxxxxxxxxx |xxxxxxxxxxxxx |xxxxxxxxxxxxx |       524358 |       524358 |       524358 |xxxxxxxxxxxxx |xxxxxxxxxxxxx |xxxxxxxxxxxxx |xxxxxxxxxxxxx |      1048649 |      1048649 |      1048649 |xxxxxxxxxxxxx |xxxxxxxxxxxxx |xxxxxxxxxxxxx |xxxxxxxxxxxxx |      2097225 |      2097225 |      2097225 |xxxxxxxxxxxxx |xxxxxxxxxxxxx |xxxxxxxxxxxxx |xxxxxxxxxxxxx |      4194377 |      4194377 |      4194377 |
bpred_bimod.jr_non_ras_hits.PP                   0 |            0 |            0 |xxxxxxxxxxxxx |xxxxxxxxxxxxx |xxxxxxxxxxxxx |xxxxxxxxxxxxx |            0 |            0 |            0 |xxxxxxxxxxxxx |xxxxxxxxxxxxx |xxxxxxxxxxxxx |xxxxxxxxxxxxx |            0 |            0 |            0 |xxxxxxxxxxxxx |xxxxxxxxxxxxx |xxxxxxxxxxxxx |xxxxxxxxxxxxx |            0 |            0 |            0 |xxxxxxxxxxxxx |xxxxxxxxxxxxx |xxxxxxxxxxxxx |xxxxxxxxxxxxx |            0 |            0 |            0 |xxxxxxxxxxxxx |xxxxxxxxxxxxx |xxxxxxxxxxxxx |xxxxxxxxxxxxx |            0 |            0 |            0 |xxxxxxxxxxxxx |xxxxxxxxxxxxx |xxxxxxxxxxxxx |xxxxxxxxxxxxx |            0 |            0 |            0 |xxxxxxxxxxxxx |xxxxxxxxxxxxx |xxxxxxxxxxxxx |xxxxxxxxxxxxx |            0 |            0 |            0 |xxxxxxxxxxxxx |xxxxxxxxxxxxx |xxxxxxxxxxxxx |xxxxxxxxxxxxx |            0 |            0 |            0 |xxxxxxxxxxxxx |xxxxxxxxxxxxx |xxxxxxxxxxxxx |xxxxxxxxxxxxx |            0 |            0 |            0 |xxxxxxxxxxxxx |xxxxxxxxxxxxx |xxxxxxxxxxxxx |xxxxxxxxxxxxx |            0 |            0 |            0 |
bpred_bimod.jr_non_ras_seen.PP                   0 |            0 |            0 |xxxxxxxxxxxxx |xxxxxxxxxxxxx |xxxxxxxxxxxxx |xxxxxxxxxxxxx |            0 |            0 |            0 |xxxxxxxxxxxxx |xxxxxxxxxxxxx |xxxxxxxxxxxxx |xxxxxxxxxxxxx |            0 |            0 |            0 |xxxxxxxxxxxxx |xxxxxxxxxxxxx |xxxxxxxxxxxxx |xxxxxxxxxxxxx |            0 |            0 |            0 |xxxxxxxxxxxxx |xxxxxxxxxxxxx |xxxxxxxxxxxxx |xxxxxxxxxxxxx |            0 |            0 |            0 |xxxxxxxxxxxxx |xxxxxxxxxxxxx |xxxxxxxxxxxxx |xxxxxxxxxxxxx |            0 |            0 |            0 |xxxxxxxxxxxxx |xxxxxxxxxxxxx |xxxxxxxxxxxxx |xxxxxxxxxxxxx |            0 |            0 |            0 |xxxxxxxxxxxxx |xxxxxxxxxxxxx |xxxxxxxxxxxxx |xxxxxxxxxxxxx |            0 |            0 |            0 |xxxxxxxxxxxxx |xxxxxxxxxxxxx |xxxxxxxxxxxxx |xxxxxxxxxxxxx |            1 |            1 |            1 |xxxxxxxxxxxxx |xxxxxxxxxxxxx |xxxxxxxxxxxxx |xxxxxxxxxxxxx |            1 |            1 |            1 |xxxxxxxxxxxxx |xxxxxxxxxxxxx |xxxxxxxxxxxxx |xxxxxxxxxxxxx |            1 |            1 |            1 |
bpred_bimod.bpred_addr_rate                 0.8004 |       0.8005 |       0.8005 |xxxxxxxxxxxxx |xxxxxxxxxxxxx |xxxxxxxxxxxxx |xxxxxxxxxxxxx |       0.8004 |       0.8004 |       0.8004 |xxxxxxxxxxxxx |xxxxxxxxxxxxx |xxxxxxxxxxxxx |xxxxxxxxxxxxx |       0.8010 |       0.8010 |       0.8010 |xxxxxxxxxxxxx |xxxxxxxxxxxxx |xxxxxxxxxxxxx |xxxxxxxxxxxxx |       0.8001 |       0.8001 |       0.8001 |xxxxxxxxxxxxx |xxxxxxxxxxxxx |xxxxxxxxxxxxx |xxxxxxxxxxxxx |       0.8005 |       0.8005 |       0.8005 |xxxxxxxxxxxxx |xxxxxxxxxxxxx |xxxxxxxxxxxxx |xxxxxxxxxxxxx |       0.8000 |       0.8000 |       0.8000 |xxxxxxxxxxxxx |xxxxxxxxxxxxx |xxxxxxxxxxxxx |xxxxxxxxxxxxx |       0.8006 |       0.8006 |       0.8006 |xxxxxxxxxxxxx |xxxxxxxxxxxxx |xxxxxxxxxxxxx |xxxxxxxxxxxxx |       0.7999 |       0.7999 |       0.7999 |xxxxxxxxxxxxx |xxxxxxxxxxxxx |xxxxxxxxxxxxx |xxxxxxxxxxxxx |       0.8004 |       0.8004 |       0.8004 |xxxxxxxxxxxxx |xxxxxxxxxxxxx |xxxxxxxxxxxxx |xxxxxxxxxxxxx |       0.7998 |       0.7998 |       0.7998 |xxxxxxxxxxxxx |xxxxxxxxxxxxx |xxxxxxxxxxxxx |xxxxxxxxxxxxx |       0.8004 |       0.8004 |       0.8004 |
bpred_bimod.bpred_dir_rate                  0.8012 |       0.8013 |       0.8013 |xxxxxxxxxxxxx |xxxxxxxxxxxxx |xxxxxxxxxxxxx |xxxxxxxxxxxxx |       0.8008 |       0.8008 |       0.8008 |xxxxxxxxxxxxx |xxxxxxxxxxxxx |xxxxxxxxxxxxx |xxxxxxxxxxxxx |       0.8012 |       0.8012 |       0.8012 |xxxxxxxxxxxxx |xxxxxxxxxxxxx |xxxxxxxxxxxxx |xxxxxxxxxxxxx |       0.8002 |       0.8002 |       0.8002 |xxxxxxxxxxxxx |xxxxxxxxxxxxx |xxxxxxxxxxxxx |xxxxxxxxxxxxx |       0.8006 |       0.8006 |       0.8006 |xxxxxxxxxxxxx |xxxxxxxxxxxxx |xxxxxxxxxxxxx |xxxxxxxxxxxxx |       0.8000 |       0.8000 |       0.8000 |xxxxxxxxxxxxx |xxxxxxxxxxxxx |xxxxxxxxxxxxx |xxxxxxxxxxxxx |       0.8006 |       0.8006 |       0.8006 |xxxxxxxxxxxxx |xxxxxxxxxxxxx |xxxxxxxxxxxxx |xxxxxxxxxxxxx |       0.7999 |       0.7999 |       0.7999 |xxxxxxxxxxxxx |xxxxxxxxxxxxx |xxxxxxxxxxxxx |xxxxxxxxxxxxx |       0.8004 |       0.8004 |       0.8004 |xxxxxxxxxxxxx |xxxxxxxxxxxxx |xxxxxxxxxxxxx |xxxxxxxxxxxxx |       0.7998 |       0.7998 |       0.7998 |xxxxxxxxxxxxx |xxxxxxxxxxxxx |xxxxxxxxxxxxx |xxxxxxxxxxxxx |       0.8004 |       0.8004 |       0.8004 |
bpred_bimod.bpred_jr_rate                   1.0000 |       1.0000 |       1.0000 |xxxxxxxxxxxxx |xxxxxxxxxxxxx |xxxxxxxxxxxxx |xxxxxxxxxxxxx |       0.9999 |       0.9999 |       0.9999 |xxxxxxxxxxxxx |xxxxxxxxxxxxx |xxxxxxxxxxxxx |xxxxxxxxxxxxx |       0.9999 |       0.9999 |       0.9999 |xxxxxxxxxxxxx |xxxxxxxxxxxxx |xxxxxxxxxxxxx |xxxxxxxxxxxxx |       1.0000 |       1.0000 |       1.0000 |xxxxxxxxxxxxx |xxxxxxxxxxxxx |xxxxxxxxxxxxx |xxxxxxxxxxxxx |       1.0000 |       1.0000 |       1.0000 |xxxxxxxxxxxxx |xxxxxxxxxxxxx |xxxxxxxxxxxxx |xxxxxxxxxxxxx |       1.0000 |       1.0000 |       1.0000 |xxxxxxxxxxxxx |xxxxxxxxxxxxx |xxxxxxxxxxxxx |xxxxxxxxxxxxx |       1.0000 |       1.0000 |       1.0000 |xxxxxxxxxxxxx |xxxxxxxxxxxxx |xxxxxxxxxxxxx |xxxxxxxxxxxxx |       1.0000 |       1.0000 |       1.0000 |xxxxxxxxxxxxx |xxxxxxxxxxxxx |xxxxxxxxxxxxx |xxxxxxxxxxxxx |       1.0000 |       1.0000 |       1.0000 |xxxxxxxxxxxxx |xxxxxxxxxxxxx |xxxxxxxxxxxxx |xxxxxxxxxxxxx |       1.0000 |       1.0000 |       1.0000 |xxxxxxxxxxxxx |xxxxxxxxxxxxx |xxxxxxxxxxxxx |xxxxxxxxxxxxx |       1.0000 |       1.0000 |       1.0000 |
bpred_bimod.bpred_jr_non_ras_rate.PP       <error: |      <error: |      <error: |xxxxxxxxxxxxx |xxxxxxxxxxxxx |xxxxxxxxxxxxx |xxxxxxxxxxxxx |      <error: |      <error: |      <error: |xxxxxxxxxxxxx |xxxxxxxxxxxxx |xxxxxxxxxxxxx |xxxxxxxxxxxxx |      <error: |      <error: |      <error: |xxxxxxxxxxxxx |xxxxxxxxxxxxx |xxxxxxxxxxxxx |xxxxxxxxxxxxx |      <error: |      <error: |      <error: |xxxxxxxxxxxxx |xxxxxxxxxxxxx |xxxxxxxxxxxxx |xxxxxxxxxxxxx |      <error: |      <error: |      <error: |xxxxxxxxxxxxx |xxxxxxxxxxxxx |xxxxxxxxxxxxx |xxxxxxxxxxxxx |      <error: |      <error: |      <error: |xxxxxxxxxxxxx |xxxxxxxxxxxxx |xxxxxxxxxxxxx |xxxxxxxxxxxxx |      <error: |      <error: |      <error: |xxxxxxxxxxxxx |xxxxxxxxxxxxx |xxxxxxxxxxxxx |xxxxxxxxxxxxx |      <error: |      <error: |      <error: |xxxxxxxxxxxxx |xxxxxxxxxxxxx |xxxxxxxxxxxxx |xxxxxxxxxxxxx |       0.0000 |       0.0000 |       0.0000 |xxxxxxxxxxxxx |xxxxxxxxxxxxx |xxxxxxxxxxxxx |xxxxxxxxxxxxx |       0.0000 |       0.0000 |       0.0000 |xxxxxxxxxxxxx |xxxxxxxxxxxxx |xxxxxxxxxxxxx |xxxxxxxxxxxxx |       0.0000 |       0.0000 |       0.0000 |
bpred_bimod.retstack_pushes                   4159 |         4159 |         4159 |xxxxxxxxxxxxx |xxxxxxxxxxxxx |xxxxxxxxxxxxx |xxxxxxxxxxxxx |         8264 |         8264 |         8264 |xxxxxxxxxxxxx |xxxxxxxxxxxxx |xxxxxxxxxxxxx |xxxxxxxxxxxxx |        16456 |        16456 |        16456 |xxxxxxxxxxxxx |xxxxxxxxxxxxx |xxxxxxxxxxxxx |xxxxxxxxxxxxx |        32840 |        32840 |        32840 |xxxxxxxxxxxxx |xxxxxxxxxxxxx |xxxxxxxxxxxxx |xxxxxxxxxxxxx |        65608 |        65608 |        65608 |xxxxxxxxxxxxx |xxxxxxxxxxxxx |xxxxxxxxxxxxx |xxxxxxxxxxxxx |       131144 |       131144 |       131144 |xxxxxxxxxxxxx |xxxxxxxxxxxxx |xxxxxxxxxxxxx |xxxxxxxxxxxxx |       262216 |       262216 |       262216 |xxxxxxxxxxxxx |xxxxxxxxxxxxx |xxxxxxxxxxxxx |xxxxxxxxxxxxx |       524360 |       524360 |       524360 |xxxxxxxxxxxxx |xxxxxxxxxxxxx |xxxxxxxxxxxxx |xxxxxxxxxxxxx |      1048650 |      1048650 |      1048650 |xxxxxxxxxxxxx |xxxxxxxxxxxxx |xxxxxxxxxxxxx |xxxxxxxxxxxxx |      2097226 |      2097226 |      2097226 |xxxxxxxxxxxxx |xxxxxxxxxxxxx |xxxxxxxxxxxxx |xxxxxxxxxxxxx |      4194378 |      4194378 |      4194378 |
bpred_bimod.retstack_pops                     4157 |         4157 |         4157 |xxxxxxxxxxxxx |xxxxxxxxxxxxx |xxxxxxxxxxxxx |xxxxxxxxxxxxx |         8262 |         8262 |         8262 |xxxxxxxxxxxxx |xxxxxxxxxxxxx |xxxxxxxxxxxxx |xxxxxxxxxxxxx |        16454 |        16454 |        16454 |xxxxxxxxxxxxx |xxxxxxxxxxxxx |xxxxxxxxxxxxx |xxxxxxxxxxxxx |        32838 |        32838 |        32838 |xxxxxxxxxxxxx |xxxxxxxxxxxxx |xxxxxxxxxxxxx |xxxxxxxxxxxxx |        65606 |        65606 |        65606 |xxxxxxxxxxxxx |xxxxxxxxxxxxx |xxxxxxxxxxxxx |xxxxxxxxxxxxx |       131142 |       131142 |       131142 |xxxxxxxxxxxxx |xxxxxxxxxxxxx |xxxxxxxxxxxxx |xxxxxxxxxxxxx |       262214 |       262214 |       262214 |xxxxxxxxxxxxx |xxxxxxxxxxxxx |xxxxxxxxxxxxx |xxxxxxxxxxxxx |       524358 |       524358 |       524358 |xxxxxxxxxxxxx |xxxxxxxxxxxxx |xxxxxxxxxxxxx |xxxxxxxxxxxxx |      1048648 |      1048648 |      1048648 |xxxxxxxxxxxxx |xxxxxxxxxxxxx |xxxxxxxxxxxxx |xxxxxxxxxxxxx |      2097224 |      2097224 |      2097224 |xxxxxxxxxxxxx |xxxxxxxxxxxxx |xxxxxxxxxxxxx |xxxxxxxxxxxxx |      4194376 |      4194376 |      4194376 |
bpred_bimod.used_ras.PP                       4157 |         4157 |         4157 |xxxxxxxxxxxxx |xxxxxxxxxxxxx |xxxxxxxxxxxxx |xxxxxxxxxxxxx |         8262 |         8262 |         8262 |xxxxxxxxxxxxx |xxxxxxxxxxxxx |xxxxxxxxxxxxx |xxxxxxxxxxxxx |        16454 |        16454 |        16454 |xxxxxxxxxxxxx |xxxxxxxxxxxxx |xxxxxxxxxxxxx |xxxxxxxxxxxxx |        32838 |        32838 |        32838 |xxxxxxxxxxxxx |xxxxxxxxxxxxx |xxxxxxxxxxxxx |xxxxxxxxxxxxx |        65606 |        65606 |        65606 |xxxxxxxxxxxxx |xxxxxxxxxxxxx |xxxxxxxxxxxxx |xxxxxxxxxxxxx |       131142 |       131142 |       131142 |xxxxxxxxxxxxx |xxxxxxxxxxxxx |xxxxxxxxxxxxx |xxxxxxxxxxxxx |       262214 |       262214 |       262214 |xxxxxxxxxxxxx |xxxxxxxxxxxxx |xxxxxxxxxxxxx |xxxxxxxxxxxxx |       524358 |       524358 |       524358 |xxxxxxxxxxxxx |xxxxxxxxxxxxx |xxxxxxxxxxxxx |xxxxxxxxxxxxx |      1048648 |      1048648 |      1048648 |xxxxxxxxxxxxx |xxxxxxxxxxxxx |xxxxxxxxxxxxx |xxxxxxxxxxxxx |      2097224 |      2097224 |      2097224 |xxxxxxxxxxxxx |xxxxxxxxxxxxx |xxxxxxxxxxxxx |xxxxxxxxxxxxx |      4194376 |      4194376 |      4194376 |
bpred_bimod.ras_hits.PP                       4157 |         4157 |         4157 |xxxxxxxxxxxxx |xxxxxxxxxxxxx |xxxxxxxxxxxxx |xxxxxxxxxxxxx |         8261 |         8261 |         8261 |xxxxxxxxxxxxx |xxxxxxxxxxxxx |xxxxxxxxxxxxx |xxxxxxxxxxxxx |        16453 |        16453 |        16453 |xxxxxxxxxxxxx |xxxxxxxxxxxxx |xxxxxxxxxxxxx |xxxxxxxxxxxxx |        32837 |        32837 |        32837 |xxxxxxxxxxxxx |xxxxxxxxxxxxx |xxxxxxxxxxxxx |xxxxxxxxxxxxx |        65605 |        65605 |        65605 |xxxxxxxxxxxxx |xxxxxxxxxxxxx |xxxxxxxxxxxxx |xxxxxxxxxxxxx |       131141 |       131141 |       131141 |xxxxxxxxxxxxx |xxxxxxxxxxxxx |xxxxxxxxxxxxx |xxxxxxxxxxxxx |       262213 |       262213 |       262213 |xxxxxxxxxxxxx |xxxxxxxxxxxxx |xxxxxxxxxxxxx |xxxxxxxxxxxxx |       524357 |       524357 |       524357 |xxxxxxxxxxxxx |xxxxxxxxxxxxx |xxxxxxxxxxxxx |xxxxxxxxxxxxx |      1048648 |      1048648 |      1048648 |xxxxxxxxxxxxx |xxxxxxxxxxxxx |xxxxxxxxxxxxx |xxxxxxxxxxxxx |      2097224 |      2097224 |      2097224 |xxxxxxxxxxxxx |xxxxxxxxxxxxx |xxxxxxxxxxxxx |xxxxxxxxxxxxx |      4194376 |      4194376 |      4194376 |
bpred_bimod.ras_rate.PP                     1.0000 |       1.0000 |       1.0000 |xxxxxxxxxxxxx |xxxxxxxxxxxxx |xxxxxxxxxxxxx |xxxxxxxxxxxxx |       0.9999 |       0.9999 |       0.9999 |xxxxxxxxxxxxx |xxxxxxxxxxxxx |xxxxxxxxxxxxx |xxxxxxxxxxxxx |       0.9999 |       0.9999 |       0.9999 |xxxxxxxxxxxxx |xxxxxxxxxxxxx |xxxxxxxxxxxxx |xxxxxxxxxxxxx |       1.0000 |       1.0000 |       1.0000 |xxxxxxxxxxxxx |xxxxxxxxxxxxx |xxxxxxxxxxxxx |xxxxxxxxxxxxx |       1.0000 |       1.0000 |       1.0000 |xxxxxxxxxxxxx |xxxxxxxxxxxxx |xxxxxxxxxxxxx |xxxxxxxxxxxxx |       1.0000 |       1.0000 |       1.0000 |xxxxxxxxxxxxx |xxxxxxxxxxxxx |xxxxxxxxxxxxx |xxxxxxxxxxxxx |       1.0000 |       1.0000 |       1.0000 |xxxxxxxxxxxxx |xxxxxxxxxxxxx |xxxxxxxxxxxxx |xxxxxxxxxxxxx |       1.0000 |       1.0000 |       1.0000 |xxxxxxxxxxxxx |xxxxxxxxxxxxx |xxxxxxxxxxxxx |xxxxxxxxxxxxx |       1.0000 |       1.0000 |       1.0000 |xxxxxxxxxxxxx |xxxxxxxxxxxxx |xxxxxxxxxxxxx |xxxxxxxxxxxxx |       1.0000 |       1.0000 |       1.0000 |xxxxxxxxxxxxx |xxxxxxxxxxxxx |xxxxxxxxxxxxx |xxxxxxxxxxxxx |       1.0000 |       1.0000 |       1.0000 |
bpred_2lev.lookups                   xxxxxxxxxxxxx |xxxxxxxxxxxxx |xxxxxxxxxxxxx |       155054 |       155054 |       155054 |       155054 |xxxxxxxxxxxxx |xxxxxxxxxxxxx |xxxxxxxxxxxxx |       333516 |       333516 |       333516 |       333516 |xxxxxxxxxxxxx |xxxxxxxxxxxxx |xxxxxxxxxxxxx |       715558 |       715558 |       715558 |       715558 |xxxxxxxxxxxxx |xxxxxxxxxxxxx |xxxxxxxxxxxxx |      1527082 |      1527082 |      1527082 |      1527082 |xxxxxxxxxxxxx |xxxxxxxxxxxxx |xxxxxxxxxxxxx |      3251479 |      3251479 |      3251479 |      3251479 |xxxxxxxxxxxxx |xxxxxxxxxxxxx |xxxxxxxxxxxxx |      6892657 |      6892657 |      6892657 |      6892657 |xxxxxxxxxxxxx |xxxxxxxxxxxxx |xxxxxxxxxxxxx |     14577387 |     14577387 |     14577387 |     14577387 |xxxxxxxxxxxxx |xxxxxxxxxxxxx |xxxxxxxxxxxxx |     30709988 |     30709988 |     30709988 |     30709988 |xxxxxxxxxxxxx |xxxxxxxxxxxxx |xxxxxxxxxxxxx |     64600234 |     64600234 |     64600234 |     64600234 |xxxxxxxxxxxxx |xxxxxxxxxxxxx |xxxxxxxxxxxxx |    135421070 |    135421070 |    135421070 |    135421070 |xxxxxxxxxxxxx |xxxxxxxxxxxxx |xxxxxxxxxxxxx |    283567379 |    283567379 |    283567379 |    283567379 |
[...]
bpred_2lev.retstack_pushes           xxxxxxxxxxxxx |xxxxxxxxxxxxx |xxxxxxxxxxxxx |         4159 |         4159 |         4159 |         4159 |xxxxxxxxxxxxx |xxxxxxxxxxxxx |xxxxxxxxxxxxx |         8264 |         8264 |         8264 |         8264 |xxxxxxxxxxxxx |xxxxxxxxxxxxx |xxxxxxxxxxxxx |        16456 |        16456 |        16456 |        16456 |xxxxxxxxxxxxx |xxxxxxxxxxxxx |xxxxxxxxxxxxx |        32840 |        32840 |        32840 |        32840 |xxxxxxxxxxxxx |xxxxxxxxxxxxx |xxxxxxxxxxxxx |        65608 |        65608 |        65608 |        65608 |xxxxxxxxxxxxx |xxxxxxxxxxxxx |xxxxxxxxxxxxx |       131144 |       131144 |       131144 |       131144 |xxxxxxxxxxxxx |xxxxxxxxxxxxx |xxxxxxxxxxxxx |       262216 |       262216 |       262216 |       262216 |xxxxxxxxxxxxx |xxxxxxxxxxxxx |xxxxxxxxxxxxx |       524360 |       524360 |       524360 |       524360 |xxxxxxxxxxxxx |xxxxxxxxxxxxx |xxxxxxxxxxxxx |      1048650 |      1048650 |      1048650 |      1048650 |xxxxxxxxxxxxx |xxxxxxxxxxxxx |xxxxxxxxxxxxx |      2097226 |      2097226 |      2097226 |      2097226 |xxxxxxxxxxxxx |xxxxxxxxxxxxx |xxxxxxxxxxxxx |      4194378 |      4194378 |      4194378 |      4194378 |
bpred_2lev.retstack_pops             xxxxxxxxxxxxx |xxxxxxxxxxxxx |xxxxxxxxxxxxx |         4157 |         4157 |         4157 |         4157 |xxxxxxxxxxxxx |xxxxxxxxxxxxx |xxxxxxxxxxxxx |         8262 |         8262 |         8262 |         8262 |xxxxxxxxxxxxx |xxxxxxxxxxxxx |xxxxxxxxxxxxx |        16454 |        16454 |        16454 |        16454 |xxxxxxxxxxxxx |xxxxxxxxxxxxx |xxxxxxxxxxxxx |        32838 |        32838 |        32838 |        32838 |xxxxxxxxxxxxx |xxxxxxxxxxxxx |xxxxxxxxxxxxx |        65606 |        65606 |        65606 |        65606 |xxxxxxxxxxxxx |xxxxxxxxxxxxx |xxxxxxxxxxxxx |       131142 |       131142 |       131142 |       131142 |xxxxxxxxxxxxx |xxxxxxxxxxxxx |xxxxxxxxxxxxx |       262214 |       262214 |       262214 |       262214 |xxxxxxxxxxxxx |xxxxxxxxxxxxx |xxxxxxxxxxxxx |       524358 |       524358 |       524358 |       524358 |xxxxxxxxxxxxx |xxxxxxxxxxxxx |xxxxxxxxxxxxx |      1048648 |      1048648 |      1048648 |      1048648 |xxxxxxxxxxxxx |xxxxxxxxxxxxx |xxxxxxxxxxxxx |      2097224 |      2097224 |      2097224 |      2097224 |xxxxxxxxxxxxx |xxxxxxxxxxxxx |xxxxxxxxxxxxx |      4194376 |      4194376 |      4194376 |      4194376 |
bpred_2lev.used_ras.PP               xxxxxxxxxxxxx |xxxxxxxxxxxxx |xxxxxxxxxxxxx |         4157 |         4157 |         4157 |         4157 |xxxxxxxxxxxxx |xxxxxxxxxxxxx |xxxxxxxxxxxxx |         8262 |         8262 |         8262 |         8262 |xxxxxxxxxxxxx |xxxxxxxxxxxxx |xxxxxxxxxxxxx |        16454 |        16454 |        16454 |        16454 |xxxxxxxxxxxxx |xxxxxxxxxxxxx |xxxxxxxxxxxxx |        32838 |        32838 |        32838 |        32838 |xxxxxxxxxxxxx |xxxxxxxxxxxxx |xxxxxxxxxxxxx |        65606 |        65606 |        65606 |        65606 |xxxxxxxxxxxxx |xxxxxxxxxxxxx |xxxxxxxxxxxxx |       131142 |       131142 |       131142 |       131142 |xxxxxxxxxxxxx |xxxxxxxxxxxxx |xxxxxxxxxxxxx |       262214 |       262214 |       262214 |       262214 |xxxxxxxxxxxxx |xxxxxxxxxxxxx |xxxxxxxxxxxxx |       524358 |       524358 |       524358 |       524358 |xxxxxxxxxxxxx |xxxxxxxxxxxxx |xxxxxxxxxxxxx |      1048648 |      1048648 |      1048648 |      1048648 |xxxxxxxxxxxxx |xxxxxxxxxxxxx |xxxxxxxxxxxxx |      2097224 |      2097224 |      2097224 |      2097224 |xxxxxxxxxxxxx |xxxxxxxxxxxxx |xxxxxxxxxxxxx |      4194376 |      4194376 |      4194376 |      4194376 |
bpred_2lev.ras_hits.PP               xxxxxxxxxxxxx |xxxxxxxxxxxxx |xxxxxxxxxxxxx |         4157 |         4157 |         4157 |         4157 |xxxxxxxxxxxxx |xxxxxxxxxxxxx |xxxxxxxxxxxxx |         8261 |         8261 |         8261 |         8261 |xxxxxxxxxxxxx |xxxxxxxxxxxxx |xxxxxxxxxxxxx |        16453 |        16453 |        16453 |        16453 |xxxxxxxxxxxxx |xxxxxxxxxxxxx |xxxxxxxxxxxxx |        32837 |        32837 |        32837 |        32837 |xxxxxxxxxxxxx |xxxxxxxxxxxxx |xxxxxxxxxxxxx |        65605 |        65605 |        65605 |        65605 |xxxxxxxxxxxxx |xxxxxxxxxxxxx |xxxxxxxxxxxxx |       131141 |       131141 |       131141 |       131141 |xxxxxxxxxxxxx |xxxxxxxxxxxxx |xxxxxxxxxxxxx |       262213 |       262213 |       262213 |       262213 |xxxxxxxxxxxxx |xxxxxxxxxxxxx |xxxxxxxxxxxxx |       524357 |       524357 |       524357 |       524357 |xxxxxxxxxxxxx |xxxxxxxxxxxxx |xxxxxxxxxxxxx |      1048648 |      1048648 |      1048648 |      1048648 |xxxxxxxxxxxxx |xxxxxxxxxxxxx |xxxxxxxxxxxxx |      2097224 |      2097224 |      2097224 |      2097224 |xxxxxxxxxxxxx |xxxxxxxxxxxxx |xxxxxxxxxxxxx |      4194376 |      4194376 |      4194376 |      4194376 |
bpred_2lev.ras_rate.PP               xxxxxxxxxxxxx |xxxxxxxxxxxxx |xxxxxxxxxxxxx |       1.0000 |       1.0000 |       1.0000 |       1.0000 |xxxxxxxxxxxxx |xxxxxxxxxxxxx |xxxxxxxxxxxxx |       0.9999 |       0.9999 |       0.9999 |       0.9999 |xxxxxxxxxxxxx |xxxxxxxxxxxxx |xxxxxxxxxxxxx |       0.9999 |       0.9999 |       0.9999 |       0.9999 |xxxxxxxxxxxxx |xxxxxxxxxxxxx |xxxxxxxxxxxxx |       1.0000 |       1.0000 |       1.0000 |       1.0000 |xxxxxxxxxxxxx |xxxxxxxxxxxxx |xxxxxxxxxxxxx |       1.0000 |       1.0000 |       1.0000 |       1.0000 |xxxxxxxxxxxxx |xxxxxxxxxxxxx |xxxxxxxxxxxxx |       1.0000 |       1.0000 |       1.0000 |       1.0000 |xxxxxxxxxxxxx |xxxxxxxxxxxxx |xxxxxxxxxxxxx |       1.0000 |       1.0000 |       1.0000 |       1.0000 |xxxxxxxxxxxxx |xxxxxxxxxxxxx |xxxxxxxxxxxxx |       1.0000 |       1.0000 |       1.0000 |       1.0000 |xxxxxxxxxxxxx |xxxxxxxxxxxxx |xxxxxxxxxxxxx |       1.0000 |       1.0000 |       1.0000 |       1.0000 |xxxxxxxxxxxxx |xxxxxxxxxxxxx |xxxxxxxxxxxxx |       1.0000 |       1.0000 |       1.0000 |       1.0000 |xxxxxxxxxxxxx |xxxxxxxxxxxxx |xxxxxxxxxxxxx |       1.0000 |       1.0000 |       1.0000 |       1.0000 |

Command list: 
	sslittle-na-sstrix-gcc -Wall -O3 -funroll-loops -finline-functions  -DRANDOM_SIZE=4096 -DOFFSET=0 -DSORT=cache4_heapsort sorts/cache4_heapsort944655392.c simpleMain.c -o cache4_heapsort477693633
	sim-cache -cache:dl1 dl1:512:16:1:l -cache:dl2 dl2:262144:16:1:l -cache:il1 il1:512:16:1:l -cache:il2 dl2 cache4_heapsort477693633
	sim-cache -cache:dl1 dl1:512:16:1:l -cache:dl2 dl2:131072:16:1:l -cache:il1 il1:512:16:1:l -cache:il2 dl2 cache4_heapsort477693633
	sim-cache -cache:dl1 dl1:1:16:512:l -cache:dl2 dl2:1:16:262144:l -cache:il1 il1:1:16:512:l -cache:il2 dl2 cache4_heapsort477693633
	sim-cache -cache:dl1 dl1:1:16:512:l -cache:dl2 dl2:1:16:131072:l -cache:il1 il1:1:16:512:l -cache:il2 dl2 cache4_heapsort477693633
	sim-bpred -bpred bimod -bpred:bimod 512 cache4_heapsort477693633
	sim-bpred -bpred bimod -bpred:bimod 1024 cache4_heapsort477693633
	sim-bpred -bpred bimod -bpred:bimod 2048 cache4_heapsort477693633
	sim-bpred -bpred 2lev -bpred:2lev 1 512 10 1 cache4_heapsort477693633
	sim-bpred -bpred 2lev -bpred:2lev 1 1024 10 1 cache4_heapsort477693633
	sim-bpred -bpred 2lev -bpred:2lev 1 2048 10 1 cache4_heapsort477693633
	sim-bpred -bpred 2lev -bpred:2lev 1 4096 10 1 cache4_heapsort477693633
	sslittle-na-sstrix-gcc -Wall -O3 -funroll-loops -finline-functions  -DRANDOM_SIZE=8192 -DOFFSET=0 -DSORT=cache4_heapsort sorts/cache4_heapsort944655392.c simpleMain.c -o cache4_heapsort477693633
	sim-cache -cache:dl1 dl1:512:16:1:l -cache:dl2 dl2:262144:16:1:l -cache:il1 il1:512:16:1:l -cache:il2 dl2 cache4_heapsort477693633
	sim-cache -cache:dl1 dl1:512:16:1:l -cache:dl2 dl2:131072:16:1:l -cache:il1 il1:512:16:1:l -cache:il2 dl2 cache4_heapsort477693633
	sim-cache -cache:dl1 dl1:1:16:512:l -cache:dl2 dl2:1:16:262144:l -cache:il1 il1:1:16:512:l -cache:il2 dl2 cache4_heapsort477693633
	sim-cache -cache:dl1 dl1:1:16:512:l -cache:dl2 dl2:1:16:131072:l -cache:il1 il1:1:16:512:l -cache:il2 dl2 cache4_heapsort477693633
	sim-bpred -bpred bimod -bpred:bimod 512 cache4_heapsort477693633
	sim-bpred -bpred bimod -bpred:bimod 1024 cache4_heapsort477693633
	sim-bpred -bpred bimod -bpred:bimod 2048 cache4_heapsort477693633
	sim-bpred -bpred 2lev -bpred:2lev 1 512 10 1 cache4_heapsort477693633
	sim-bpred -bpred 2lev -bpred:2lev 1 1024 10 1 cache4_heapsort477693633
	sim-bpred -bpred 2lev -bpred:2lev 1 2048 10 1 cache4_heapsort477693633
	sim-bpred -bpred 2lev -bpred:2lev 1 4096 10 1 cache4_heapsort477693633
	sslittle-na-sstrix-gcc -Wall -O3 -funroll-loops -finline-functions  -DRANDOM_SIZE=16384 -DOFFSET=0 -DSORT=cache4_heapsort sorts/cache4_heapsort944655392.c simpleMain.c -o cache4_heapsort477693633
	sim-cache -cache:dl1 dl1:512:16:1:l -cache:dl2 dl2:262144:16:1:l -cache:il1 il1:512:16:1:l -cache:il2 dl2 cache4_heapsort477693633
	sim-cache -cache:dl1 dl1:512:16:1:l -cache:dl2 dl2:131072:16:1:l -cache:il1 il1:512:16:1:l -cache:il2 dl2 cache4_heapsort477693633
	sim-cache -cache:dl1 dl1:1:16:512:l -cache:dl2 dl2:1:16:262144:l -cache:il1 il1:1:16:512:l -cache:il2 dl2 cache4_heapsort477693633
	sim-cache -cache:dl1 dl1:1:16:512:l -cache:dl2 dl2:1:16:131072:l -cache:il1 il1:1:16:512:l -cache:il2 dl2 cache4_heapsort477693633
	sim-bpred -bpred bimod -bpred:bimod 512 cache4_heapsort477693633
	sim-bpred -bpred bimod -bpred:bimod 1024 cache4_heapsort477693633
	sim-bpred -bpred bimod -bpred:bimod 2048 cache4_heapsort477693633
	sim-bpred -bpred 2lev -bpred:2lev 1 512 10 1 cache4_heapsort477693633
	sim-bpred -bpred 2lev -bpred:2lev 1 1024 10 1 cache4_heapsort477693633
	sim-bpred -bpred 2lev -bpred:2lev 1 2048 10 1 cache4_heapsort477693633
	sim-bpred -bpred 2lev -bpred:2lev 1 4096 10 1 cache4_heapsort477693633
	sslittle-na-sstrix-gcc -Wall -O3 -funroll-loops -finline-functions  -DRANDOM_SIZE=32768 -DOFFSET=0 -DSORT=cache4_heapsort sorts/cache4_heapsort944655392.c simpleMain.c -o cache4_heapsort477693633
	sim-cache -cache:dl1 dl1:512:16:1:l -cache:dl2 dl2:262144:16:1:l -cache:il1 il1:512:16:1:l -cache:il2 dl2 cache4_heapsort477693633
	sim-cache -cache:dl1 dl1:512:16:1:l -cache:dl2 dl2:131072:16:1:l -cache:il1 il1:512:16:1:l -cache:il2 dl2 cache4_heapsort477693633
	sim-cache -cache:dl1 dl1:1:16:512:l -cache:dl2 dl2:1:16:262144:l -cache:il1 il1:1:16:512:l -cache:il2 dl2 cache4_heapsort477693633
	sim-cache -cache:dl1 dl1:1:16:512:l -cache:dl2 dl2:1:16:131072:l -cache:il1 il1:1:16:512:l -cache:il2 dl2 cache4_heapsort477693633
	sim-bpred -bpred bimod -bpred:bimod 512 cache4_heapsort477693633
	sim-bpred -bpred bimod -bpred:bimod 1024 cache4_heapsort477693633
	sim-bpred -bpred bimod -bpred:bimod 2048 cache4_heapsort477693633
	sim-bpred -bpred 2lev -bpred:2lev 1 512 10 1 cache4_heapsort477693633
	sim-bpred -bpred 2lev -bpred:2lev 1 1024 10 1 cache4_heapsort477693633
	sim-bpred -bpred 2lev -bpred:2lev 1 2048 10 1 cache4_heapsort477693633
	sim-bpred -bpred 2lev -bpred:2lev 1 4096 10 1 cache4_heapsort477693633
	sslittle-na-sstrix-gcc -Wall -O3 -funroll-loops -finline-functions  -DRANDOM_SIZE=65536 -DOFFSET=0 -DSORT=cache4_heapsort sorts/cache4_heapsort944655392.c simpleMain.c -o cache4_heapsort477693633
	sim-cache -cache:dl1 dl1:512:16:1:l -cache:dl2 dl2:262144:16:1:l -cache:il1 il1:512:16:1:l -cache:il2 dl2 cache4_heapsort477693633
	sim-cache -cache:dl1 dl1:512:16:1:l -cache:dl2 dl2:131072:16:1:l -cache:il1 il1:512:16:1:l -cache:il2 dl2 cache4_heapsort477693633
	sim-cache -cache:dl1 dl1:1:16:512:l -cache:dl2 dl2:1:16:262144:l -cache:il1 il1:1:16:512:l -cache:il2 dl2 cache4_heapsort477693633
	sim-cache -cache:dl1 dl1:1:16:512:l -cache:dl2 dl2:1:16:131072:l -cache:il1 il1:1:16:512:l -cache:il2 dl2 cache4_heapsort477693633
	sim-bpred -bpred bimod -bpred:bimod 512 cache4_heapsort477693633
	sim-bpred -bpred bimod -bpred:bimod 1024 cache4_heapsort477693633
	sim-bpred -bpred bimod -bpred:bimod 2048 cache4_heapsort477693633
	sim-bpred -bpred 2lev -bpred:2lev 1 512 10 1 cache4_heapsort477693633
	sim-bpred -bpred 2lev -bpred:2lev 1 1024 10 1 cache4_heapsort477693633
	sim-bpred -bpred 2lev -bpred:2lev 1 2048 10 1 cache4_heapsort477693633
	sim-bpred -bpred 2lev -bpred:2lev 1 4096 10 1 cache4_heapsort477693633
	sslittle-na-sstrix-gcc -Wall -O3 -funroll-loops -finline-functions  -DRANDOM_SIZE=131072 -DOFFSET=0 -DSORT=cache4_heapsort sorts/cache4_heapsort944655392.c simpleMain.c -o cache4_heapsort477693633
	sim-cache -cache:dl1 dl1:512:16:1:l -cache:dl2 dl2:262144:16:1:l -cache:il1 il1:512:16:1:l -cache:il2 dl2 cache4_heapsort477693633
	sim-cache -cache:dl1 dl1:512:16:1:l -cache:dl2 dl2:131072:16:1:l -cache:il1 il1:512:16:1:l -cache:il2 dl2 cache4_heapsort477693633
	sim-cache -cache:dl1 dl1:1:16:512:l -cache:dl2 dl2:1:16:262144:l -cache:il1 il1:1:16:512:l -cache:il2 dl2 cache4_heapsort477693633
	sim-cache -cache:dl1 dl1:1:16:512:l -cache:dl2 dl2:1:16:131072:l -cache:il1 il1:1:16:512:l -cache:il2 dl2 cache4_heapsort477693633
	sim-bpred -bpred bimod -bpred:bimod 512 cache4_heapsort477693633
	sim-bpred -bpred bimod -bpred:bimod 1024 cache4_heapsort477693633
	sim-bpred -bpred bimod -bpred:bimod 2048 cache4_heapsort477693633
	sim-bpred -bpred 2lev -bpred:2lev 1 512 10 1 cache4_heapsort477693633
	sim-bpred -bpred 2lev -bpred:2lev 1 1024 10 1 cache4_heapsort477693633
	sim-bpred -bpred 2lev -bpred:2lev 1 2048 10 1 cache4_heapsort477693633
	sim-bpred -bpred 2lev -bpred:2lev 1 4096 10 1 cache4_heapsort477693633
	sslittle-na-sstrix-gcc -Wall -O3 -funroll-loops -finline-functions  -DRANDOM_SIZE=262144 -DOFFSET=0 -DSORT=cache4_heapsort sorts/cache4_heapsort944655392.c simpleMain.c -o cache4_heapsort477693633
	sim-cache -cache:dl1 dl1:512:16:1:l -cache:dl2 dl2:262144:16:1:l -cache:il1 il1:512:16:1:l -cache:il2 dl2 cache4_heapsort477693633
	sim-cache -cache:dl1 dl1:512:16:1:l -cache:dl2 dl2:131072:16:1:l -cache:il1 il1:512:16:1:l -cache:il2 dl2 cache4_heapsort477693633
	sim-cache -cache:dl1 dl1:1:16:512:l -cache:dl2 dl2:1:16:262144:l -cache:il1 il1:1:16:512:l -cache:il2 dl2 cache4_heapsort477693633
	sim-cache -cache:dl1 dl1:1:16:512:l -cache:dl2 dl2:1:16:131072:l -cache:il1 il1:1:16:512:l -cache:il2 dl2 cache4_heapsort477693633
	sim-bpred -bpred bimod -bpred:bimod 512 cache4_heapsort477693633
	sim-bpred -bpred bimod -bpred:bimod 1024 cache4_heapsort477693633
	sim-bpred -bpred bimod -bpred:bimod 2048 cache4_heapsort477693633
	sim-bpred -bpred 2lev -bpred:2lev 1 512 10 1 cache4_heapsort477693633
	sim-bpred -bpred 2lev -bpred:2lev 1 1024 10 1 cache4_heapsort477693633
	sim-bpred -bpred 2lev -bpred:2lev 1 2048 10 1 cache4_heapsort477693633
	sim-bpred -bpred 2lev -bpred:2lev 1 4096 10 1 cache4_heapsort477693633
	sslittle-na-sstrix-gcc -Wall -O3 -funroll-loops -finline-functions  -DRANDOM_SIZE=524288 -DOFFSET=0 -DSORT=cache4_heapsort sorts/cache4_heapsort944655392.c simpleMain.c -o cache4_heapsort477693633
	sim-cache -cache:dl1 dl1:512:16:1:l -cache:dl2 dl2:262144:16:1:l -cache:il1 il1:512:16:1:l -cache:il2 dl2 cache4_heapsort477693633
	sim-cache -cache:dl1 dl1:512:16:1:l -cache:dl2 dl2:131072:16:1:l -cache:il1 il1:512:16:1:l -cache:il2 dl2 cache4_heapsort477693633
	sim-cache -cache:dl1 dl1:1:16:512:l -cache:dl2 dl2:1:16:262144:l -cache:il1 il1:1:16:512:l -cache:il2 dl2 cache4_heapsort477693633
	sim-cache -cache:dl1 dl1:1:16:512:l -cache:dl2 dl2:1:16:131072:l -cache:il1 il1:1:16:512:l -cache:il2 dl2 cache4_heapsort477693633
	sim-bpred -bpred bimod -bpred:bimod 512 cache4_heapsort477693633
	sim-bpred -bpred bimod -bpred:bimod 1024 cache4_heapsort477693633
	sim-bpred -bpred bimod -bpred:bimod 2048 cache4_heapsort477693633
	sim-bpred -bpred 2lev -bpred:2lev 1 512 10 1 cache4_heapsort477693633
	sim-bpred -bpred 2lev -bpred:2lev 1 1024 10 1 cache4_heapsort477693633
	sim-bpred -bpred 2lev -bpred:2lev 1 2048 10 1 cache4_heapsort477693633
	sim-bpred -bpred 2lev -bpred:2lev 1 4096 10 1 cache4_heapsort477693633
	sslittle-na-sstrix-gcc -Wall -O3 -funroll-loops -finline-functions  -DRANDOM_SIZE=1048576 -DOFFSET=0 -DSORT=cache4_heapsort sorts/cache4_heapsort944655392.c simpleMain.c -o cache4_heapsort477693633
	sim-cache -cache:dl1 dl1:512:16:1:l -cache:dl2 dl2:262144:16:1:l -cache:il1 il1:512:16:1:l -cache:il2 dl2 cache4_heapsort477693633
	sim-cache -cache:dl1 dl1:512:16:1:l -cache:dl2 dl2:131072:16:1:l -cache:il1 il1:512:16:1:l -cache:il2 dl2 cache4_heapsort477693633
	sim-cache -cache:dl1 dl1:1:16:512:l -cache:dl2 dl2:1:16:262144:l -cache:il1 il1:1:16:512:l -cache:il2 dl2 cache4_heapsort477693633
	sim-cache -cache:dl1 dl1:1:16:512:l -cache:dl2 dl2:1:16:131072:l -cache:il1 il1:1:16:512:l -cache:il2 dl2 cache4_heapsort477693633
	sim-bpred -bpred bimod -bpred:bimod 512 cache4_heapsort477693633
	sim-bpred -bpred bimod -bpred:bimod 1024 cache4_heapsort477693633
	sim-bpred -bpred bimod -bpred:bimod 2048 cache4_heapsort477693633
	sim-bpred -bpred 2lev -bpred:2lev 1 512 10 1 cache4_heapsort477693633
	sim-bpred -bpred 2lev -bpred:2lev 1 1024 10 1 cache4_heapsort477693633
	sim-bpred -bpred 2lev -bpred:2lev 1 2048 10 1 cache4_heapsort477693633
	sim-bpred -bpred 2lev -bpred:2lev 1 4096 10 1 cache4_heapsort477693633
	sslittle-na-sstrix-gcc -Wall -O3 -funroll-loops -finline-functions  -DRANDOM_SIZE=2097152 -DOFFSET=0 -DSORT=cache4_heapsort sorts/cache4_heapsort944655392.c simpleMain.c -o cache4_heapsort477693633
	sim-cache -cache:dl1 dl1:512:16:1:l -cache:dl2 dl2:262144:16:1:l -cache:il1 il1:512:16:1:l -cache:il2 dl2 cache4_heapsort477693633
	sim-cache -cache:dl1 dl1:512:16:1:l -cache:dl2 dl2:131072:16:1:l -cache:il1 il1:512:16:1:l -cache:il2 dl2 cache4_heapsort477693633
	sim-cache -cache:dl1 dl1:1:16:512:l -cache:dl2 dl2:1:16:262144:l -cache:il1 il1:1:16:512:l -cache:il2 dl2 cache4_heapsort477693633
	sim-cache -cache:dl1 dl1:1:16:512:l -cache:dl2 dl2:1:16:131072:l -cache:il1 il1:1:16:512:l -cache:il2 dl2 cache4_heapsort477693633
	sim-bpred -bpred bimod -bpred:bimod 512 cache4_heapsort477693633
	sim-bpred -bpred bimod -bpred:bimod 1024 cache4_heapsort477693633
	sim-bpred -bpred bimod -bpred:bimod 2048 cache4_heapsort477693633
	sim-bpred -bpred 2lev -bpred:2lev 1 512 10 1 cache4_heapsort477693633
	sim-bpred -bpred 2lev -bpred:2lev 1 1024 10 1 cache4_heapsort477693633
	sim-bpred -bpred 2lev -bpred:2lev 1 2048 10 1 cache4_heapsort477693633
	sim-bpred -bpred 2lev -bpred:2lev 1 4096 10 1 cache4_heapsort477693633
	sslittle-na-sstrix-gcc -Wall -O3 -funroll-loops -finline-functions  -DRANDOM_SIZE=4194304 -DOFFSET=0 -DSORT=cache4_heapsort sorts/cache4_heapsort944655392.c simpleMain.c -o cache4_heapsort477693633
	sim-cache -cache:dl1 dl1:512:16:1:l -cache:dl2 dl2:262144:16:1:l -cache:il1 il1:512:16:1:l -cache:il2 dl2 cache4_heapsort477693633
	sim-cache -cache:dl1 dl1:512:16:1:l -cache:dl2 dl2:131072:16:1:l -cache:il1 il1:512:16:1:l -cache:il2 dl2 cache4_heapsort477693633
	sim-cache -cache:dl1 dl1:1:16:512:l -cache:dl2 dl2:1:16:262144:l -cache:il1 il1:1:16:512:l -cache:il2 dl2 cache4_heapsort477693633
	sim-cache -cache:dl1 dl1:1:16:512:l -cache:dl2 dl2:1:16:131072:l -cache:il1 il1:1:16:512:l -cache:il2 dl2 cache4_heapsort477693633
	sim-bpred -bpred bimod -bpred:bimod 512 cache4_heapsort477693633
	sim-bpred -bpred bimod -bpred:bimod 1024 cache4_heapsort477693633
	sim-bpred -bpred bimod -bpred:bimod 2048 cache4_heapsort477693633
	sim-bpred -bpred 2lev -bpred:2lev 1 512 10 1 cache4_heapsort477693633
	sim-bpred -bpred 2lev -bpred:2lev 1 1024 10 1 cache4_heapsort477693633
	sim-bpred -bpred 2lev -bpred:2lev 1 2048 10 1 cache4_heapsort477693633
	sim-bpred -bpred 2lev -bpred:2lev 1 4096 10 1 cache4_heapsort477693633
