Wed Jul 20 11:16:25 2005
Run as: "./do_simple -c random.org6 -o 6 cache4_heapsort"
-------------------------------------------------------------------------------------------------
sim-cache                                     4096 |         4096 |         4096 |         4096 |         8192 |         8192 |         8192 |         8192 |        16384 |        16384 |        16384 |        16384 |        32768 |        32768 |        32768 |        32768 |        65536 |        65536 |        65536 |        65536 |       131072 |       131072 |       131072 |       131072 |       262144 |       262144 |       262144 |       262144 |       524288 |       524288 |       524288 |       524288 |      1048576 |      1048576 |      1048576 |      1048576 |      2097152 |      2097152 |      2097152 |      2097152 |      4194304 |      4194304 |      4194304 |      4194304 |
-cache:dl1 dl1:256:32:1:l -cache:dl2 dl2:131072:32:1:l -cache:il1 il1:256:32:1:l -cache:il2 dl2
-cache:dl1 dl1:256:32:1:l -cache:dl2 dl2:65536:32:1:l -cache:il1 il1:256:32:1:l -cache:il2 dl2
-cache:dl1 dl1:1:32:256:l -cache:dl2 dl2:1:32:131072:l -cache:il1 il1:1:32:256:l -cache:il2 dl2
-cache:dl1 dl1:1:32:256:l -cache:dl2 dl2:1:32:65536:l -cache:il1 il1:1:32:256:l -cache:il2 dl2
-------------------------------------------------------------------------------------------------
sim_num_insn                                870306 |       870306 |       870306 |       870306 |      1866272 |      1866272 |      1866272 |      1866272 |      4001362 |      4001362 |      4001362 |      4001362 |      8531617 |      8531617 |      8531617 |      8531617 |     18154286 |     18154286 |     18154286 |     18154286 |     38438883 |     38438883 |     38438883 |     38438883 |     81265578 |     81265578 |     81265578 |     81265578 |    171072613 |    171072613 |    171072613 |    171072613 |    359730618 |    359730618 |    359730618 |    359730618 |    753726561 |    753726561 |    753726561 |    753726561 |   1577744791 |   1577744791 |   1577744791 |   1577744791 |
sim_num_refs                                217986 |       217986 |       217986 |       217986 |       464249 |       464249 |       464249 |       464249 |       990970 |       990970 |       990970 |       990970 |      2107883 |      2107883 |      2107883 |      2107883 |      4476742 |      4476742 |      4476742 |      4476742 |      9467673 |      9467673 |      9467673 |      9467673 |     19992005 |     19992005 |     19992005 |     19992005 |     42052295 |     42052295 |     42052295 |     42052295 |     88351844 |     88351844 |     88351844 |     88351844 |    184997005 |    184997005 |    184997005 |    184997005 |    386956857 |    386956857 |    386956857 |    386956857 |
sim_elapsed_time                                 1 |            1 |           10 |            5 |            1 |            1 |           16 |            7 |            2 |            1 |           26 |           13 |            3 |            2 |           47 |           24 |            5 |            5 |           88 |           44 |           11 |           11 |          161 |           75 |           23 |           23 |          279 |          108 |           49 |           48 |          390 |          137 |          102 |          102 |          451 |          199 |          215 |          215 |          581 |          330 |          454 |          452 |          856 |          602 |
sim_inst_rate                          870306.0000 |  870306.0000 |   87030.6000 |  174061.2000 | 1866272.0000 | 1866272.0000 |  116642.0000 |  266610.2857 | 2000681.0000 | 4001362.0000 |  153898.5385 |  307797.0769 | 2843872.3333 | 4265808.5000 |  181523.7660 |  355484.0417 | 3630857.2000 | 3630857.2000 |  206298.7045 |  412597.4091 | 3494443.9091 | 3494443.9091 |  238750.8261 |  512518.4400 | 3533286.0000 | 3533286.0000 |  291274.4731 |  752459.0556 | 3491277.8163 | 3564012.7708 |  438647.7256 | 1248705.2044 | 3526770.7647 | 3526770.7647 |  797628.8647 | 1807691.5477 | 3505704.9349 | 3505704.9349 | 1297291.8434 | 2284019.8818 | 3475208.7907 | 3490585.8208 | 1843159.8026 | 2620838.5233 |
il1.accesses                                870306 |       870306 |       870306 |       870306 |      1866272 |      1866272 |      1866272 |      1866272 |      4001362 |      4001362 |      4001362 |      4001362 |      8531617 |      8531617 |      8531617 |      8531617 |     18154286 |     18154286 |     18154286 |     18154286 |     38438883 |     38438883 |     38438883 |     38438883 |     81265578 |     81265578 |     81265578 |     81265578 |    171072613 |    171072613 |    171072613 |    171072613 |    359730618 |    359730618 |    359730618 |    359730618 |    753726561 |    753726561 |    753726561 |    753726561 |   1577744791 |   1577744791 |   1577744791 |   1577744791 |
il1.hits                                    869786 |       869786 |       869875 |       869875 |      1865711 |      1865711 |      1865821 |      1865821 |      4000800 |      4000800 |      4000914 |      4000914 |      8531058 |      8531058 |      8531165 |      8531165 |     18153727 |     18153727 |     18153834 |     18153834 |     38438324 |     38438324 |     38438432 |     38438432 |     81265019 |     81265019 |     81265127 |     81265127 |    171072054 |    171072054 |    171072162 |    171072162 |    359730023 |    359730023 |    359730136 |    359730136 |    753725966 |    753725966 |    753726079 |    753726079 |   1577744196 |   1577744196 |   1577744309 |   1577744309 |
il1.misses                                     520 |          520 |          431 |          431 |          561 |          561 |          451 |          451 |          562 |          562 |          448 |          448 |          559 |          559 |          452 |          452 |          559 |          559 |          452 |          452 |          559 |          559 |          451 |          451 |          559 |          559 |          451 |          451 |          559 |          559 |          451 |          451 |          595 |          595 |          482 |          482 |          595 |          595 |          482 |          482 |          595 |          595 |          482 |          482 |
il1.replacements                               307 |          307 |          175 |          175 |          340 |          340 |          195 |          195 |          341 |          341 |          192 |          192 |          338 |          338 |          196 |          196 |          338 |          338 |          196 |          196 |          338 |          338 |          195 |          195 |          338 |          338 |          195 |          195 |          338 |          338 |          195 |          195 |          379 |          379 |          226 |          226 |          379 |          379 |          226 |          226 |          379 |          379 |          226 |          226 |
il1.writebacks                                   0 |            0 |            0 |            0 |            0 |            0 |            0 |            0 |            0 |            0 |            0 |            0 |            0 |            0 |            0 |            0 |            0 |            0 |            0 |            0 |            0 |            0 |            0 |            0 |            0 |            0 |            0 |            0 |            0 |            0 |            0 |            0 |            0 |            0 |            0 |            0 |            0 |            0 |            0 |            0 |            0 |            0 |            0 |            0 |
il1.invalidations                                0 |            0 |            0 |            0 |            0 |            0 |            0 |            0 |            0 |            0 |            0 |            0 |            0 |            0 |            0 |            0 |            0 |            0 |            0 |            0 |            0 |            0 |            0 |            0 |            0 |            0 |            0 |            0 |            0 |            0 |            0 |            0 |            0 |            0 |            0 |            0 |            0 |            0 |            0 |            0 |            0 |            0 |            0 |            0 |
il1.miss_rate                               0.0006 |       0.0006 |       0.0005 |       0.0005 |       0.0003 |       0.0003 |       0.0002 |       0.0002 |       0.0001 |       0.0001 |       0.0001 |       0.0001 |       0.0001 |       0.0001 |       0.0001 |       0.0001 |       0.0000 |       0.0000 |       0.0000 |       0.0000 |       0.0000 |       0.0000 |       0.0000 |       0.0000 |       0.0000 |       0.0000 |       0.0000 |       0.0000 |       0.0000 |       0.0000 |       0.0000 |       0.0000 |       0.0000 |       0.0000 |       0.0000 |       0.0000 |       0.0000 |       0.0000 |       0.0000 |       0.0000 |       0.0000 |       0.0000 |       0.0000 |       0.0000 |
il1.repl_rate                               0.0004 |       0.0004 |       0.0002 |       0.0002 |       0.0002 |       0.0002 |       0.0001 |       0.0001 |       0.0001 |       0.0001 |       0.0000 |       0.0000 |       0.0000 |       0.0000 |       0.0000 |       0.0000 |       0.0000 |       0.0000 |       0.0000 |       0.0000 |       0.0000 |       0.0000 |       0.0000 |       0.0000 |       0.0000 |       0.0000 |       0.0000 |       0.0000 |       0.0000 |       0.0000 |       0.0000 |       0.0000 |       0.0000 |       0.0000 |       0.0000 |       0.0000 |       0.0000 |       0.0000 |       0.0000 |       0.0000 |       0.0000 |       0.0000 |       0.0000 |       0.0000 |
il1.wb_rate                                 0.0000 |       0.0000 |       0.0000 |       0.0000 |       0.0000 |       0.0000 |       0.0000 |       0.0000 |       0.0000 |       0.0000 |       0.0000 |       0.0000 |       0.0000 |       0.0000 |       0.0000 |       0.0000 |       0.0000 |       0.0000 |       0.0000 |       0.0000 |       0.0000 |       0.0000 |       0.0000 |       0.0000 |       0.0000 |       0.0000 |       0.0000 |       0.0000 |       0.0000 |       0.0000 |       0.0000 |       0.0000 |       0.0000 |       0.0000 |       0.0000 |       0.0000 |       0.0000 |       0.0000 |       0.0000 |       0.0000 |       0.0000 |       0.0000 |       0.0000 |       0.0000 |
il1.inv_rate                                0.0000 |       0.0000 |       0.0000 |       0.0000 |       0.0000 |       0.0000 |       0.0000 |       0.0000 |       0.0000 |       0.0000 |       0.0000 |       0.0000 |       0.0000 |       0.0000 |       0.0000 |       0.0000 |       0.0000 |       0.0000 |       0.0000 |       0.0000 |       0.0000 |       0.0000 |       0.0000 |       0.0000 |       0.0000 |       0.0000 |       0.0000 |       0.0000 |       0.0000 |       0.0000 |       0.0000 |       0.0000 |       0.0000 |       0.0000 |       0.0000 |       0.0000 |       0.0000 |       0.0000 |       0.0000 |       0.0000 |       0.0000 |       0.0000 |       0.0000 |       0.0000 |
dl1.accesses                                234452 |       234452 |       234452 |       234452 |       497099 |       497099 |       497099 |       497099 |      1056588 |      1056588 |      1056588 |      1056588 |      2239037 |      2239037 |      2239037 |      2239037 |      4738968 |      4738968 |      4738968 |      4738968 |      9992043 |      9992043 |      9992043 |      9992043 |     21040663 |     21040663 |     21040663 |     21040663 |     44149529 |     44149529 |     44149529 |     44149529 |     92546230 |     92546230 |     92546230 |     92546230 |    193385695 |    193385695 |    193385695 |    193385695 |    403734155 |    403734155 |    403734155 |    403734155 |
dl1.hits                                    229557 |       229557 |       230194 |       230194 |       483645 |       483645 |       485158 |       485158 |      1019690 |      1019690 |      1023691 |      1023691 |      2145960 |      2145960 |      2154547 |      2154547 |      4510064 |      4510064 |      4530409 |      4530409 |      9456195 |      9456195 |      9497082 |      9497082 |     19803911 |     19803911 |     19897042 |     19897042 |     41368992 |     41368992 |     41557688 |     41557688 |     86339886 |     86339886 |     86758538 |     86758538 |    179778180 |    179778180 |    180619776 |    180619776 |    374045848 |    374045848 |    375846155 |    375846155 |
dl1.misses                                    4895 |         4895 |         4258 |         4258 |        13454 |        13454 |        11941 |        11941 |        36898 |        36898 |        32897 |        32897 |        93077 |        93077 |        84490 |        84490 |       228904 |       228904 |       208559 |       208559 |       535848 |       535848 |       494961 |       494961 |      1236752 |      1236752 |      1143621 |      1143621 |      2780537 |      2780537 |      2591841 |      2591841 |      6206344 |      6206344 |      5787692 |      5787692 |     13607515 |     13607515 |     12765919 |     12765919 |     29688307 |     29688307 |     27888000 |     27888000 |
dl1.replacements                              4639 |         4639 |         4002 |         4002 |        13198 |        13198 |        11685 |        11685 |        36642 |        36642 |        32641 |        32641 |        92821 |        92821 |        84234 |        84234 |       228648 |       228648 |       208303 |       208303 |       535592 |       535592 |       494705 |       494705 |      1236496 |      1236496 |      1143365 |      1143365 |      2780281 |      2780281 |      2591585 |      2591585 |      6206088 |      6206088 |      5787436 |      5787436 |     13607259 |     13607259 |     12765663 |     12765663 |     29688051 |     29688051 |     27887744 |     27887744 |
dl1.writebacks                                4000 |         4000 |         3425 |         3425 |        11645 |        11645 |        10307 |        10307 |        33220 |        33220 |        29587 |        29587 |        85500 |        85500 |        77841 |        77841 |       212921 |       212921 |       194713 |       194713 |       503296 |       503296 |       467175 |       467175 |      1170051 |      1170051 |      1087291 |      1087291 |      2644826 |      2644826 |      2478923 |      2478923 |      5927569 |      5927569 |      5560859 |      5560859 |     13046396 |     13046396 |     12313238 |     12313238 |     28549910 |     28549910 |     26980503 |     26980503 |
dl1.invalidations                                0 |            0 |            0 |            0 |            0 |            0 |            0 |            0 |            0 |            0 |            0 |            0 |            0 |            0 |            0 |            0 |            0 |            0 |            0 |            0 |            0 |            0 |            0 |            0 |            0 |            0 |            0 |            0 |            0 |            0 |            0 |            0 |            0 |            0 |            0 |            0 |            0 |            0 |            0 |            0 |            0 |            0 |            0 |            0 |
dl1.miss_rate                               0.0209 |       0.0209 |       0.0182 |       0.0182 |       0.0271 |       0.0271 |       0.0240 |       0.0240 |       0.0349 |       0.0349 |       0.0311 |       0.0311 |       0.0416 |       0.0416 |       0.0377 |       0.0377 |       0.0483 |       0.0483 |       0.0440 |       0.0440 |       0.0536 |       0.0536 |       0.0495 |       0.0495 |       0.0588 |       0.0588 |       0.0544 |       0.0544 |       0.0630 |       0.0630 |       0.0587 |       0.0587 |       0.0671 |       0.0671 |       0.0625 |       0.0625 |       0.0704 |       0.0704 |       0.0660 |       0.0660 |       0.0735 |       0.0735 |       0.0691 |       0.0691 |
dl1.repl_rate                               0.0198 |       0.0198 |       0.0171 |       0.0171 |       0.0266 |       0.0266 |       0.0235 |       0.0235 |       0.0347 |       0.0347 |       0.0309 |       0.0309 |       0.0415 |       0.0415 |       0.0376 |       0.0376 |       0.0482 |       0.0482 |       0.0440 |       0.0440 |       0.0536 |       0.0536 |       0.0495 |       0.0495 |       0.0588 |       0.0588 |       0.0543 |       0.0543 |       0.0630 |       0.0630 |       0.0587 |       0.0587 |       0.0671 |       0.0671 |       0.0625 |       0.0625 |       0.0704 |       0.0704 |       0.0660 |       0.0660 |       0.0735 |       0.0735 |       0.0691 |       0.0691 |
dl1.wb_rate                                 0.0171 |       0.0171 |       0.0146 |       0.0146 |       0.0234 |       0.0234 |       0.0207 |       0.0207 |       0.0314 |       0.0314 |       0.0280 |       0.0280 |       0.0382 |       0.0382 |       0.0348 |       0.0348 |       0.0449 |       0.0449 |       0.0411 |       0.0411 |       0.0504 |       0.0504 |       0.0468 |       0.0468 |       0.0556 |       0.0556 |       0.0517 |       0.0517 |       0.0599 |       0.0599 |       0.0561 |       0.0561 |       0.0640 |       0.0640 |       0.0601 |       0.0601 |       0.0675 |       0.0675 |       0.0637 |       0.0637 |       0.0707 |       0.0707 |       0.0668 |       0.0668 |
dl1.inv_rate                                0.0000 |       0.0000 |       0.0000 |       0.0000 |       0.0000 |       0.0000 |       0.0000 |       0.0000 |       0.0000 |       0.0000 |       0.0000 |       0.0000 |       0.0000 |       0.0000 |       0.0000 |       0.0000 |       0.0000 |       0.0000 |       0.0000 |       0.0000 |       0.0000 |       0.0000 |       0.0000 |       0.0000 |       0.0000 |       0.0000 |       0.0000 |       0.0000 |       0.0000 |       0.0000 |       0.0000 |       0.0000 |       0.0000 |       0.0000 |       0.0000 |       0.0000 |       0.0000 |       0.0000 |       0.0000 |       0.0000 |       0.0000 |       0.0000 |       0.0000 |       0.0000 |
dl2.accesses                                  9415 |         9415 |         8114 |         8114 |        25660 |        25660 |        22699 |        22699 |        70680 |        70680 |        62932 |        62932 |       179136 |       179136 |       162783 |       162783 |       442384 |       442384 |       403724 |       403724 |      1039703 |      1039703 |       962587 |       962587 |      2407362 |      2407362 |      2231363 |      2231363 |      5425922 |      5425922 |      5071215 |      5071215 |     12134508 |     12134508 |     11349033 |     11349033 |     26654506 |     26654506 |     25079639 |     25079639 |     58238812 |     58238812 |     54868985 |     54868985 |
dl2.hits                                      7513 |         7513 |         6254 |         6254 |        22731 |        22731 |        19824 |        19824 |        65700 |        65700 |        58012 |        58012 |       170052 |       170052 |       153763 |       153763 |       425108 |       425108 |       386512 |       386512 |      1006044 |      1006044 |       928992 |       928992 |      2340933 |      2338415 |      2165000 |      2133247 |      5291441 |      5067581 |      4883736 |      4744755 |     11415238 |     11067345 |     10696013 |     10377809 |     24520046 |     23550973 |     23138026 |     22130743 |     52032321 |     49440102 |     48971955 |     46608117 |
dl2.misses                                    1902 |         1902 |         1860 |         1860 |         2929 |         2929 |         2875 |         2875 |         4980 |         4980 |         4920 |         4920 |         9084 |         9084 |         9020 |         9020 |        17276 |        17276 |        17212 |        17212 |        33659 |        33659 |        33595 |        33595 |        66429 |        68947 |        66363 |        98116 |       134481 |       358341 |       187479 |       326460 |       719270 |      1067163 |       653020 |       971224 |      2134460 |      3103533 |      1941613 |      2948896 |      6206491 |      8798710 |      5897030 |      8260868 |
dl2.replacements                               268 |          268 |            0 |            0 |          264 |          264 |            0 |            0 |          292 |          292 |            0 |            0 |          299 |          299 |            0 |            0 |          299 |          299 |            0 |            0 |          299 |          299 |            0 |            0 |          301 |         4493 |            0 |        32580 |         4491 |       292805 |        56407 |       260924 |       588198 |      1001627 |       521948 |       905688 |      2003388 |      3037997 |      1810541 |      2883360 |      6075419 |      8733174 |      5765958 |      8195332 |
dl2.writebacks                                 152 |          152 |            0 |            0 |          144 |          144 |            0 |            0 |          165 |          165 |            0 |            0 |          169 |          169 |            0 |            0 |          169 |          169 |            0 |            0 |          169 |          169 |            0 |            0 |          169 |         4361 |            0 |        31850 |         4361 |       228287 |        55677 |       194520 |       458020 |       853772 |       389192 |       756559 |      1708228 |      2690901 |      1512557 |      2535744 |      5380717 |      7955678 |      5070099 |      7417921 |
dl2.invalidations                                0 |            0 |            0 |            0 |            0 |            0 |            0 |            0 |            0 |            0 |            0 |            0 |            0 |            0 |            0 |            0 |            0 |            0 |            0 |            0 |            0 |            0 |            0 |            0 |            0 |            0 |            0 |            0 |            0 |            0 |            0 |            0 |            0 |            0 |            0 |            0 |            0 |            0 |            0 |            0 |            0 |            0 |            0 |            0 |
dl2.miss_rate                               0.2020 |       0.2020 |       0.2292 |       0.2292 |       0.1141 |       0.1141 |       0.1267 |       0.1267 |       0.0705 |       0.0705 |       0.0782 |       0.0782 |       0.0507 |       0.0507 |       0.0554 |       0.0554 |       0.0391 |       0.0391 |       0.0426 |       0.0426 |       0.0324 |       0.0324 |       0.0349 |       0.0349 |       0.0276 |       0.0286 |       0.0297 |       0.0440 |       0.0248 |       0.0660 |       0.0370 |       0.0644 |       0.0593 |       0.0879 |       0.0575 |       0.0856 |       0.0801 |       0.1164 |       0.0774 |       0.1176 |       0.1066 |       0.1511 |       0.1075 |       0.1506 |
dl2.repl_rate                               0.0285 |       0.0285 |       0.0000 |       0.0000 |       0.0103 |       0.0103 |       0.0000 |       0.0000 |       0.0041 |       0.0041 |       0.0000 |       0.0000 |       0.0017 |       0.0017 |       0.0000 |       0.0000 |       0.0007 |       0.0007 |       0.0000 |       0.0000 |       0.0003 |       0.0003 |       0.0000 |       0.0000 |       0.0001 |       0.0019 |       0.0000 |       0.0146 |       0.0008 |       0.0540 |       0.0111 |       0.0515 |       0.0485 |       0.0825 |       0.0460 |       0.0798 |       0.0752 |       0.1140 |       0.0722 |       0.1150 |       0.1043 |       0.1500 |       0.1051 |       0.1494 |
dl2.wb_rate                                 0.0161 |       0.0161 |       0.0000 |       0.0000 |       0.0056 |       0.0056 |       0.0000 |       0.0000 |       0.0023 |       0.0023 |       0.0000 |       0.0000 |       0.0009 |       0.0009 |       0.0000 |       0.0000 |       0.0004 |       0.0004 |       0.0000 |       0.0000 |       0.0002 |       0.0002 |       0.0000 |       0.0000 |       0.0001 |       0.0018 |       0.0000 |       0.0143 |       0.0008 |       0.0421 |       0.0110 |       0.0384 |       0.0377 |       0.0704 |       0.0343 |       0.0667 |       0.0641 |       0.1010 |       0.0603 |       0.1011 |       0.0924 |       0.1366 |       0.0924 |       0.1352 |
dl2.inv_rate                                0.0000 |       0.0000 |       0.0000 |       0.0000 |       0.0000 |       0.0000 |       0.0000 |       0.0000 |       0.0000 |       0.0000 |       0.0000 |       0.0000 |       0.0000 |       0.0000 |       0.0000 |       0.0000 |       0.0000 |       0.0000 |       0.0000 |       0.0000 |       0.0000 |       0.0000 |       0.0000 |       0.0000 |       0.0000 |       0.0000 |       0.0000 |       0.0000 |       0.0000 |       0.0000 |       0.0000 |       0.0000 |       0.0000 |       0.0000 |       0.0000 |       0.0000 |       0.0000 |       0.0000 |       0.0000 |       0.0000 |       0.0000 |       0.0000 |       0.0000 |       0.0000 |
itlb.accesses                               870306 |       870306 |       870306 |       870306 |      1866272 |      1866272 |      1866272 |      1866272 |      4001362 |      4001362 |      4001362 |      4001362 |      8531617 |      8531617 |      8531617 |      8531617 |     18154286 |     18154286 |     18154286 |     18154286 |     38438883 |     38438883 |     38438883 |     38438883 |     81265578 |     81265578 |     81265578 |     81265578 |    171072613 |    171072613 |    171072613 |    171072613 |    359730618 |    359730618 |    359730618 |    359730618 |    753726561 |    753726561 |    753726561 |    753726561 |   1577744791 |   1577744791 |   1577744791 |   1577744791 |
itlb.hits                                   870297 |       870297 |       870297 |       870297 |      1866263 |      1866263 |      1866263 |      1866263 |      4001353 |      4001353 |      4001353 |      4001353 |      8531608 |      8531608 |      8531608 |      8531608 |     18154277 |     18154277 |     18154277 |     18154277 |     38438874 |     38438874 |     38438874 |     38438874 |     81265569 |     81265569 |     81265569 |     81265569 |    171072604 |    171072604 |    171072604 |    171072604 |    359730609 |    359730609 |    359730609 |    359730609 |    753726552 |    753726552 |    753726552 |    753726552 |   1577744782 |   1577744782 |   1577744782 |   1577744782 |
itlb.misses                                      9 |            9 |            9 |            9 |            9 |            9 |            9 |            9 |            9 |            9 |            9 |            9 |            9 |            9 |            9 |            9 |            9 |            9 |            9 |            9 |            9 |            9 |            9 |            9 |            9 |            9 |            9 |            9 |            9 |            9 |            9 |            9 |            9 |            9 |            9 |            9 |            9 |            9 |            9 |            9 |            9 |            9 |            9 |            9 |
itlb.replacements                                0 |            0 |            0 |            0 |            0 |            0 |            0 |            0 |            0 |            0 |            0 |            0 |            0 |            0 |            0 |            0 |            0 |            0 |            0 |            0 |            0 |            0 |            0 |            0 |            0 |            0 |            0 |            0 |            0 |            0 |            0 |            0 |            0 |            0 |            0 |            0 |            0 |            0 |            0 |            0 |            0 |            0 |            0 |            0 |
itlb.writebacks                                  0 |            0 |            0 |            0 |            0 |            0 |            0 |            0 |            0 |            0 |            0 |            0 |            0 |            0 |            0 |            0 |            0 |            0 |            0 |            0 |            0 |            0 |            0 |            0 |            0 |            0 |            0 |            0 |            0 |            0 |            0 |            0 |            0 |            0 |            0 |            0 |            0 |            0 |            0 |            0 |            0 |            0 |            0 |            0 |
itlb.invalidations                               0 |            0 |            0 |            0 |            0 |            0 |            0 |            0 |            0 |            0 |            0 |            0 |            0 |            0 |            0 |            0 |            0 |            0 |            0 |            0 |            0 |            0 |            0 |            0 |            0 |            0 |            0 |            0 |            0 |            0 |            0 |            0 |            0 |            0 |            0 |            0 |            0 |            0 |            0 |            0 |            0 |            0 |            0 |            0 |
itlb.miss_rate                              0.0000 |       0.0000 |       0.0000 |       0.0000 |       0.0000 |       0.0000 |       0.0000 |       0.0000 |       0.0000 |       0.0000 |       0.0000 |       0.0000 |       0.0000 |       0.0000 |       0.0000 |       0.0000 |       0.0000 |       0.0000 |       0.0000 |       0.0000 |       0.0000 |       0.0000 |       0.0000 |       0.0000 |       0.0000 |       0.0000 |       0.0000 |       0.0000 |       0.0000 |       0.0000 |       0.0000 |       0.0000 |       0.0000 |       0.0000 |       0.0000 |       0.0000 |       0.0000 |       0.0000 |       0.0000 |       0.0000 |       0.0000 |       0.0000 |       0.0000 |       0.0000 |
itlb.repl_rate                              0.0000 |       0.0000 |       0.0000 |       0.0000 |       0.0000 |       0.0000 |       0.0000 |       0.0000 |       0.0000 |       0.0000 |       0.0000 |       0.0000 |       0.0000 |       0.0000 |       0.0000 |       0.0000 |       0.0000 |       0.0000 |       0.0000 |       0.0000 |       0.0000 |       0.0000 |       0.0000 |       0.0000 |       0.0000 |       0.0000 |       0.0000 |       0.0000 |       0.0000 |       0.0000 |       0.0000 |       0.0000 |       0.0000 |       0.0000 |       0.0000 |       0.0000 |       0.0000 |       0.0000 |       0.0000 |       0.0000 |       0.0000 |       0.0000 |       0.0000 |       0.0000 |
itlb.wb_rate                                0.0000 |       0.0000 |       0.0000 |       0.0000 |       0.0000 |       0.0000 |       0.0000 |       0.0000 |       0.0000 |       0.0000 |       0.0000 |       0.0000 |       0.0000 |       0.0000 |       0.0000 |       0.0000 |       0.0000 |       0.0000 |       0.0000 |       0.0000 |       0.0000 |       0.0000 |       0.0000 |       0.0000 |       0.0000 |       0.0000 |       0.0000 |       0.0000 |       0.0000 |       0.0000 |       0.0000 |       0.0000 |       0.0000 |       0.0000 |       0.0000 |       0.0000 |       0.0000 |       0.0000 |       0.0000 |       0.0000 |       0.0000 |       0.0000 |       0.0000 |       0.0000 |
itlb.inv_rate                               0.0000 |       0.0000 |       0.0000 |       0.0000 |       0.0000 |       0.0000 |       0.0000 |       0.0000 |       0.0000 |       0.0000 |       0.0000 |       0.0000 |       0.0000 |       0.0000 |       0.0000 |       0.0000 |       0.0000 |       0.0000 |       0.0000 |       0.0000 |       0.0000 |       0.0000 |       0.0000 |       0.0000 |       0.0000 |       0.0000 |       0.0000 |       0.0000 |       0.0000 |       0.0000 |       0.0000 |       0.0000 |       0.0000 |       0.0000 |       0.0000 |       0.0000 |       0.0000 |       0.0000 |       0.0000 |       0.0000 |       0.0000 |       0.0000 |       0.0000 |       0.0000 |
dtlb.accesses                               234452 |       234452 |       234452 |       234452 |       497099 |       497099 |       497099 |       497099 |      1056588 |      1056588 |      1056588 |      1056588 |      2239037 |      2239037 |      2239037 |      2239037 |      4738968 |      4738968 |      4738968 |      4738968 |      9992043 |      9992043 |      9992043 |      9992043 |     21040663 |     21040663 |     21040663 |     21040663 |     44149529 |     44149529 |     44149529 |     44149529 |     92546230 |     92546230 |     92546230 |     92546230 |    193385695 |    193385695 |    193385695 |    193385695 |    403734155 |    403734155 |    403734155 |    403734155 |
dtlb.hits                                   234436 |       234436 |       234436 |       234436 |       497075 |       497075 |       497075 |       497075 |      1056548 |      1056548 |      1056548 |      1056548 |      2238965 |      2238965 |      2238965 |      2238965 |      4738821 |      4738821 |      4738821 |      4738821 |      9991207 |      9991207 |      9991207 |      9991207 |     20983436 |     20983436 |     20983436 |     20983436 |     43798516 |     43798516 |     43798516 |     43798516 |     91252703 |     91252703 |     91252703 |     91252703 |    189532531 |    189532531 |    189532531 |    189532531 |    393435723 |    393435723 |    393435723 |    393435723 |
dtlb.misses                                     16 |           16 |           16 |           16 |           24 |           24 |           24 |           24 |           40 |           40 |           40 |           40 |           72 |           72 |           72 |           72 |          147 |          147 |          147 |          147 |          836 |          836 |          836 |          836 |        57227 |        57227 |        57227 |        57227 |       351013 |       351013 |       351013 |       351013 |      1293527 |      1293527 |      1293527 |      1293527 |      3853164 |      3853164 |      3853164 |      3853164 |     10298432 |     10298432 |     10298432 |     10298432 |
dtlb.replacements                                0 |            0 |            0 |            0 |            0 |            0 |            0 |            0 |            0 |            0 |            0 |            0 |            0 |            0 |            0 |            0 |           19 |           19 |           19 |           19 |          708 |          708 |          708 |          708 |        57099 |        57099 |        57099 |        57099 |       350885 |       350885 |       350885 |       350885 |      1293399 |      1293399 |      1293399 |      1293399 |      3853036 |      3853036 |      3853036 |      3853036 |     10298304 |     10298304 |     10298304 |     10298304 |
dtlb.writebacks                                  0 |            0 |            0 |            0 |            0 |            0 |            0 |            0 |            0 |            0 |            0 |            0 |            0 |            0 |            0 |            0 |           16 |           16 |           16 |           16 |          576 |          576 |          576 |          576 |        54017 |        54017 |        54017 |        54017 |       332197 |       332197 |       332197 |       332197 |      1233690 |      1233690 |      1233690 |      1233690 |      3703782 |      3703782 |      3703782 |      3703782 |      9960234 |      9960234 |      9960234 |      9960234 |
dtlb.invalidations                               0 |            0 |            0 |            0 |            0 |            0 |            0 |            0 |            0 |            0 |            0 |            0 |            0 |            0 |            0 |            0 |            0 |            0 |            0 |            0 |            0 |            0 |            0 |            0 |            0 |            0 |            0 |            0 |            0 |            0 |            0 |            0 |            0 |            0 |            0 |            0 |            0 |            0 |            0 |            0 |            0 |            0 |            0 |            0 |
dtlb.miss_rate                              0.0001 |       0.0001 |       0.0001 |       0.0001 |       0.0000 |       0.0000 |       0.0000 |       0.0000 |       0.0000 |       0.0000 |       0.0000 |       0.0000 |       0.0000 |       0.0000 |       0.0000 |       0.0000 |       0.0000 |       0.0000 |       0.0000 |       0.0000 |       0.0001 |       0.0001 |       0.0001 |       0.0001 |       0.0027 |       0.0027 |       0.0027 |       0.0027 |       0.0080 |       0.0080 |       0.0080 |       0.0080 |       0.0140 |       0.0140 |       0.0140 |       0.0140 |       0.0199 |       0.0199 |       0.0199 |       0.0199 |       0.0255 |       0.0255 |       0.0255 |       0.0255 |
dtlb.repl_rate                              0.0000 |       0.0000 |       0.0000 |       0.0000 |       0.0000 |       0.0000 |       0.0000 |       0.0000 |       0.0000 |       0.0000 |       0.0000 |       0.0000 |       0.0000 |       0.0000 |       0.0000 |       0.0000 |       0.0000 |       0.0000 |       0.0000 |       0.0000 |       0.0001 |       0.0001 |       0.0001 |       0.0001 |       0.0027 |       0.0027 |       0.0027 |       0.0027 |       0.0079 |       0.0079 |       0.0079 |       0.0079 |       0.0140 |       0.0140 |       0.0140 |       0.0140 |       0.0199 |       0.0199 |       0.0199 |       0.0199 |       0.0255 |       0.0255 |       0.0255 |       0.0255 |
dtlb.wb_rate                                0.0000 |       0.0000 |       0.0000 |       0.0000 |       0.0000 |       0.0000 |       0.0000 |       0.0000 |       0.0000 |       0.0000 |       0.0000 |       0.0000 |       0.0000 |       0.0000 |       0.0000 |       0.0000 |       0.0000 |       0.0000 |       0.0000 |       0.0000 |       0.0001 |       0.0001 |       0.0001 |       0.0001 |       0.0026 |       0.0026 |       0.0026 |       0.0026 |       0.0075 |       0.0075 |       0.0075 |       0.0075 |       0.0133 |       0.0133 |       0.0133 |       0.0133 |       0.0192 |       0.0192 |       0.0192 |       0.0192 |       0.0247 |       0.0247 |       0.0247 |       0.0247 |
dtlb.inv_rate                               0.0000 |       0.0000 |       0.0000 |       0.0000 |       0.0000 |       0.0000 |       0.0000 |       0.0000 |       0.0000 |       0.0000 |       0.0000 |       0.0000 |       0.0000 |       0.0000 |       0.0000 |       0.0000 |       0.0000 |       0.0000 |       0.0000 |       0.0000 |       0.0000 |       0.0000 |       0.0000 |       0.0000 |       0.0000 |       0.0000 |       0.0000 |       0.0000 |       0.0000 |       0.0000 |       0.0000 |       0.0000 |       0.0000 |       0.0000 |       0.0000 |       0.0000 |       0.0000 |       0.0000 |       0.0000 |       0.0000 |       0.0000 |       0.0000 |       0.0000 |       0.0000 |
ld_text_base                            0x00400000 |   0x00400000 |   0x00400000 |   0x00400000 |   0x00400000 |   0x00400000 |   0x00400000 |   0x00400000 |   0x00400000 |   0x00400000 |   0x00400000 |   0x00400000 |   0x00400000 |   0x00400000 |   0x00400000 |   0x00400000 |   0x00400000 |   0x00400000 |   0x00400000 |   0x00400000 |   0x00400000 |   0x00400000 |   0x00400000 |   0x00400000 |   0x00400000 |   0x00400000 |   0x00400000 |   0x00400000 |   0x00400000 |   0x00400000 |   0x00400000 |   0x00400000 |   0x00400000 |   0x00400000 |   0x00400000 |   0x00400000 |   0x00400000 |   0x00400000 |   0x00400000 |   0x00400000 |   0x00400000 |   0x00400000 |   0x00400000 |   0x00400000 |
ld_text_size                                 74304 |        74304 |        74304 |        74304 |        74336 |        74336 |        74336 |        74336 |        74352 |        74352 |        74352 |        74352 |        74368 |        74368 |        74368 |        74368 |        74368 |        74368 |        74368 |        74368 |        74368 |        74368 |        74368 |        74368 |        74368 |        74368 |        74368 |        74368 |        74368 |        74368 |        74368 |        74368 |        74368 |        74368 |        74368 |        74368 |        74368 |        74368 |        74368 |        74368 |        74368 |        74368 |        74368 |        74368 |
ld_data_base                            0x10000000 |   0x10000000 |   0x10000000 |   0x10000000 |   0x10000000 |   0x10000000 |   0x10000000 |   0x10000000 |   0x10000000 |   0x10000000 |   0x10000000 |   0x10000000 |   0x10000000 |   0x10000000 |   0x10000000 |   0x10000000 |   0x10000000 |   0x10000000 |   0x10000000 |   0x10000000 |   0x10000000 |   0x10000000 |   0x10000000 |   0x10000000 |   0x10000000 |   0x10000000 |   0x10000000 |   0x10000000 |   0x10000000 |   0x10000000 |   0x10000000 |   0x10000000 |   0x10000000 |   0x10000000 |   0x10000000 |   0x10000000 |   0x10000000 |   0x10000000 |   0x10000000 |   0x10000000 |   0x10000000 |   0x10000000 |   0x10000000 |   0x10000000 |
ld_data_size                                  8192 |         8192 |         8192 |         8192 |         8192 |         8192 |         8192 |         8192 |         8192 |         8192 |         8192 |         8192 |         8192 |         8192 |         8192 |         8192 |         8192 |         8192 |         8192 |         8192 |         8192 |         8192 |         8192 |         8192 |         8192 |         8192 |         8192 |         8192 |         8192 |         8192 |         8192 |         8192 |         8192 |         8192 |         8192 |         8192 |         8192 |         8192 |         8192 |         8192 |         8192 |         8192 |         8192 |         8192 |
ld_stack_base                           0x7fffc000 |   0x7fffc000 |   0x7fffc000 |   0x7fffc000 |   0x7fffc000 |   0x7fffc000 |   0x7fffc000 |   0x7fffc000 |   0x7fffc000 |   0x7fffc000 |   0x7fffc000 |   0x7fffc000 |   0x7fffc000 |   0x7fffc000 |   0x7fffc000 |   0x7fffc000 |   0x7fffc000 |   0x7fffc000 |   0x7fffc000 |   0x7fffc000 |   0x7fffc000 |   0x7fffc000 |   0x7fffc000 |   0x7fffc000 |   0x7fffc000 |   0x7fffc000 |   0x7fffc000 |   0x7fffc000 |   0x7fffc000 |   0x7fffc000 |   0x7fffc000 |   0x7fffc000 |   0x7fffc000 |   0x7fffc000 |   0x7fffc000 |   0x7fffc000 |   0x7fffc000 |   0x7fffc000 |   0x7fffc000 |   0x7fffc000 |   0x7fffc000 |   0x7fffc000 |   0x7fffc000 |   0x7fffc000 |
ld_stack_size                                16384 |        16384 |        16384 |        16384 |        16384 |        16384 |        16384 |        16384 |        16384 |        16384 |        16384 |        16384 |        16384 |        16384 |        16384 |        16384 |        16384 |        16384 |        16384 |        16384 |        16384 |        16384 |        16384 |        16384 |        16384 |        16384 |        16384 |        16384 |        16384 |        16384 |        16384 |        16384 |        16384 |        16384 |        16384 |        16384 |        16384 |        16384 |        16384 |        16384 |        16384 |        16384 |        16384 |        16384 |
ld_prog_entry                           0x00400140 |   0x00400140 |   0x00400140 |   0x00400140 |   0x00400140 |   0x00400140 |   0x00400140 |   0x00400140 |   0x00400140 |   0x00400140 |   0x00400140 |   0x00400140 |   0x00400140 |   0x00400140 |   0x00400140 |   0x00400140 |   0x00400140 |   0x00400140 |   0x00400140 |   0x00400140 |   0x00400140 |   0x00400140 |   0x00400140 |   0x00400140 |   0x00400140 |   0x00400140 |   0x00400140 |   0x00400140 |   0x00400140 |   0x00400140 |   0x00400140 |   0x00400140 |   0x00400140 |   0x00400140 |   0x00400140 |   0x00400140 |   0x00400140 |   0x00400140 |   0x00400140 |   0x00400140 |   0x00400140 |   0x00400140 |   0x00400140 |   0x00400140 |
ld_environ_base                         0x7fff8000 |   0x7fff8000 |   0x7fff8000 |   0x7fff8000 |   0x7fff8000 |   0x7fff8000 |   0x7fff8000 |   0x7fff8000 |   0x7fff8000 |   0x7fff8000 |   0x7fff8000 |   0x7fff8000 |   0x7fff8000 |   0x7fff8000 |   0x7fff8000 |   0x7fff8000 |   0x7fff8000 |   0x7fff8000 |   0x7fff8000 |   0x7fff8000 |   0x7fff8000 |   0x7fff8000 |   0x7fff8000 |   0x7fff8000 |   0x7fff8000 |   0x7fff8000 |   0x7fff8000 |   0x7fff8000 |   0x7fff8000 |   0x7fff8000 |   0x7fff8000 |   0x7fff8000 |   0x7fff8000 |   0x7fff8000 |   0x7fff8000 |   0x7fff8000 |   0x7fff8000 |   0x7fff8000 |   0x7fff8000 |   0x7fff8000 |   0x7fff8000 |   0x7fff8000 |   0x7fff8000 |   0x7fff8000 |
ld_target_big_endian                             0 |            0 |            0 |            0 |            0 |            0 |            0 |            0 |            0 |            0 |            0 |            0 |            0 |            0 |            0 |            0 |            0 |            0 |            0 |            0 |            0 |            0 |            0 |            0 |            0 |            0 |            0 |            0 |            0 |            0 |            0 |            0 |            0 |            0 |            0 |            0 |            0 |            0 |            0 |            0 |            0 |            0 |            0 |            0 |
mem.page_count                                  35 |           35 |           35 |           35 |           43 |           43 |           43 |           43 |           59 |           59 |           59 |           59 |           91 |           91 |           91 |           91 |          155 |          155 |          155 |          155 |          283 |          283 |          283 |          283 |          539 |          539 |          539 |          539 |         1051 |         1051 |         1051 |         1051 |         2081 |         2081 |         2081 |         2081 |         4135 |         4135 |         4135 |         4135 |         8243 |         8243 |         8243 |         8243 |
mem.page_mem                                  140k |         140k |         140k |         140k |         172k |         172k |         172k |         172k |         236k |         236k |         236k |         236k |         364k |         364k |         364k |         364k |         620k |         620k |         620k |         620k |        1132k |        1132k |        1132k |        1132k |        2156k |        2156k |        2156k |        2156k |        4204k |        4204k |        4204k |        4204k |        8324k |        8324k |        8324k |        8324k |       16540k |       16540k |       16540k |       16540k |       32972k |       32972k |       32972k |       32972k |
mem.ptab_misses                                 35 |           35 |           35 |           35 |           43 |           43 |           43 |           43 |           59 |           59 |           59 |           59 |           91 |           91 |           91 |           91 |          155 |          155 |          155 |          155 |          283 |          283 |          283 |          283 |          539 |          539 |          539 |          539 |         1051 |         1051 |         1051 |         1051 |         9152 |         9152 |         9152 |         9152 |        23526 |        23526 |        23526 |        23526 |        64738 |        64738 |        64738 |        64738 |
mem.ptab_accesses                          4410532 |      4410532 |      4410532 |      4410532 |      8919882 |      8919882 |      8919882 |      8919882 |     18579316 |     18579316 |     18579316 |     18579316 |     39065330 |     39065330 |     39065330 |     39065330 |     82555868 |     82555868 |     82555868 |     82555868 |    174200406 |    174200406 |    174200406 |    174200406 |    367604426 |    367604426 |    367604426 |    367604426 |    773050298 |    773050298 |    773050298 |    773050298 |   1624475720 |   1624475720 |   1624475720 |   1624475720 |   3402138422 |   3402138422 |   3402138422 |   3402138422 |   7118908262 |   7118908262 |   7118908262 |   7118908262 |
mem.ptab_miss_rate                          0.0000 |       0.0000 |       0.0000 |       0.0000 |       0.0000 |       0.0000 |       0.0000 |       0.0000 |       0.0000 |       0.0000 |       0.0000 |       0.0000 |       0.0000 |       0.0000 |       0.0000 |       0.0000 |       0.0000 |       0.0000 |       0.0000 |       0.0000 |       0.0000 |       0.0000 |       0.0000 |       0.0000 |       0.0000 |       0.0000 |       0.0000 |       0.0000 |       0.0000 |       0.0000 |       0.0000 |       0.0000 |       0.0000 |       0.0000 |       0.0000 |       0.0000 |       0.0000 |       0.0000 |       0.0000 |       0.0000 |       0.0000 |       0.0000 |       0.0000 |       0.0000 |
-------------------------------------------------------------------------------------------------
sim-bpred                                     4096 |         4096 |         4096 |         4096 |         4096 |         4096 |         4096 |         8192 |         8192 |         8192 |         8192 |         8192 |         8192 |         8192 |        16384 |        16384 |        16384 |        16384 |        16384 |        16384 |        16384 |        32768 |        32768 |        32768 |        32768 |        32768 |        32768 |        32768 |        65536 |        65536 |        65536 |        65536 |        65536 |        65536 |        65536 |       131072 |       131072 |       131072 |       131072 |       131072 |       131072 |       131072 |       262144 |       262144 |       262144 |       262144 |       262144 |       262144 |       262144 |       524288 |       524288 |       524288 |       524288 |       524288 |       524288 |       524288 |      1048576 |      1048576 |      1048576 |      1048576 |      1048576 |      1048576 |      1048576 |      2097152 |      2097152 |      2097152 |      2097152 |      2097152 |      2097152 |      2097152 |      4194304 |      4194304 |      4194304 |      4194304 |      4194304 |      4194304 |      4194304 |
-bpred bimod -bpred:bimod 512
-bpred bimod -bpred:bimod 1024
-bpred bimod -bpred:bimod 2048
-bpred 2lev -bpred:2lev 1 512 10 1
-bpred 2lev -bpred:2lev 1 1024 10 1
-bpred 2lev -bpred:2lev 1 2048 10 1
-bpred 2lev -bpred:2lev 1 4096 10 1
-------------------------------------------------------------------------------------------------
sim_num_insn                                870306 |       870306 |       870306 |       870306 |       870306 |       870306 |       870306 |      1866272 |      1866272 |      1866272 |      1866272 |      1866272 |      1866272 |      1866272 |      4001362 |      4001362 |      4001362 |      4001362 |      4001362 |      4001362 |      4001362 |      8531617 |      8531617 |      8531617 |      8531617 |      8531617 |      8531617 |      8531617 |     18154286 |     18154286 |     18154286 |     18154286 |     18154286 |     18154286 |     18154286 |     38438883 |     38438883 |     38438883 |     38438883 |     38438883 |     38438883 |     38438883 |     81265578 |     81265578 |     81265578 |     81265578 |     81265578 |     81265578 |     81265578 |    171072613 |    171072613 |    171072613 |    171072613 |    171072613 |    171072613 |    171072613 |    359730618 |    359730618 |    359730618 |    359730618 |    359730618 |    359730618 |    359730618 |    753726561 |    753726561 |    753726561 |    753726561 |    753726561 |    753726561 |    753726561 |   1577744791 |   1577744791 |   1577744791 |   1577744791 |   1577744791 |   1577744791 |   1577744791 |
sim_num_refs                                217986 |       217986 |       217986 |       217986 |       217986 |       217986 |       217986 |       464249 |       464249 |       464249 |       464249 |       464249 |       464249 |       464249 |       990970 |       990970 |       990970 |       990970 |       990970 |       990970 |       990970 |      2107883 |      2107883 |      2107883 |      2107883 |      2107883 |      2107883 |      2107883 |      4476742 |      4476742 |      4476742 |      4476742 |      4476742 |      4476742 |      4476742 |      9467673 |      9467673 |      9467673 |      9467673 |      9467673 |      9467673 |      9467673 |     19992005 |     19992005 |     19992005 |     19992005 |     19992005 |     19992005 |     19992005 |     42052295 |     42052295 |     42052295 |     42052295 |     42052295 |     42052295 |     42052295 |     88351844 |     88351844 |     88351844 |     88351844 |     88351844 |     88351844 |     88351844 |    184997005 |    184997005 |    184997005 |    184997005 |    184997005 |    184997005 |    184997005 |    386956857 |    386956857 |    386956857 |    386956857 |    386956857 |    386956857 |    386956857 |
sim_elapsed_time                                 1 |            1 |            1 |            1 |            1 |            1 |            1 |            1 |            1 |            1 |            1 |            1 |            1 |            1 |            1 |            1 |            1 |            1 |            1 |            1 |            1 |            2 |            1 |            1 |            1 |            1 |            1 |            1 |            2 |            3 |            2 |            3 |            2 |            2 |            3 |            5 |            5 |            5 |            5 |            5 |            5 |            5 |           11 |           11 |           10 |           11 |           11 |           10 |           11 |           22 |           23 |           22 |           22 |           23 |           22 |           23 |           47 |           47 |           47 |           47 |           48 |           47 |           47 |           98 |           99 |           98 |           99 |           99 |           99 |          101 |          203 |          204 |          203 |          206 |          207 |          207 |          206 |
sim_inst_rate                          870306.0000 |  870306.0000 |  870306.0000 |  870306.0000 |  870306.0000 |  870306.0000 |  870306.0000 | 1866272.0000 | 1866272.0000 | 1866272.0000 | 1866272.0000 | 1866272.0000 | 1866272.0000 | 1866272.0000 | 4001362.0000 | 4001362.0000 | 4001362.0000 | 4001362.0000 | 4001362.0000 | 4001362.0000 | 4001362.0000 | 4265808.5000 | 8531617.0000 | 8531617.0000 | 8531617.0000 | 8531617.0000 | 8531617.0000 | 8531617.0000 | 9077143.0000 | 6051428.6667 | 9077143.0000 | 6051428.6667 | 9077143.0000 | 9077143.0000 | 6051428.6667 | 7687776.6000 | 7687776.6000 | 7687776.6000 | 7687776.6000 | 7687776.6000 | 7687776.6000 | 7687776.6000 | 7387779.8182 | 7387779.8182 | 8126557.8000 | 7387779.8182 | 7387779.8182 | 8126557.8000 | 7387779.8182 | 7776027.8636 | 7437939.6957 | 7776027.8636 | 7776027.8636 | 7437939.6957 | 7776027.8636 | 7437939.6957 | 7653842.9362 | 7653842.9362 | 7653842.9362 | 7653842.9362 | 7494387.8750 | 7653842.9362 | 7653842.9362 | 7691087.3571 | 7613399.6061 | 7691087.3571 | 7613399.6061 | 7613399.6061 | 7613399.6061 | 7462639.2178 | 7772141.8276 | 7734043.0931 | 7772141.8276 | 7658955.2961 | 7621955.5121 | 7621955.5121 | 7658955.2961 |
sim_num_branches                            154914 |       154914 |       154914 |       154914 |       154914 |       154914 |       154914 |       333163 |       333163 |       333163 |       333163 |       333163 |       333163 |       333163 |       715249 |       715249 |       715249 |       715249 |       715249 |       715249 |       715249 |      1527245 |      1527245 |      1527245 |      1527245 |      1527245 |      1527245 |      1527245 |      3251735 |      3251735 |      3251735 |      3251735 |      3251735 |      3251735 |      3251735 |      6891744 |      6891744 |      6891744 |      6891744 |      6891744 |      6891744 |      6891744 |     14577266 |     14577266 |     14577266 |     14577266 |     14577266 |     14577266 |     14577266 |     30708543 |     30708543 |     30708543 |     30708543 |     30708543 |     30708543 |     30708543 |     64598455 |     64598455 |     64598455 |     64598455 |     64598455 |     64598455 |     64598455 |    135423608 |    135423608 |    135423608 |    135423608 |    135423608 |    135423608 |    135423608 |    283571558 |    283571558 |    283571558 |    283571558 |    283571558 |    283571558 |    283571558 |
sim_IPB                                     5.6180 |       5.6180 |       5.6180 |       5.6180 |       5.6180 |       5.6180 |       5.6180 |       5.6017 |       5.6017 |       5.6017 |       5.6017 |       5.6017 |       5.6017 |       5.6017 |       5.5944 |       5.5944 |       5.5944 |       5.5944 |       5.5944 |       5.5944 |       5.5944 |       5.5863 |       5.5863 |       5.5863 |       5.5863 |       5.5863 |       5.5863 |       5.5863 |       5.5830 |       5.5830 |       5.5830 |       5.5830 |       5.5830 |       5.5830 |       5.5830 |       5.5775 |       5.5775 |       5.5775 |       5.5775 |       5.5775 |       5.5775 |       5.5775 |       5.5748 |       5.5748 |       5.5748 |       5.5748 |       5.5748 |       5.5748 |       5.5748 |       5.5708 |       5.5708 |       5.5708 |       5.5708 |       5.5708 |       5.5708 |       5.5708 |       5.5687 |       5.5687 |       5.5687 |       5.5687 |       5.5687 |       5.5687 |       5.5687 |       5.5657 |       5.5657 |       5.5657 |       5.5657 |       5.5657 |       5.5657 |       5.5657 |       5.5638 |       5.5638 |       5.5638 |       5.5638 |       5.5638 |       5.5638 |       5.5638 |
bpred_bimod.lookups                         154914 |       154914 |       154914 |xxxxxxxxxxxxx |xxxxxxxxxxxxx |xxxxxxxxxxxxx |xxxxxxxxxxxxx |       333163 |       333163 |       333163 |xxxxxxxxxxxxx |xxxxxxxxxxxxx |xxxxxxxxxxxxx |xxxxxxxxxxxxx |       715249 |       715249 |       715249 |xxxxxxxxxxxxx |xxxxxxxxxxxxx |xxxxxxxxxxxxx |xxxxxxxxxxxxx |      1527245 |      1527245 |      1527245 |xxxxxxxxxxxxx |xxxxxxxxxxxxx |xxxxxxxxxxxxx |xxxxxxxxxxxxx |      3251735 |      3251735 |      3251735 |xxxxxxxxxxxxx |xxxxxxxxxxxxx |xxxxxxxxxxxxx |xxxxxxxxxxxxx |      6891744 |      6891744 |      6891744 |xxxxxxxxxxxxx |xxxxxxxxxxxxx |xxxxxxxxxxxxx |xxxxxxxxxxxxx |     14577266 |     14577266 |     14577266 |xxxxxxxxxxxxx |xxxxxxxxxxxxx |xxxxxxxxxxxxx |xxxxxxxxxxxxx |     30708543 |     30708543 |     30708543 |xxxxxxxxxxxxx |xxxxxxxxxxxxx |xxxxxxxxxxxxx |xxxxxxxxxxxxx |     64598455 |     64598455 |     64598455 |xxxxxxxxxxxxx |xxxxxxxxxxxxx |xxxxxxxxxxxxx |xxxxxxxxxxxxx |    135423608 |    135423608 |    135423608 |xxxxxxxxxxxxx |xxxxxxxxxxxxx |xxxxxxxxxxxxx |xxxxxxxxxxxxx |    283571558 |    283571558 |    283571558 |
bpred_bimod.updates                         154914 |       154914 |       154914 |xxxxxxxxxxxxx |xxxxxxxxxxxxx |xxxxxxxxxxxxx |xxxxxxxxxxxxx |       333163 |       333163 |       333163 |xxxxxxxxxxxxx |xxxxxxxxxxxxx |xxxxxxxxxxxxx |xxxxxxxxxxxxx |       715249 |       715249 |       715249 |xxxxxxxxxxxxx |xxxxxxxxxxxxx |xxxxxxxxxxxxx |xxxxxxxxxxxxx |      1527245 |      1527245 |      1527245 |xxxxxxxxxxxxx |xxxxxxxxxxxxx |xxxxxxxxxxxxx |xxxxxxxxxxxxx |      3251735 |      3251735 |      3251735 |xxxxxxxxxxxxx |xxxxxxxxxxxxx |xxxxxxxxxxxxx |xxxxxxxxxxxxx |      6891744 |      6891744 |      6891744 |xxxxxxxxxxxxx |xxxxxxxxxxxxx |xxxxxxxxxxxxx |xxxxxxxxxxxxx |     14577266 |     14577266 |     14577266 |xxxxxxxxxxxxx |xxxxxxxxxxxxx |xxxxxxxxxxxxx |xxxxxxxxxxxxx |     30708543 |     30708543 |     30708543 |xxxxxxxxxxxxx |xxxxxxxxxxxxx |xxxxxxxxxxxxx |xxxxxxxxxxxxx |     64598455 |     64598455 |     64598455 |xxxxxxxxxxxxx |xxxxxxxxxxxxx |xxxxxxxxxxxxx |xxxxxxxxxxxxx |    135423608 |    135423608 |    135423608 |xxxxxxxxxxxxx |xxxxxxxxxxxxx |xxxxxxxxxxxxx |xxxxxxxxxxxxx |    283571558 |    283571558 |    283571558 |
bpred_bimod.addr_hits                       124214 |       124223 |       124223 |xxxxxxxxxxxxx |xxxxxxxxxxxxx |xxxxxxxxxxxxx |xxxxxxxxxxxxx |       267276 |       267282 |       267282 |xxxxxxxxxxxxx |xxxxxxxxxxxxx |xxxxxxxxxxxxx |xxxxxxxxxxxxx |       573766 |       573772 |       573773 |xxxxxxxxxxxxx |xxxxxxxxxxxxx |xxxxxxxxxxxxx |xxxxxxxxxxxxx |      1223311 |      1223317 |      1223320 |xxxxxxxxxxxxx |xxxxxxxxxxxxx |xxxxxxxxxxxxx |xxxxxxxxxxxxx |      2603678 |      2603684 |      2603687 |xxxxxxxxxxxxx |xxxxxxxxxxxxx |xxxxxxxxxxxxx |xxxxxxxxxxxxx |      5515033 |      5515040 |      5515042 |xxxxxxxxxxxxx |xxxxxxxxxxxxx |xxxxxxxxxxxxx |xxxxxxxxxxxxx |     11670911 |     11670918 |     11670920 |xxxxxxxxxxxxx |xxxxxxxxxxxxx |xxxxxxxxxxxxx |xxxxxxxxxxxxx |     24567236 |     24567243 |     24567245 |xxxxxxxxxxxxx |xxxxxxxxxxxxx |xxxxxxxxxxxxx |xxxxxxxxxxxxx |     51711253 |     51711259 |     51711260 |xxxxxxxxxxxxx |xxxxxxxxxxxxx |xxxxxxxxxxxxx |xxxxxxxxxxxxx |    108309500 |    108309506 |    108309507 |xxxxxxxxxxxxx |xxxxxxxxxxxxx |xxxxxxxxxxxxx |xxxxxxxxxxxxx |    226942052 |    226942058 |    226942059 |
bpred_bimod.dir_hits                        124335 |       124344 |       124345 |xxxxxxxxxxxxx |xxxxxxxxxxxxx |xxxxxxxxxxxxx |xxxxxxxxxxxxx |       267401 |       267407 |       267407 |xxxxxxxxxxxxx |xxxxxxxxxxxxx |xxxxxxxxxxxxx |xxxxxxxxxxxxx |       573892 |       573898 |       573899 |xxxxxxxxxxxxx |xxxxxxxxxxxxx |xxxxxxxxxxxxx |xxxxxxxxxxxxx |      1223437 |      1223443 |      1223446 |xxxxxxxxxxxxx |xxxxxxxxxxxxx |xxxxxxxxxxxxx |xxxxxxxxxxxxx |      2603803 |      2603809 |      2603812 |xxxxxxxxxxxxx |xxxxxxxxxxxxx |xxxxxxxxxxxxx |xxxxxxxxxxxxx |      5515159 |      5515166 |      5515168 |xxxxxxxxxxxxx |xxxxxxxxxxxxx |xxxxxxxxxxxxx |xxxxxxxxxxxxx |     11671038 |     11671045 |     11671047 |xxxxxxxxxxxxx |xxxxxxxxxxxxx |xxxxxxxxxxxxx |xxxxxxxxxxxxx |     24567363 |     24567370 |     24567372 |xxxxxxxxxxxxx |xxxxxxxxxxxxx |xxxxxxxxxxxxx |xxxxxxxxxxxxx |     51711391 |     51711397 |     51711398 |xxxxxxxxxxxxx |xxxxxxxxxxxxx |xxxxxxxxxxxxx |xxxxxxxxxxxxx |    108309638 |    108309644 |    108309645 |xxxxxxxxxxxxx |xxxxxxxxxxxxx |xxxxxxxxxxxxx |xxxxxxxxxxxxx |    226942190 |    226942196 |    226942197 |
bpred_bimod.misses                           30579 |        30570 |        30569 |xxxxxxxxxxxxx |xxxxxxxxxxxxx |xxxxxxxxxxxxx |xxxxxxxxxxxxx |        65762 |        65756 |        65756 |xxxxxxxxxxxxx |xxxxxxxxxxxxx |xxxxxxxxxxxxx |xxxxxxxxxxxxx |       141357 |       141351 |       141350 |xxxxxxxxxxxxx |xxxxxxxxxxxxx |xxxxxxxxxxxxx |xxxxxxxxxxxxx |       303808 |       303802 |       303799 |xxxxxxxxxxxxx |xxxxxxxxxxxxx |xxxxxxxxxxxxx |xxxxxxxxxxxxx |       647932 |       647926 |       647923 |xxxxxxxxxxxxx |xxxxxxxxxxxxx |xxxxxxxxxxxxx |xxxxxxxxxxxxx |      1376585 |      1376578 |      1376576 |xxxxxxxxxxxxx |xxxxxxxxxxxxx |xxxxxxxxxxxxx |xxxxxxxxxxxxx |      2906228 |      2906221 |      2906219 |xxxxxxxxxxxxx |xxxxxxxxxxxxx |xxxxxxxxxxxxx |xxxxxxxxxxxxx |      6141180 |      6141173 |      6141171 |xxxxxxxxxxxxx |xxxxxxxxxxxxx |xxxxxxxxxxxxx |xxxxxxxxxxxxx |     12887064 |     12887058 |     12887057 |xxxxxxxxxxxxx |xxxxxxxxxxxxx |xxxxxxxxxxxxx |xxxxxxxxxxxxx |     27113970 |     27113964 |     27113963 |xxxxxxxxxxxxx |xxxxxxxxxxxxx |xxxxxxxxxxxxx |xxxxxxxxxxxxx |     56629368 |     56629362 |     56629361 |
bpred_bimod.jr_hits                           4157 |         4157 |         4157 |xxxxxxxxxxxxx |xxxxxxxxxxxxx |xxxxxxxxxxxxx |xxxxxxxxxxxxx |         8261 |         8261 |         8261 |xxxxxxxxxxxxx |xxxxxxxxxxxxx |xxxxxxxxxxxxx |xxxxxxxxxxxxx |        16453 |        16453 |        16453 |xxxxxxxxxxxxx |xxxxxxxxxxxxx |xxxxxxxxxxxxx |xxxxxxxxxxxxx |        32837 |        32837 |        32837 |xxxxxxxxxxxxx |xxxxxxxxxxxxx |xxxxxxxxxxxxx |xxxxxxxxxxxxx |        65605 |        65605 |        65605 |xxxxxxxxxxxxx |xxxxxxxxxxxxx |xxxxxxxxxxxxx |xxxxxxxxxxxxx |       131141 |       131141 |       131141 |xxxxxxxxxxxxx |xxxxxxxxxxxxx |xxxxxxxxxxxxx |xxxxxxxxxxxxx |       262213 |       262213 |       262213 |xxxxxxxxxxxxx |xxxxxxxxxxxxx |xxxxxxxxxxxxx |xxxxxxxxxxxxx |       524357 |       524357 |       524357 |xxxxxxxxxxxxx |xxxxxxxxxxxxx |xxxxxxxxxxxxx |xxxxxxxxxxxxx |      1048648 |      1048648 |      1048648 |xxxxxxxxxxxxx |xxxxxxxxxxxxx |xxxxxxxxxxxxx |xxxxxxxxxxxxx |      2097224 |      2097224 |      2097224 |xxxxxxxxxxxxx |xxxxxxxxxxxxx |xxxxxxxxxxxxx |xxxxxxxxxxxxx |      4194376 |      4194376 |      4194376 |
bpred_bimod.jr_seen                           4157 |         4157 |         4157 |xxxxxxxxxxxxx |xxxxxxxxxxxxx |xxxxxxxxxxxxx |xxxxxxxxxxxxx |         8262 |         8262 |         8262 |xxxxxxxxxxxxx |xxxxxxxxxxxxx |xxxxxxxxxxxxx |xxxxxxxxxxxxx |        16454 |        16454 |        16454 |xxxxxxxxxxxxx |xxxxxxxxxxxxx |xxxxxxxxxxxxx |xxxxxxxxxxxxx |        32838 |        32838 |        32838 |xxxxxxxxxxxxx |xxxxxxxxxxxxx |xxxxxxxxxxxxx |xxxxxxxxxxxxx |        65606 |        65606 |        65606 |xxxxxxxxxxxxx |xxxxxxxxxxxxx |xxxxxxxxxxxxx |xxxxxxxxxxxxx |       131142 |       131142 |       131142 |xxxxxxxxxxxxx |xxxxxxxxxxxxx |xxxxxxxxxxxxx |xxxxxxxxxxxxx |       262214 |       262214 |       262214 |xxxxxxxxxxxxx |xxxxxxxxxxxxx |xxxxxxxxxxxxx |xxxxxxxxxxxxx |       524358 |       524358 |       524358 |xxxxxxxxxxxxx |xxxxxxxxxxxxx |xxxxxxxxxxxxx |xxxxxxxxxxxxx |      1048649 |      1048649 |      1048649 |xxxxxxxxxxxxx |xxxxxxxxxxxxx |xxxxxxxxxxxxx |xxxxxxxxxxxxx |      2097225 |      2097225 |      2097225 |xxxxxxxxxxxxx |xxxxxxxxxxxxx |xxxxxxxxxxxxx |xxxxxxxxxxxxx |      4194377 |      4194377 |      4194377 |
bpred_bimod.jr_non_ras_hits.PP                   0 |            0 |            0 |xxxxxxxxxxxxx |xxxxxxxxxxxxx |xxxxxxxxxxxxx |xxxxxxxxxxxxx |            0 |            0 |            0 |xxxxxxxxxxxxx |xxxxxxxxxxxxx |xxxxxxxxxxxxx |xxxxxxxxxxxxx |            0 |            0 |            0 |xxxxxxxxxxxxx |xxxxxxxxxxxxx |xxxxxxxxxxxxx |xxxxxxxxxxxxx |            0 |            0 |            0 |xxxxxxxxxxxxx |xxxxxxxxxxxxx |xxxxxxxxxxxxx |xxxxxxxxxxxxx |            0 |            0 |            0 |xxxxxxxxxxxxx |xxxxxxxxxxxxx |xxxxxxxxxxxxx |xxxxxxxxxxxxx |            0 |            0 |            0 |xxxxxxxxxxxxx |xxxxxxxxxxxxx |xxxxxxxxxxxxx |xxxxxxxxxxxxx |            0 |            0 |            0 |xxxxxxxxxxxxx |xxxxxxxxxxxxx |xxxxxxxxxxxxx |xxxxxxxxxxxxx |            0 |            0 |            0 |xxxxxxxxxxxxx |xxxxxxxxxxxxx |xxxxxxxxxxxxx |xxxxxxxxxxxxx |            0 |            0 |            0 |xxxxxxxxxxxxx |xxxxxxxxxxxxx |xxxxxxxxxxxxx |xxxxxxxxxxxxx |            0 |            0 |            0 |xxxxxxxxxxxxx |xxxxxxxxxxxxx |xxxxxxxxxxxxx |xxxxxxxxxxxxx |            0 |            0 |            0 |
bpred_bimod.jr_non_ras_seen.PP                   0 |            0 |            0 |xxxxxxxxxxxxx |xxxxxxxxxxxxx |xxxxxxxxxxxxx |xxxxxxxxxxxxx |            0 |            0 |            0 |xxxxxxxxxxxxx |xxxxxxxxxxxxx |xxxxxxxxxxxxx |xxxxxxxxxxxxx |            0 |            0 |            0 |xxxxxxxxxxxxx |xxxxxxxxxxxxx |xxxxxxxxxxxxx |xxxxxxxxxxxxx |            0 |            0 |            0 |xxxxxxxxxxxxx |xxxxxxxxxxxxx |xxxxxxxxxxxxx |xxxxxxxxxxxxx |            0 |            0 |            0 |xxxxxxxxxxxxx |xxxxxxxxxxxxx |xxxxxxxxxxxxx |xxxxxxxxxxxxx |            0 |            0 |            0 |xxxxxxxxxxxxx |xxxxxxxxxxxxx |xxxxxxxxxxxxx |xxxxxxxxxxxxx |            0 |            0 |            0 |xxxxxxxxxxxxx |xxxxxxxxxxxxx |xxxxxxxxxxxxx |xxxxxxxxxxxxx |            0 |            0 |            0 |xxxxxxxxxxxxx |xxxxxxxxxxxxx |xxxxxxxxxxxxx |xxxxxxxxxxxxx |            1 |            1 |            1 |xxxxxxxxxxxxx |xxxxxxxxxxxxx |xxxxxxxxxxxxx |xxxxxxxxxxxxx |            1 |            1 |            1 |xxxxxxxxxxxxx |xxxxxxxxxxxxx |xxxxxxxxxxxxx |xxxxxxxxxxxxx |            1 |            1 |            1 |
bpred_bimod.bpred_addr_rate                 0.8018 |       0.8019 |       0.8019 |xxxxxxxxxxxxx |xxxxxxxxxxxxx |xxxxxxxxxxxxx |xxxxxxxxxxxxx |       0.8022 |       0.8023 |       0.8023 |xxxxxxxxxxxxx |xxxxxxxxxxxxx |xxxxxxxxxxxxx |xxxxxxxxxxxxx |       0.8022 |       0.8022 |       0.8022 |xxxxxxxxxxxxx |xxxxxxxxxxxxx |xxxxxxxxxxxxx |xxxxxxxxxxxxx |       0.8010 |       0.8010 |       0.8010 |xxxxxxxxxxxxx |xxxxxxxxxxxxx |xxxxxxxxxxxxx |xxxxxxxxxxxxx |       0.8007 |       0.8007 |       0.8007 |xxxxxxxxxxxxx |xxxxxxxxxxxxx |xxxxxxxxxxxxx |xxxxxxxxxxxxx |       0.8002 |       0.8002 |       0.8002 |xxxxxxxxxxxxx |xxxxxxxxxxxxx |xxxxxxxxxxxxx |xxxxxxxxxxxxx |       0.8006 |       0.8006 |       0.8006 |xxxxxxxxxxxxx |xxxxxxxxxxxxx |xxxxxxxxxxxxx |xxxxxxxxxxxxx |       0.8000 |       0.8000 |       0.8000 |xxxxxxxxxxxxx |xxxxxxxxxxxxx |xxxxxxxxxxxxx |xxxxxxxxxxxxx |       0.8005 |       0.8005 |       0.8005 |xxxxxxxxxxxxx |xxxxxxxxxxxxx |xxxxxxxxxxxxx |xxxxxxxxxxxxx |       0.7998 |       0.7998 |       0.7998 |xxxxxxxxxxxxx |xxxxxxxxxxxxx |xxxxxxxxxxxxx |xxxxxxxxxxxxx |       0.8003 |       0.8003 |       0.8003 |
bpred_bimod.bpred_dir_rate                  0.8026 |       0.8027 |       0.8027 |xxxxxxxxxxxxx |xxxxxxxxxxxxx |xxxxxxxxxxxxx |xxxxxxxxxxxxx |       0.8026 |       0.8026 |       0.8026 |xxxxxxxxxxxxx |xxxxxxxxxxxxx |xxxxxxxxxxxxx |xxxxxxxxxxxxx |       0.8024 |       0.8024 |       0.8024 |xxxxxxxxxxxxx |xxxxxxxxxxxxx |xxxxxxxxxxxxx |xxxxxxxxxxxxx |       0.8011 |       0.8011 |       0.8011 |xxxxxxxxxxxxx |xxxxxxxxxxxxx |xxxxxxxxxxxxx |xxxxxxxxxxxxx |       0.8007 |       0.8007 |       0.8007 |xxxxxxxxxxxxx |xxxxxxxxxxxxx |xxxxxxxxxxxxx |xxxxxxxxxxxxx |       0.8003 |       0.8003 |       0.8003 |xxxxxxxxxxxxx |xxxxxxxxxxxxx |xxxxxxxxxxxxx |xxxxxxxxxxxxx |       0.8006 |       0.8006 |       0.8006 |xxxxxxxxxxxxx |xxxxxxxxxxxxx |xxxxxxxxxxxxx |xxxxxxxxxxxxx |       0.8000 |       0.8000 |       0.8000 |xxxxxxxxxxxxx |xxxxxxxxxxxxx |xxxxxxxxxxxxx |xxxxxxxxxxxxx |       0.8005 |       0.8005 |       0.8005 |xxxxxxxxxxxxx |xxxxxxxxxxxxx |xxxxxxxxxxxxx |xxxxxxxxxxxxx |       0.7998 |       0.7998 |       0.7998 |xxxxxxxxxxxxx |xxxxxxxxxxxxx |xxxxxxxxxxxxx |xxxxxxxxxxxxx |       0.8003 |       0.8003 |       0.8003 |
bpred_bimod.bpred_jr_rate                   1.0000 |       1.0000 |       1.0000 |xxxxxxxxxxxxx |xxxxxxxxxxxxx |xxxxxxxxxxxxx |xxxxxxxxxxxxx |       0.9999 |       0.9999 |       0.9999 |xxxxxxxxxxxxx |xxxxxxxxxxxxx |xxxxxxxxxxxxx |xxxxxxxxxxxxx |       0.9999 |       0.9999 |       0.9999 |xxxxxxxxxxxxx |xxxxxxxxxxxxx |xxxxxxxxxxxxx |xxxxxxxxxxxxx |       1.0000 |       1.0000 |       1.0000 |xxxxxxxxxxxxx |xxxxxxxxxxxxx |xxxxxxxxxxxxx |xxxxxxxxxxxxx |       1.0000 |       1.0000 |       1.0000 |xxxxxxxxxxxxx |xxxxxxxxxxxxx |xxxxxxxxxxxxx |xxxxxxxxxxxxx |       1.0000 |       1.0000 |       1.0000 |xxxxxxxxxxxxx |xxxxxxxxxxxxx |xxxxxxxxxxxxx |xxxxxxxxxxxxx |       1.0000 |       1.0000 |       1.0000 |xxxxxxxxxxxxx |xxxxxxxxxxxxx |xxxxxxxxxxxxx |xxxxxxxxxxxxx |       1.0000 |       1.0000 |       1.0000 |xxxxxxxxxxxxx |xxxxxxxxxxxxx |xxxxxxxxxxxxx |xxxxxxxxxxxxx |       1.0000 |       1.0000 |       1.0000 |xxxxxxxxxxxxx |xxxxxxxxxxxxx |xxxxxxxxxxxxx |xxxxxxxxxxxxx |       1.0000 |       1.0000 |       1.0000 |xxxxxxxxxxxxx |xxxxxxxxxxxxx |xxxxxxxxxxxxx |xxxxxxxxxxxxx |       1.0000 |       1.0000 |       1.0000 |
bpred_bimod.bpred_jr_non_ras_rate.PP       <error: |      <error: |      <error: |xxxxxxxxxxxxx |xxxxxxxxxxxxx |xxxxxxxxxxxxx |xxxxxxxxxxxxx |      <error: |      <error: |      <error: |xxxxxxxxxxxxx |xxxxxxxxxxxxx |xxxxxxxxxxxxx |xxxxxxxxxxxxx |      <error: |      <error: |      <error: |xxxxxxxxxxxxx |xxxxxxxxxxxxx |xxxxxxxxxxxxx |xxxxxxxxxxxxx |      <error: |      <error: |      <error: |xxxxxxxxxxxxx |xxxxxxxxxxxxx |xxxxxxxxxxxxx |xxxxxxxxxxxxx |      <error: |      <error: |      <error: |xxxxxxxxxxxxx |xxxxxxxxxxxxx |xxxxxxxxxxxxx |xxxxxxxxxxxxx |      <error: |      <error: |      <error: |xxxxxxxxxxxxx |xxxxxxxxxxxxx |xxxxxxxxxxxxx |xxxxxxxxxxxxx |      <error: |      <error: |      <error: |xxxxxxxxxxxxx |xxxxxxxxxxxxx |xxxxxxxxxxxxx |xxxxxxxxxxxxx |      <error: |      <error: |      <error: |xxxxxxxxxxxxx |xxxxxxxxxxxxx |xxxxxxxxxxxxx |xxxxxxxxxxxxx |       0.0000 |       0.0000 |       0.0000 |xxxxxxxxxxxxx |xxxxxxxxxxxxx |xxxxxxxxxxxxx |xxxxxxxxxxxxx |       0.0000 |       0.0000 |       0.0000 |xxxxxxxxxxxxx |xxxxxxxxxxxxx |xxxxxxxxxxxxx |xxxxxxxxxxxxx |       0.0000 |       0.0000 |       0.0000 |
bpred_bimod.retstack_pushes                   4159 |         4159 |         4159 |xxxxxxxxxxxxx |xxxxxxxxxxxxx |xxxxxxxxxxxxx |xxxxxxxxxxxxx |         8264 |         8264 |         8264 |xxxxxxxxxxxxx |xxxxxxxxxxxxx |xxxxxxxxxxxxx |xxxxxxxxxxxxx |        16456 |        16456 |        16456 |xxxxxxxxxxxxx |xxxxxxxxxxxxx |xxxxxxxxxxxxx |xxxxxxxxxxxxx |        32840 |        32840 |        32840 |xxxxxxxxxxxxx |xxxxxxxxxxxxx |xxxxxxxxxxxxx |xxxxxxxxxxxxx |        65608 |        65608 |        65608 |xxxxxxxxxxxxx |xxxxxxxxxxxxx |xxxxxxxxxxxxx |xxxxxxxxxxxxx |       131144 |       131144 |       131144 |xxxxxxxxxxxxx |xxxxxxxxxxxxx |xxxxxxxxxxxxx |xxxxxxxxxxxxx |       262216 |       262216 |       262216 |xxxxxxxxxxxxx |xxxxxxxxxxxxx |xxxxxxxxxxxxx |xxxxxxxxxxxxx |       524360 |       524360 |       524360 |xxxxxxxxxxxxx |xxxxxxxxxxxxx |xxxxxxxxxxxxx |xxxxxxxxxxxxx |      1048650 |      1048650 |      1048650 |xxxxxxxxxxxxx |xxxxxxxxxxxxx |xxxxxxxxxxxxx |xxxxxxxxxxxxx |      2097226 |      2097226 |      2097226 |xxxxxxxxxxxxx |xxxxxxxxxxxxx |xxxxxxxxxxxxx |xxxxxxxxxxxxx |      4194378 |      4194378 |      4194378 |
bpred_bimod.retstack_pops                     4157 |         4157 |         4157 |xxxxxxxxxxxxx |xxxxxxxxxxxxx |xxxxxxxxxxxxx |xxxxxxxxxxxxx |         8262 |         8262 |         8262 |xxxxxxxxxxxxx |xxxxxxxxxxxxx |xxxxxxxxxxxxx |xxxxxxxxxxxxx |        16454 |        16454 |        16454 |xxxxxxxxxxxxx |xxxxxxxxxxxxx |xxxxxxxxxxxxx |xxxxxxxxxxxxx |        32838 |        32838 |        32838 |xxxxxxxxxxxxx |xxxxxxxxxxxxx |xxxxxxxxxxxxx |xxxxxxxxxxxxx |        65606 |        65606 |        65606 |xxxxxxxxxxxxx |xxxxxxxxxxxxx |xxxxxxxxxxxxx |xxxxxxxxxxxxx |       131142 |       131142 |       131142 |xxxxxxxxxxxxx |xxxxxxxxxxxxx |xxxxxxxxxxxxx |xxxxxxxxxxxxx |       262214 |       262214 |       262214 |xxxxxxxxxxxxx |xxxxxxxxxxxxx |xxxxxxxxxxxxx |xxxxxxxxxxxxx |       524358 |       524358 |       524358 |xxxxxxxxxxxxx |xxxxxxxxxxxxx |xxxxxxxxxxxxx |xxxxxxxxxxxxx |      1048648 |      1048648 |      1048648 |xxxxxxxxxxxxx |xxxxxxxxxxxxx |xxxxxxxxxxxxx |xxxxxxxxxxxxx |      2097224 |      2097224 |      2097224 |xxxxxxxxxxxxx |xxxxxxxxxxxxx |xxxxxxxxxxxxx |xxxxxxxxxxxxx |      4194376 |      4194376 |      4194376 |
bpred_bimod.used_ras.PP                       4157 |         4157 |         4157 |xxxxxxxxxxxxx |xxxxxxxxxxxxx |xxxxxxxxxxxxx |xxxxxxxxxxxxx |         8262 |         8262 |         8262 |xxxxxxxxxxxxx |xxxxxxxxxxxxx |xxxxxxxxxxxxx |xxxxxxxxxxxxx |        16454 |        16454 |        16454 |xxxxxxxxxxxxx |xxxxxxxxxxxxx |xxxxxxxxxxxxx |xxxxxxxxxxxxx |        32838 |        32838 |        32838 |xxxxxxxxxxxxx |xxxxxxxxxxxxx |xxxxxxxxxxxxx |xxxxxxxxxxxxx |        65606 |        65606 |        65606 |xxxxxxxxxxxxx |xxxxxxxxxxxxx |xxxxxxxxxxxxx |xxxxxxxxxxxxx |       131142 |       131142 |       131142 |xxxxxxxxxxxxx |xxxxxxxxxxxxx |xxxxxxxxxxxxx |xxxxxxxxxxxxx |       262214 |       262214 |       262214 |xxxxxxxxxxxxx |xxxxxxxxxxxxx |xxxxxxxxxxxxx |xxxxxxxxxxxxx |       524358 |       524358 |       524358 |xxxxxxxxxxxxx |xxxxxxxxxxxxx |xxxxxxxxxxxxx |xxxxxxxxxxxxx |      1048648 |      1048648 |      1048648 |xxxxxxxxxxxxx |xxxxxxxxxxxxx |xxxxxxxxxxxxx |xxxxxxxxxxxxx |      2097224 |      2097224 |      2097224 |xxxxxxxxxxxxx |xxxxxxxxxxxxx |xxxxxxxxxxxxx |xxxxxxxxxxxxx |      4194376 |      4194376 |      4194376 |
bpred_bimod.ras_hits.PP                       4157 |         4157 |         4157 |xxxxxxxxxxxxx |xxxxxxxxxxxxx |xxxxxxxxxxxxx |xxxxxxxxxxxxx |         8261 |         8261 |         8261 |xxxxxxxxxxxxx |xxxxxxxxxxxxx |xxxxxxxxxxxxx |xxxxxxxxxxxxx |        16453 |        16453 |        16453 |xxxxxxxxxxxxx |xxxxxxxxxxxxx |xxxxxxxxxxxxx |xxxxxxxxxxxxx |        32837 |        32837 |        32837 |xxxxxxxxxxxxx |xxxxxxxxxxxxx |xxxxxxxxxxxxx |xxxxxxxxxxxxx |        65605 |        65605 |        65605 |xxxxxxxxxxxxx |xxxxxxxxxxxxx |xxxxxxxxxxxxx |xxxxxxxxxxxxx |       131141 |       131141 |       131141 |xxxxxxxxxxxxx |xxxxxxxxxxxxx |xxxxxxxxxxxxx |xxxxxxxxxxxxx |       262213 |       262213 |       262213 |xxxxxxxxxxxxx |xxxxxxxxxxxxx |xxxxxxxxxxxxx |xxxxxxxxxxxxx |       524357 |       524357 |       524357 |xxxxxxxxxxxxx |xxxxxxxxxxxxx |xxxxxxxxxxxxx |xxxxxxxxxxxxx |      1048648 |      1048648 |      1048648 |xxxxxxxxxxxxx |xxxxxxxxxxxxx |xxxxxxxxxxxxx |xxxxxxxxxxxxx |      2097224 |      2097224 |      2097224 |xxxxxxxxxxxxx |xxxxxxxxxxxxx |xxxxxxxxxxxxx |xxxxxxxxxxxxx |      4194376 |      4194376 |      4194376 |
bpred_bimod.ras_rate.PP                     1.0000 |       1.0000 |       1.0000 |xxxxxxxxxxxxx |xxxxxxxxxxxxx |xxxxxxxxxxxxx |xxxxxxxxxxxxx |       0.9999 |       0.9999 |       0.9999 |xxxxxxxxxxxxx |xxxxxxxxxxxxx |xxxxxxxxxxxxx |xxxxxxxxxxxxx |       0.9999 |       0.9999 |       0.9999 |xxxxxxxxxxxxx |xxxxxxxxxxxxx |xxxxxxxxxxxxx |xxxxxxxxxxxxx |       1.0000 |       1.0000 |       1.0000 |xxxxxxxxxxxxx |xxxxxxxxxxxxx |xxxxxxxxxxxxx |xxxxxxxxxxxxx |       1.0000 |       1.0000 |       1.0000 |xxxxxxxxxxxxx |xxxxxxxxxxxxx |xxxxxxxxxxxxx |xxxxxxxxxxxxx |       1.0000 |       1.0000 |       1.0000 |xxxxxxxxxxxxx |xxxxxxxxxxxxx |xxxxxxxxxxxxx |xxxxxxxxxxxxx |       1.0000 |       1.0000 |       1.0000 |xxxxxxxxxxxxx |xxxxxxxxxxxxx |xxxxxxxxxxxxx |xxxxxxxxxxxxx |       1.0000 |       1.0000 |       1.0000 |xxxxxxxxxxxxx |xxxxxxxxxxxxx |xxxxxxxxxxxxx |xxxxxxxxxxxxx |       1.0000 |       1.0000 |       1.0000 |xxxxxxxxxxxxx |xxxxxxxxxxxxx |xxxxxxxxxxxxx |xxxxxxxxxxxxx |       1.0000 |       1.0000 |       1.0000 |xxxxxxxxxxxxx |xxxxxxxxxxxxx |xxxxxxxxxxxxx |xxxxxxxxxxxxx |       1.0000 |       1.0000 |       1.0000 |
bpred_2lev.lookups                   xxxxxxxxxxxxx |xxxxxxxxxxxxx |xxxxxxxxxxxxx |       154914 |       154914 |       154914 |       154914 |xxxxxxxxxxxxx |xxxxxxxxxxxxx |xxxxxxxxxxxxx |       333163 |       333163 |       333163 |       333163 |xxxxxxxxxxxxx |xxxxxxxxxxxxx |xxxxxxxxxxxxx |       715249 |       715249 |       715249 |       715249 |xxxxxxxxxxxxx |xxxxxxxxxxxxx |xxxxxxxxxxxxx |      1527245 |      1527245 |      1527245 |      1527245 |xxxxxxxxxxxxx |xxxxxxxxxxxxx |xxxxxxxxxxxxx |      3251735 |      3251735 |      3251735 |      3251735 |xxxxxxxxxxxxx |xxxxxxxxxxxxx |xxxxxxxxxxxxx |      6891744 |      6891744 |      6891744 |      6891744 |xxxxxxxxxxxxx |xxxxxxxxxxxxx |xxxxxxxxxxxxx |     14577266 |     14577266 |     14577266 |     14577266 |xxxxxxxxxxxxx |xxxxxxxxxxxxx |xxxxxxxxxxxxx |     30708543 |     30708543 |     30708543 |     30708543 |xxxxxxxxxxxxx |xxxxxxxxxxxxx |xxxxxxxxxxxxx |     64598455 |     64598455 |     64598455 |     64598455 |xxxxxxxxxxxxx |xxxxxxxxxxxxx |xxxxxxxxxxxxx |    135423608 |    135423608 |    135423608 |    135423608 |xxxxxxxxxxxxx |xxxxxxxxxxxxx |xxxxxxxxxxxxx |    283571558 |    283571558 |    283571558 |    283571558 |
[...]
bpred_2lev.retstack_pushes           xxxxxxxxxxxxx |xxxxxxxxxxxxx |xxxxxxxxxxxxx |         4159 |         4159 |         4159 |         4159 |xxxxxxxxxxxxx |xxxxxxxxxxxxx |xxxxxxxxxxxxx |         8264 |         8264 |         8264 |         8264 |xxxxxxxxxxxxx |xxxxxxxxxxxxx |xxxxxxxxxxxxx |        16456 |        16456 |        16456 |        16456 |xxxxxxxxxxxxx |xxxxxxxxxxxxx |xxxxxxxxxxxxx |        32840 |        32840 |        32840 |        32840 |xxxxxxxxxxxxx |xxxxxxxxxxxxx |xxxxxxxxxxxxx |        65608 |        65608 |        65608 |        65608 |xxxxxxxxxxxxx |xxxxxxxxxxxxx |xxxxxxxxxxxxx |       131144 |       131144 |       131144 |       131144 |xxxxxxxxxxxxx |xxxxxxxxxxxxx |xxxxxxxxxxxxx |       262216 |       262216 |       262216 |       262216 |xxxxxxxxxxxxx |xxxxxxxxxxxxx |xxxxxxxxxxxxx |       524360 |       524360 |       524360 |       524360 |xxxxxxxxxxxxx |xxxxxxxxxxxxx |xxxxxxxxxxxxx |      1048650 |      1048650 |      1048650 |      1048650 |xxxxxxxxxxxxx |xxxxxxxxxxxxx |xxxxxxxxxxxxx |      2097226 |      2097226 |      2097226 |      2097226 |xxxxxxxxxxxxx |xxxxxxxxxxxxx |xxxxxxxxxxxxx |      4194378 |      4194378 |      4194378 |      4194378 |
bpred_2lev.retstack_pops             xxxxxxxxxxxxx |xxxxxxxxxxxxx |xxxxxxxxxxxxx |         4157 |         4157 |         4157 |         4157 |xxxxxxxxxxxxx |xxxxxxxxxxxxx |xxxxxxxxxxxxx |         8262 |         8262 |         8262 |         8262 |xxxxxxxxxxxxx |xxxxxxxxxxxxx |xxxxxxxxxxxxx |        16454 |        16454 |        16454 |        16454 |xxxxxxxxxxxxx |xxxxxxxxxxxxx |xxxxxxxxxxxxx |        32838 |        32838 |        32838 |        32838 |xxxxxxxxxxxxx |xxxxxxxxxxxxx |xxxxxxxxxxxxx |        65606 |        65606 |        65606 |        65606 |xxxxxxxxxxxxx |xxxxxxxxxxxxx |xxxxxxxxxxxxx |       131142 |       131142 |       131142 |       131142 |xxxxxxxxxxxxx |xxxxxxxxxxxxx |xxxxxxxxxxxxx |       262214 |       262214 |       262214 |       262214 |xxxxxxxxxxxxx |xxxxxxxxxxxxx |xxxxxxxxxxxxx |       524358 |       524358 |       524358 |       524358 |xxxxxxxxxxxxx |xxxxxxxxxxxxx |xxxxxxxxxxxxx |      1048648 |      1048648 |      1048648 |      1048648 |xxxxxxxxxxxxx |xxxxxxxxxxxxx |xxxxxxxxxxxxx |      2097224 |      2097224 |      2097224 |      2097224 |xxxxxxxxxxxxx |xxxxxxxxxxxxx |xxxxxxxxxxxxx |      4194376 |      4194376 |      4194376 |      4194376 |
bpred_2lev.used_ras.PP               xxxxxxxxxxxxx |xxxxxxxxxxxxx |xxxxxxxxxxxxx |         4157 |         4157 |         4157 |         4157 |xxxxxxxxxxxxx |xxxxxxxxxxxxx |xxxxxxxxxxxxx |         8262 |         8262 |         8262 |         8262 |xxxxxxxxxxxxx |xxxxxxxxxxxxx |xxxxxxxxxxxxx |        16454 |        16454 |        16454 |        16454 |xxxxxxxxxxxxx |xxxxxxxxxxxxx |xxxxxxxxxxxxx |        32838 |        32838 |        32838 |        32838 |xxxxxxxxxxxxx |xxxxxxxxxxxxx |xxxxxxxxxxxxx |        65606 |        65606 |        65606 |        65606 |xxxxxxxxxxxxx |xxxxxxxxxxxxx |xxxxxxxxxxxxx |       131142 |       131142 |       131142 |       131142 |xxxxxxxxxxxxx |xxxxxxxxxxxxx |xxxxxxxxxxxxx |       262214 |       262214 |       262214 |       262214 |xxxxxxxxxxxxx |xxxxxxxxxxxxx |xxxxxxxxxxxxx |       524358 |       524358 |       524358 |       524358 |xxxxxxxxxxxxx |xxxxxxxxxxxxx |xxxxxxxxxxxxx |      1048648 |      1048648 |      1048648 |      1048648 |xxxxxxxxxxxxx |xxxxxxxxxxxxx |xxxxxxxxxxxxx |      2097224 |      2097224 |      2097224 |      2097224 |xxxxxxxxxxxxx |xxxxxxxxxxxxx |xxxxxxxxxxxxx |      4194376 |      4194376 |      4194376 |      4194376 |
bpred_2lev.ras_hits.PP               xxxxxxxxxxxxx |xxxxxxxxxxxxx |xxxxxxxxxxxxx |         4157 |         4157 |         4157 |         4157 |xxxxxxxxxxxxx |xxxxxxxxxxxxx |xxxxxxxxxxxxx |         8261 |         8261 |         8261 |         8261 |xxxxxxxxxxxxx |xxxxxxxxxxxxx |xxxxxxxxxxxxx |        16453 |        16453 |        16453 |        16453 |xxxxxxxxxxxxx |xxxxxxxxxxxxx |xxxxxxxxxxxxx |        32837 |        32837 |        32837 |        32837 |xxxxxxxxxxxxx |xxxxxxxxxxxxx |xxxxxxxxxxxxx |        65605 |        65605 |        65605 |        65605 |xxxxxxxxxxxxx |xxxxxxxxxxxxx |xxxxxxxxxxxxx |       131141 |       131141 |       131141 |       131141 |xxxxxxxxxxxxx |xxxxxxxxxxxxx |xxxxxxxxxxxxx |       262213 |       262213 |       262213 |       262213 |xxxxxxxxxxxxx |xxxxxxxxxxxxx |xxxxxxxxxxxxx |       524357 |       524357 |       524357 |       524357 |xxxxxxxxxxxxx |xxxxxxxxxxxxx |xxxxxxxxxxxxx |      1048648 |      1048648 |      1048648 |      1048648 |xxxxxxxxxxxxx |xxxxxxxxxxxxx |xxxxxxxxxxxxx |      2097224 |      2097224 |      2097224 |      2097224 |xxxxxxxxxxxxx |xxxxxxxxxxxxx |xxxxxxxxxxxxx |      4194376 |      4194376 |      4194376 |      4194376 |
bpred_2lev.ras_rate.PP               xxxxxxxxxxxxx |xxxxxxxxxxxxx |xxxxxxxxxxxxx |       1.0000 |       1.0000 |       1.0000 |       1.0000 |xxxxxxxxxxxxx |xxxxxxxxxxxxx |xxxxxxxxxxxxx |       0.9999 |       0.9999 |       0.9999 |       0.9999 |xxxxxxxxxxxxx |xxxxxxxxxxxxx |xxxxxxxxxxxxx |       0.9999 |       0.9999 |       0.9999 |       0.9999 |xxxxxxxxxxxxx |xxxxxxxxxxxxx |xxxxxxxxxxxxx |       1.0000 |       1.0000 |       1.0000 |       1.0000 |xxxxxxxxxxxxx |xxxxxxxxxxxxx |xxxxxxxxxxxxx |       1.0000 |       1.0000 |       1.0000 |       1.0000 |xxxxxxxxxxxxx |xxxxxxxxxxxxx |xxxxxxxxxxxxx |       1.0000 |       1.0000 |       1.0000 |       1.0000 |xxxxxxxxxxxxx |xxxxxxxxxxxxx |xxxxxxxxxxxxx |       1.0000 |       1.0000 |       1.0000 |       1.0000 |xxxxxxxxxxxxx |xxxxxxxxxxxxx |xxxxxxxxxxxxx |       1.0000 |       1.0000 |       1.0000 |       1.0000 |xxxxxxxxxxxxx |xxxxxxxxxxxxx |xxxxxxxxxxxxx |       1.0000 |       1.0000 |       1.0000 |       1.0000 |xxxxxxxxxxxxx |xxxxxxxxxxxxx |xxxxxxxxxxxxx |       1.0000 |       1.0000 |       1.0000 |       1.0000 |xxxxxxxxxxxxx |xxxxxxxxxxxxx |xxxxxxxxxxxxx |       1.0000 |       1.0000 |       1.0000 |       1.0000 |

Command list: 
	sslittle-na-sstrix-gcc -Wall -O3 -funroll-loops -finline-functions  -DRANDOM_SIZE=4096 -DOFFSET=6 -DSORT=cache4_heapsort sorts/cache4_heapsort1100110637.c simpleMain.c -o cache4_heapsort1509236042
	sim-cache -cache:dl1 dl1:256:32:1:l -cache:dl2 dl2:131072:32:1:l -cache:il1 il1:256:32:1:l -cache:il2 dl2 cache4_heapsort1509236042
	sim-cache -cache:dl1 dl1:256:32:1:l -cache:dl2 dl2:65536:32:1:l -cache:il1 il1:256:32:1:l -cache:il2 dl2 cache4_heapsort1509236042
	sim-cache -cache:dl1 dl1:1:32:256:l -cache:dl2 dl2:1:32:131072:l -cache:il1 il1:1:32:256:l -cache:il2 dl2 cache4_heapsort1509236042
	sim-cache -cache:dl1 dl1:1:32:256:l -cache:dl2 dl2:1:32:65536:l -cache:il1 il1:1:32:256:l -cache:il2 dl2 cache4_heapsort1509236042
	sim-bpred -bpred bimod -bpred:bimod 512 cache4_heapsort1509236042
	sim-bpred -bpred bimod -bpred:bimod 1024 cache4_heapsort1509236042
	sim-bpred -bpred bimod -bpred:bimod 2048 cache4_heapsort1509236042
	sim-bpred -bpred 2lev -bpred:2lev 1 512 10 1 cache4_heapsort1509236042
	sim-bpred -bpred 2lev -bpred:2lev 1 1024 10 1 cache4_heapsort1509236042
	sim-bpred -bpred 2lev -bpred:2lev 1 2048 10 1 cache4_heapsort1509236042
	sim-bpred -bpred 2lev -bpred:2lev 1 4096 10 1 cache4_heapsort1509236042
	sslittle-na-sstrix-gcc -Wall -O3 -funroll-loops -finline-functions  -DRANDOM_SIZE=8192 -DOFFSET=6 -DSORT=cache4_heapsort sorts/cache4_heapsort1100110637.c simpleMain.c -o cache4_heapsort1509236042
	sim-cache -cache:dl1 dl1:256:32:1:l -cache:dl2 dl2:131072:32:1:l -cache:il1 il1:256:32:1:l -cache:il2 dl2 cache4_heapsort1509236042
	sim-cache -cache:dl1 dl1:256:32:1:l -cache:dl2 dl2:65536:32:1:l -cache:il1 il1:256:32:1:l -cache:il2 dl2 cache4_heapsort1509236042
	sim-cache -cache:dl1 dl1:1:32:256:l -cache:dl2 dl2:1:32:131072:l -cache:il1 il1:1:32:256:l -cache:il2 dl2 cache4_heapsort1509236042
	sim-cache -cache:dl1 dl1:1:32:256:l -cache:dl2 dl2:1:32:65536:l -cache:il1 il1:1:32:256:l -cache:il2 dl2 cache4_heapsort1509236042
	sim-bpred -bpred bimod -bpred:bimod 512 cache4_heapsort1509236042
	sim-bpred -bpred bimod -bpred:bimod 1024 cache4_heapsort1509236042
	sim-bpred -bpred bimod -bpred:bimod 2048 cache4_heapsort1509236042
	sim-bpred -bpred 2lev -bpred:2lev 1 512 10 1 cache4_heapsort1509236042
	sim-bpred -bpred 2lev -bpred:2lev 1 1024 10 1 cache4_heapsort1509236042
	sim-bpred -bpred 2lev -bpred:2lev 1 2048 10 1 cache4_heapsort1509236042
	sim-bpred -bpred 2lev -bpred:2lev 1 4096 10 1 cache4_heapsort1509236042
	sslittle-na-sstrix-gcc -Wall -O3 -funroll-loops -finline-functions  -DRANDOM_SIZE=16384 -DOFFSET=6 -DSORT=cache4_heapsort sorts/cache4_heapsort1100110637.c simpleMain.c -o cache4_heapsort1509236042
	sim-cache -cache:dl1 dl1:256:32:1:l -cache:dl2 dl2:131072:32:1:l -cache:il1 il1:256:32:1:l -cache:il2 dl2 cache4_heapsort1509236042
	sim-cache -cache:dl1 dl1:256:32:1:l -cache:dl2 dl2:65536:32:1:l -cache:il1 il1:256:32:1:l -cache:il2 dl2 cache4_heapsort1509236042
	sim-cache -cache:dl1 dl1:1:32:256:l -cache:dl2 dl2:1:32:131072:l -cache:il1 il1:1:32:256:l -cache:il2 dl2 cache4_heapsort1509236042
	sim-cache -cache:dl1 dl1:1:32:256:l -cache:dl2 dl2:1:32:65536:l -cache:il1 il1:1:32:256:l -cache:il2 dl2 cache4_heapsort1509236042
	sim-bpred -bpred bimod -bpred:bimod 512 cache4_heapsort1509236042
	sim-bpred -bpred bimod -bpred:bimod 1024 cache4_heapsort1509236042
	sim-bpred -bpred bimod -bpred:bimod 2048 cache4_heapsort1509236042
	sim-bpred -bpred 2lev -bpred:2lev 1 512 10 1 cache4_heapsort1509236042
	sim-bpred -bpred 2lev -bpred:2lev 1 1024 10 1 cache4_heapsort1509236042
	sim-bpred -bpred 2lev -bpred:2lev 1 2048 10 1 cache4_heapsort1509236042
	sim-bpred -bpred 2lev -bpred:2lev 1 4096 10 1 cache4_heapsort1509236042
	sslittle-na-sstrix-gcc -Wall -O3 -funroll-loops -finline-functions  -DRANDOM_SIZE=32768 -DOFFSET=6 -DSORT=cache4_heapsort sorts/cache4_heapsort1100110637.c simpleMain.c -o cache4_heapsort1509236042
	sim-cache -cache:dl1 dl1:256:32:1:l -cache:dl2 dl2:131072:32:1:l -cache:il1 il1:256:32:1:l -cache:il2 dl2 cache4_heapsort1509236042
	sim-cache -cache:dl1 dl1:256:32:1:l -cache:dl2 dl2:65536:32:1:l -cache:il1 il1:256:32:1:l -cache:il2 dl2 cache4_heapsort1509236042
	sim-cache -cache:dl1 dl1:1:32:256:l -cache:dl2 dl2:1:32:131072:l -cache:il1 il1:1:32:256:l -cache:il2 dl2 cache4_heapsort1509236042
	sim-cache -cache:dl1 dl1:1:32:256:l -cache:dl2 dl2:1:32:65536:l -cache:il1 il1:1:32:256:l -cache:il2 dl2 cache4_heapsort1509236042
	sim-bpred -bpred bimod -bpred:bimod 512 cache4_heapsort1509236042
	sim-bpred -bpred bimod -bpred:bimod 1024 cache4_heapsort1509236042
	sim-bpred -bpred bimod -bpred:bimod 2048 cache4_heapsort1509236042
	sim-bpred -bpred 2lev -bpred:2lev 1 512 10 1 cache4_heapsort1509236042
	sim-bpred -bpred 2lev -bpred:2lev 1 1024 10 1 cache4_heapsort1509236042
	sim-bpred -bpred 2lev -bpred:2lev 1 2048 10 1 cache4_heapsort1509236042
	sim-bpred -bpred 2lev -bpred:2lev 1 4096 10 1 cache4_heapsort1509236042
	sslittle-na-sstrix-gcc -Wall -O3 -funroll-loops -finline-functions  -DRANDOM_SIZE=65536 -DOFFSET=6 -DSORT=cache4_heapsort sorts/cache4_heapsort1100110637.c simpleMain.c -o cache4_heapsort1509236042
	sim-cache -cache:dl1 dl1:256:32:1:l -cache:dl2 dl2:131072:32:1:l -cache:il1 il1:256:32:1:l -cache:il2 dl2 cache4_heapsort1509236042
	sim-cache -cache:dl1 dl1:256:32:1:l -cache:dl2 dl2:65536:32:1:l -cache:il1 il1:256:32:1:l -cache:il2 dl2 cache4_heapsort1509236042
	sim-cache -cache:dl1 dl1:1:32:256:l -cache:dl2 dl2:1:32:131072:l -cache:il1 il1:1:32:256:l -cache:il2 dl2 cache4_heapsort1509236042
	sim-cache -cache:dl1 dl1:1:32:256:l -cache:dl2 dl2:1:32:65536:l -cache:il1 il1:1:32:256:l -cache:il2 dl2 cache4_heapsort1509236042
	sim-bpred -bpred bimod -bpred:bimod 512 cache4_heapsort1509236042
	sim-bpred -bpred bimod -bpred:bimod 1024 cache4_heapsort1509236042
	sim-bpred -bpred bimod -bpred:bimod 2048 cache4_heapsort1509236042
	sim-bpred -bpred 2lev -bpred:2lev 1 512 10 1 cache4_heapsort1509236042
	sim-bpred -bpred 2lev -bpred:2lev 1 1024 10 1 cache4_heapsort1509236042
	sim-bpred -bpred 2lev -bpred:2lev 1 2048 10 1 cache4_heapsort1509236042
	sim-bpred -bpred 2lev -bpred:2lev 1 4096 10 1 cache4_heapsort1509236042
	sslittle-na-sstrix-gcc -Wall -O3 -funroll-loops -finline-functions  -DRANDOM_SIZE=131072 -DOFFSET=6 -DSORT=cache4_heapsort sorts/cache4_heapsort1100110637.c simpleMain.c -o cache4_heapsort1509236042
	sim-cache -cache:dl1 dl1:256:32:1:l -cache:dl2 dl2:131072:32:1:l -cache:il1 il1:256:32:1:l -cache:il2 dl2 cache4_heapsort1509236042
	sim-cache -cache:dl1 dl1:256:32:1:l -cache:dl2 dl2:65536:32:1:l -cache:il1 il1:256:32:1:l -cache:il2 dl2 cache4_heapsort1509236042
	sim-cache -cache:dl1 dl1:1:32:256:l -cache:dl2 dl2:1:32:131072:l -cache:il1 il1:1:32:256:l -cache:il2 dl2 cache4_heapsort1509236042
	sim-cache -cache:dl1 dl1:1:32:256:l -cache:dl2 dl2:1:32:65536:l -cache:il1 il1:1:32:256:l -cache:il2 dl2 cache4_heapsort1509236042
	sim-bpred -bpred bimod -bpred:bimod 512 cache4_heapsort1509236042
	sim-bpred -bpred bimod -bpred:bimod 1024 cache4_heapsort1509236042
	sim-bpred -bpred bimod -bpred:bimod 2048 cache4_heapsort1509236042
	sim-bpred -bpred 2lev -bpred:2lev 1 512 10 1 cache4_heapsort1509236042
	sim-bpred -bpred 2lev -bpred:2lev 1 1024 10 1 cache4_heapsort1509236042
	sim-bpred -bpred 2lev -bpred:2lev 1 2048 10 1 cache4_heapsort1509236042
	sim-bpred -bpred 2lev -bpred:2lev 1 4096 10 1 cache4_heapsort1509236042
	sslittle-na-sstrix-gcc -Wall -O3 -funroll-loops -finline-functions  -DRANDOM_SIZE=262144 -DOFFSET=6 -DSORT=cache4_heapsort sorts/cache4_heapsort1100110637.c simpleMain.c -o cache4_heapsort1509236042
	sim-cache -cache:dl1 dl1:256:32:1:l -cache:dl2 dl2:131072:32:1:l -cache:il1 il1:256:32:1:l -cache:il2 dl2 cache4_heapsort1509236042
	sim-cache -cache:dl1 dl1:256:32:1:l -cache:dl2 dl2:65536:32:1:l -cache:il1 il1:256:32:1:l -cache:il2 dl2 cache4_heapsort1509236042
	sim-cache -cache:dl1 dl1:1:32:256:l -cache:dl2 dl2:1:32:131072:l -cache:il1 il1:1:32:256:l -cache:il2 dl2 cache4_heapsort1509236042
	sim-cache -cache:dl1 dl1:1:32:256:l -cache:dl2 dl2:1:32:65536:l -cache:il1 il1:1:32:256:l -cache:il2 dl2 cache4_heapsort1509236042
	sim-bpred -bpred bimod -bpred:bimod 512 cache4_heapsort1509236042
	sim-bpred -bpred bimod -bpred:bimod 1024 cache4_heapsort1509236042
	sim-bpred -bpred bimod -bpred:bimod 2048 cache4_heapsort1509236042
	sim-bpred -bpred 2lev -bpred:2lev 1 512 10 1 cache4_heapsort1509236042
	sim-bpred -bpred 2lev -bpred:2lev 1 1024 10 1 cache4_heapsort1509236042
	sim-bpred -bpred 2lev -bpred:2lev 1 2048 10 1 cache4_heapsort1509236042
	sim-bpred -bpred 2lev -bpred:2lev 1 4096 10 1 cache4_heapsort1509236042
	sslittle-na-sstrix-gcc -Wall -O3 -funroll-loops -finline-functions  -DRANDOM_SIZE=524288 -DOFFSET=6 -DSORT=cache4_heapsort sorts/cache4_heapsort1100110637.c simpleMain.c -o cache4_heapsort1509236042
	sim-cache -cache:dl1 dl1:256:32:1:l -cache:dl2 dl2:131072:32:1:l -cache:il1 il1:256:32:1:l -cache:il2 dl2 cache4_heapsort1509236042
	sim-cache -cache:dl1 dl1:256:32:1:l -cache:dl2 dl2:65536:32:1:l -cache:il1 il1:256:32:1:l -cache:il2 dl2 cache4_heapsort1509236042
	sim-cache -cache:dl1 dl1:1:32:256:l -cache:dl2 dl2:1:32:131072:l -cache:il1 il1:1:32:256:l -cache:il2 dl2 cache4_heapsort1509236042
	sim-cache -cache:dl1 dl1:1:32:256:l -cache:dl2 dl2:1:32:65536:l -cache:il1 il1:1:32:256:l -cache:il2 dl2 cache4_heapsort1509236042
	sim-bpred -bpred bimod -bpred:bimod 512 cache4_heapsort1509236042
	sim-bpred -bpred bimod -bpred:bimod 1024 cache4_heapsort1509236042
	sim-bpred -bpred bimod -bpred:bimod 2048 cache4_heapsort1509236042
	sim-bpred -bpred 2lev -bpred:2lev 1 512 10 1 cache4_heapsort1509236042
	sim-bpred -bpred 2lev -bpred:2lev 1 1024 10 1 cache4_heapsort1509236042
	sim-bpred -bpred 2lev -bpred:2lev 1 2048 10 1 cache4_heapsort1509236042
	sim-bpred -bpred 2lev -bpred:2lev 1 4096 10 1 cache4_heapsort1509236042
	sslittle-na-sstrix-gcc -Wall -O3 -funroll-loops -finline-functions  -DRANDOM_SIZE=1048576 -DOFFSET=6 -DSORT=cache4_heapsort sorts/cache4_heapsort1100110637.c simpleMain.c -o cache4_heapsort1509236042
	sim-cache -cache:dl1 dl1:256:32:1:l -cache:dl2 dl2:131072:32:1:l -cache:il1 il1:256:32:1:l -cache:il2 dl2 cache4_heapsort1509236042
	sim-cache -cache:dl1 dl1:256:32:1:l -cache:dl2 dl2:65536:32:1:l -cache:il1 il1:256:32:1:l -cache:il2 dl2 cache4_heapsort1509236042
	sim-cache -cache:dl1 dl1:1:32:256:l -cache:dl2 dl2:1:32:131072:l -cache:il1 il1:1:32:256:l -cache:il2 dl2 cache4_heapsort1509236042
	sim-cache -cache:dl1 dl1:1:32:256:l -cache:dl2 dl2:1:32:65536:l -cache:il1 il1:1:32:256:l -cache:il2 dl2 cache4_heapsort1509236042
	sim-bpred -bpred bimod -bpred:bimod 512 cache4_heapsort1509236042
	sim-bpred -bpred bimod -bpred:bimod 1024 cache4_heapsort1509236042
	sim-bpred -bpred bimod -bpred:bimod 2048 cache4_heapsort1509236042
	sim-bpred -bpred 2lev -bpred:2lev 1 512 10 1 cache4_heapsort1509236042
	sim-bpred -bpred 2lev -bpred:2lev 1 1024 10 1 cache4_heapsort1509236042
	sim-bpred -bpred 2lev -bpred:2lev 1 2048 10 1 cache4_heapsort1509236042
	sim-bpred -bpred 2lev -bpred:2lev 1 4096 10 1 cache4_heapsort1509236042
	sslittle-na-sstrix-gcc -Wall -O3 -funroll-loops -finline-functions  -DRANDOM_SIZE=2097152 -DOFFSET=6 -DSORT=cache4_heapsort sorts/cache4_heapsort1100110637.c simpleMain.c -o cache4_heapsort1509236042
	sim-cache -cache:dl1 dl1:256:32:1:l -cache:dl2 dl2:131072:32:1:l -cache:il1 il1:256:32:1:l -cache:il2 dl2 cache4_heapsort1509236042
	sim-cache -cache:dl1 dl1:256:32:1:l -cache:dl2 dl2:65536:32:1:l -cache:il1 il1:256:32:1:l -cache:il2 dl2 cache4_heapsort1509236042
	sim-cache -cache:dl1 dl1:1:32:256:l -cache:dl2 dl2:1:32:131072:l -cache:il1 il1:1:32:256:l -cache:il2 dl2 cache4_heapsort1509236042
	sim-cache -cache:dl1 dl1:1:32:256:l -cache:dl2 dl2:1:32:65536:l -cache:il1 il1:1:32:256:l -cache:il2 dl2 cache4_heapsort1509236042
	sim-bpred -bpred bimod -bpred:bimod 512 cache4_heapsort1509236042
	sim-bpred -bpred bimod -bpred:bimod 1024 cache4_heapsort1509236042
	sim-bpred -bpred bimod -bpred:bimod 2048 cache4_heapsort1509236042
	sim-bpred -bpred 2lev -bpred:2lev 1 512 10 1 cache4_heapsort1509236042
	sim-bpred -bpred 2lev -bpred:2lev 1 1024 10 1 cache4_heapsort1509236042
	sim-bpred -bpred 2lev -bpred:2lev 1 2048 10 1 cache4_heapsort1509236042
	sim-bpred -bpred 2lev -bpred:2lev 1 4096 10 1 cache4_heapsort1509236042
	sslittle-na-sstrix-gcc -Wall -O3 -funroll-loops -finline-functions  -DRANDOM_SIZE=4194304 -DOFFSET=6 -DSORT=cache4_heapsort sorts/cache4_heapsort1100110637.c simpleMain.c -o cache4_heapsort1509236042
	sim-cache -cache:dl1 dl1:256:32:1:l -cache:dl2 dl2:131072:32:1:l -cache:il1 il1:256:32:1:l -cache:il2 dl2 cache4_heapsort1509236042
	sim-cache -cache:dl1 dl1:256:32:1:l -cache:dl2 dl2:65536:32:1:l -cache:il1 il1:256:32:1:l -cache:il2 dl2 cache4_heapsort1509236042
	sim-cache -cache:dl1 dl1:1:32:256:l -cache:dl2 dl2:1:32:131072:l -cache:il1 il1:1:32:256:l -cache:il2 dl2 cache4_heapsort1509236042
	sim-cache -cache:dl1 dl1:1:32:256:l -cache:dl2 dl2:1:32:65536:l -cache:il1 il1:1:32:256:l -cache:il2 dl2 cache4_heapsort1509236042
	sim-bpred -bpred bimod -bpred:bimod 512 cache4_heapsort1509236042
	sim-bpred -bpred bimod -bpred:bimod 1024 cache4_heapsort1509236042
	sim-bpred -bpred bimod -bpred:bimod 2048 cache4_heapsort1509236042
	sim-bpred -bpred 2lev -bpred:2lev 1 512 10 1 cache4_heapsort1509236042
	sim-bpred -bpred 2lev -bpred:2lev 1 1024 10 1 cache4_heapsort1509236042
	sim-bpred -bpred 2lev -bpred:2lev 1 2048 10 1 cache4_heapsort1509236042
	sim-bpred -bpred 2lev -bpred:2lev 1 4096 10 1 cache4_heapsort1509236042
