Mon Jun 28 08:53:58 2004
Run as: "./simple -c 16 byte random.org -L 16 cache4_heapsort"
-------------------------------------------------------------------------------------------------
sim-cache                                     4096 |         4096 |         4096 |         4096 |         8192 |         8192 |         8192 |         8192 |        16384 |        16384 |        16384 |        16384 |        32768 |        32768 |        32768 |        32768 |        65536 |        65536 |        65536 |        65536 |       131072 |       131072 |       131072 |       131072 |       262144 |       262144 |       262144 |       262144 |       524288 |       524288 |       524288 |       524288 |      1048576 |      1048576 |      1048576 |      1048576 |      2097152 |      2097152 |      2097152 |      2097152 |      4194304 |      4194304 |      4194304 |      4194304 |
-cache:dl1 dl1:512:16:1:l -cache:dl2 dl2:262144:16:1:l -cache:il1 il1:512:16:1:l -cache:il2 dl2
-cache:dl1 dl1:512:16:1:l -cache:dl2 dl2:131072:16:1:l -cache:il1 il1:512:16:1:l -cache:il2 dl2
-cache:dl1 dl1:1:16:512:l -cache:dl2 dl2:1:16:262144:l -cache:il1 il1:1:16:512:l -cache:il2 dl2
-cache:dl1 dl1:1:16:512:l -cache:dl2 dl2:1:16:131072:l -cache:il1 il1:1:16:512:l -cache:il2 dl2
-------------------------------------------------------------------------------------------------
sim_num_insn                                870960 |       870960 |       870960 |       870960 |      1868173 |      1868173 |      1868173 |      1868173 |      4003196 |      4003196 |      4003196 |      4003196 |      8531680 |      8531680 |      8531680 |      8531680 |     18152807 |     18152807 |     18152807 |     18152807 |     38444567 |     38444567 |     38444567 |     38444567 |     81265285 |     81265285 |     81265285 |     81265285 |    171080812 |    171080812 |    171080812 |    171080812 |    359742086 |    359742086 |    359742086 |    359742086 |    753705990 |    753705990 |    753705990 |    753705990 |   1577715443 |   1577715443 |   1577715443 |   1577715443 |
sim_num_refs                                218091 |       218091 |       218091 |       218091 |       464623 |       464623 |       464623 |       464623 |       991293 |       991293 |       991293 |       991293 |      2107820 |      2107820 |      2107820 |      2107820 |      4476187 |      4476187 |      4476187 |      4476187 |      9468683 |      9468683 |      9468683 |      9468683 |     19991747 |     19991747 |     19991747 |     19991747 |     42054410 |     42054410 |     42054410 |     42054410 |     88354024 |     88354024 |     88354024 |     88354024 |    184994255 |    184994255 |    184994255 |    184994255 |    386952111 |    386952111 |    386952111 |    386952111 |
sim_elapsed_time                                 1 |            1 |           40 |           20 |            1 |            1 |           62 |           30 |            1 |            1 |          106 |           52 |            3 |            2 |          191 |           94 |            6 |            5 |          356 |          169 |           11 |           12 |          650 |          285 |           24 |           24 |         1106 |          386 |           52 |           50 |         1489 |          418 |          109 |          109 |         1558 |          488 |          228 |          228 |         1704 |          634 |          479 |          486 |         2017 |          948 |
sim_inst_rate                          870960.0000 |  870960.0000 |   21774.0000 |   43548.0000 | 1868173.0000 | 1868173.0000 |   30131.8226 |   62272.4333 | 4003196.0000 | 4003196.0000 |   37766.0000 |   76984.5385 | 2843893.3333 | 4265840.0000 |   44668.4817 |   90762.5532 | 3025467.8333 | 3630561.4000 |   50991.0309 |  107413.0592 | 3494960.6364 | 3203713.9167 |   59145.4877 |  134893.2175 | 3386053.5417 | 3386053.5417 |   73476.7495 |  210531.8264 | 3290015.6154 | 3421616.2400 |  114896.4486 |  409284.2392 | 3300386.1101 | 3300386.1101 |  230899.9268 |  737176.4057 | 3305728.0263 | 3305728.0263 |  442315.7218 | 1188810.7098 | 3293769.1921 | 3246328.0720 |  782208.9455 | 1664256.7964 |
il1.accesses                                870960 |       870960 |       870960 |       870960 |      1868173 |      1868173 |      1868173 |      1868173 |      4003196 |      4003196 |      4003196 |      4003196 |      8531680 |      8531680 |      8531680 |      8531680 |     18152807 |     18152807 |     18152807 |     18152807 |     38444567 |     38444567 |     38444567 |     38444567 |     81265285 |     81265285 |     81265285 |     81265285 |    171080812 |    171080812 |    171080812 |    171080812 |    359742086 |    359742086 |    359742086 |    359742086 |    753705990 |    753705990 |    753705990 |    753705990 |   1577715443 |   1577715443 |   1577715443 |   1577715443 |
il1.hits                                    870107 |       870107 |       870196 |       870196 |      1867276 |      1867276 |      1867420 |      1867420 |      4002297 |      4002297 |      4002443 |      4002443 |      8530780 |      8530780 |      8530925 |      8530925 |     18151907 |     18151907 |     18152052 |     18152052 |     38443667 |     38443667 |     38443813 |     38443813 |     81264385 |     81264385 |     81264531 |     81264531 |    171079912 |    171079912 |    171080058 |    171080058 |    359741119 |    359741119 |    359741208 |    359741208 |    753705023 |    753705023 |    753705112 |    753705112 |   1577714476 |   1577714476 |   1577714565 |   1577714565 |
il1.misses                                     853 |          853 |          764 |          764 |          897 |          897 |          753 |          753 |          899 |          899 |          753 |          753 |          900 |          900 |          755 |          755 |          900 |          900 |          755 |          755 |          900 |          900 |          754 |          754 |          900 |          900 |          754 |          754 |          900 |          900 |          754 |          754 |          967 |          967 |          878 |          878 |          967 |          967 |          878 |          878 |          967 |          967 |          878 |          878 |
il1.replacements                               407 |          407 |          252 |          252 |          451 |          451 |          241 |          241 |          454 |          454 |          241 |          241 |          455 |          455 |          243 |          243 |          455 |          455 |          243 |          243 |          455 |          455 |          242 |          242 |          455 |          455 |          242 |          242 |          455 |          455 |          242 |          242 |          513 |          513 |          366 |          366 |          513 |          513 |          366 |          366 |          513 |          513 |          366 |          366 |
il1.writebacks                                   0 |            0 |            0 |            0 |            0 |            0 |            0 |            0 |            0 |            0 |            0 |            0 |            0 |            0 |            0 |            0 |            0 |            0 |            0 |            0 |            0 |            0 |            0 |            0 |            0 |            0 |            0 |            0 |            0 |            0 |            0 |            0 |            0 |            0 |            0 |            0 |            0 |            0 |            0 |            0 |            0 |            0 |            0 |            0 |
il1.invalidations                                0 |            0 |            0 |            0 |            0 |            0 |            0 |            0 |            0 |            0 |            0 |            0 |            0 |            0 |            0 |            0 |            0 |            0 |            0 |            0 |            0 |            0 |            0 |            0 |            0 |            0 |            0 |            0 |            0 |            0 |            0 |            0 |            0 |            0 |            0 |            0 |            0 |            0 |            0 |            0 |            0 |            0 |            0 |            0 |
il1.miss_rate                               0.0010 |       0.0010 |       0.0009 |       0.0009 |       0.0005 |       0.0005 |       0.0004 |       0.0004 |       0.0002 |       0.0002 |       0.0002 |       0.0002 |       0.0001 |       0.0001 |       0.0001 |       0.0001 |       0.0000 |       0.0000 |       0.0000 |       0.0000 |       0.0000 |       0.0000 |       0.0000 |       0.0000 |       0.0000 |       0.0000 |       0.0000 |       0.0000 |       0.0000 |       0.0000 |       0.0000 |       0.0000 |       0.0000 |       0.0000 |       0.0000 |       0.0000 |       0.0000 |       0.0000 |       0.0000 |       0.0000 |       0.0000 |       0.0000 |       0.0000 |       0.0000 |
il1.repl_rate                               0.0005 |       0.0005 |       0.0003 |       0.0003 |       0.0002 |       0.0002 |       0.0001 |       0.0001 |       0.0001 |       0.0001 |       0.0001 |       0.0001 |       0.0001 |       0.0001 |       0.0000 |       0.0000 |       0.0000 |       0.0000 |       0.0000 |       0.0000 |       0.0000 |       0.0000 |       0.0000 |       0.0000 |       0.0000 |       0.0000 |       0.0000 |       0.0000 |       0.0000 |       0.0000 |       0.0000 |       0.0000 |       0.0000 |       0.0000 |       0.0000 |       0.0000 |       0.0000 |       0.0000 |       0.0000 |       0.0000 |       0.0000 |       0.0000 |       0.0000 |       0.0000 |
il1.wb_rate                                 0.0000 |       0.0000 |       0.0000 |       0.0000 |       0.0000 |       0.0000 |       0.0000 |       0.0000 |       0.0000 |       0.0000 |       0.0000 |       0.0000 |       0.0000 |       0.0000 |       0.0000 |       0.0000 |       0.0000 |       0.0000 |       0.0000 |       0.0000 |       0.0000 |       0.0000 |       0.0000 |       0.0000 |       0.0000 |       0.0000 |       0.0000 |       0.0000 |       0.0000 |       0.0000 |       0.0000 |       0.0000 |       0.0000 |       0.0000 |       0.0000 |       0.0000 |       0.0000 |       0.0000 |       0.0000 |       0.0000 |       0.0000 |       0.0000 |       0.0000 |       0.0000 |
il1.inv_rate                                0.0000 |       0.0000 |       0.0000 |       0.0000 |       0.0000 |       0.0000 |       0.0000 |       0.0000 |       0.0000 |       0.0000 |       0.0000 |       0.0000 |       0.0000 |       0.0000 |       0.0000 |       0.0000 |       0.0000 |       0.0000 |       0.0000 |       0.0000 |       0.0000 |       0.0000 |       0.0000 |       0.0000 |       0.0000 |       0.0000 |       0.0000 |       0.0000 |       0.0000 |       0.0000 |       0.0000 |       0.0000 |       0.0000 |       0.0000 |       0.0000 |       0.0000 |       0.0000 |       0.0000 |       0.0000 |       0.0000 |       0.0000 |       0.0000 |       0.0000 |       0.0000 |
dl1.accesses                                234555 |       234555 |       234555 |       234555 |       497471 |       497471 |       497471 |       497471 |      1056909 |      1056909 |      1056909 |      1056909 |      2238972 |      2238972 |      2238972 |      2238972 |      4738411 |      4738411 |      4738411 |      4738411 |      9993051 |      9993051 |      9993051 |      9993051 |     21040403 |     21040403 |     21040403 |     21040403 |     44151642 |     44151642 |     44151642 |     44151642 |     92548408 |     92548408 |     92548408 |     92548408 |    193382943 |    193382943 |    193382943 |    193382943 |    403729407 |    403729407 |    403729407 |    403729407 |
dl1.hits                                    226275 |       226275 |       226994 |       226994 |       477673 |       477673 |       478974 |       478974 |      1008085 |      1008085 |      1011636 |      1011636 |      2123129 |      2123129 |      2129619 |      2129619 |      4465498 |      4465498 |      4482346 |      4482346 |      9371254 |      9371254 |      9404131 |      9404131 |     19635342 |     19635342 |     19710081 |     19710081 |     41039658 |     41039658 |     41189575 |     41189575 |     85693899 |     85693899 |     86026366 |     86026366 |    178497831 |    178497831 |    179156872 |    179156872 |    371512362 |    371512362 |    372935848 |    372935848 |
dl1.misses                                    8280 |         8280 |         7561 |         7561 |        19798 |        19798 |        18497 |        18497 |        48824 |        48824 |        45273 |        45273 |       115843 |       115843 |       109353 |       109353 |       272913 |       272913 |       256065 |       256065 |       621797 |       621797 |       588920 |       588920 |      1405061 |      1405061 |      1330322 |      1330322 |      3111984 |      3111984 |      2962067 |      2962067 |      6854509 |      6854509 |      6522042 |      6522042 |     14885112 |     14885112 |     14226071 |     14226071 |     32217045 |     32217045 |     30793559 |     30793559 |
dl1.replacements                              7768 |         7768 |         7049 |         7049 |        19286 |        19286 |        17985 |        17985 |        48312 |        48312 |        44761 |        44761 |       115331 |       115331 |       108841 |       108841 |       272401 |       272401 |       255553 |       255553 |       621285 |       621285 |       588408 |       588408 |      1404549 |      1404549 |      1329810 |      1329810 |      3111472 |      3111472 |      2961555 |      2961555 |      6853997 |      6853997 |      6521530 |      6521530 |     14884600 |     14884600 |     14225559 |     14225559 |     32216533 |     32216533 |     30793047 |     30793047 |
dl1.writebacks                                6607 |         6607 |         5912 |         5912 |        16797 |        16797 |        15556 |        15556 |        42946 |        42946 |        39567 |        39567 |       104187 |       104187 |        98111 |        98111 |       249631 |       249631 |       233795 |       233795 |       574891 |       574891 |       544383 |       544383 |      1310510 |      1310510 |      1240942 |      1240942 |      2921919 |      2921919 |      2783178 |      2783178 |      6470324 |      6470324 |      6163684 |      6163684 |     14115737 |     14115737 |     13510751 |     13510751 |     30671178 |     30671178 |     29362308 |     29362308 |
dl1.invalidations                                0 |            0 |            0 |            0 |            0 |            0 |            0 |            0 |            0 |            0 |            0 |            0 |            0 |            0 |            0 |            0 |            0 |            0 |            0 |            0 |            0 |            0 |            0 |            0 |            0 |            0 |            0 |            0 |            0 |            0 |            0 |            0 |            0 |            0 |            0 |            0 |            0 |            0 |            0 |            0 |            0 |            0 |            0 |            0 |
dl1.miss_rate                               0.0353 |       0.0353 |       0.0322 |       0.0322 |       0.0398 |       0.0398 |       0.0372 |       0.0372 |       0.0462 |       0.0462 |       0.0428 |       0.0428 |       0.0517 |       0.0517 |       0.0488 |       0.0488 |       0.0576 |       0.0576 |       0.0540 |       0.0540 |       0.0622 |       0.0622 |       0.0589 |       0.0589 |       0.0668 |       0.0668 |       0.0632 |       0.0632 |       0.0705 |       0.0705 |       0.0671 |       0.0671 |       0.0741 |       0.0741 |       0.0705 |       0.0705 |       0.0770 |       0.0770 |       0.0736 |       0.0736 |       0.0798 |       0.0798 |       0.0763 |       0.0763 |
dl1.repl_rate                               0.0331 |       0.0331 |       0.0301 |       0.0301 |       0.0388 |       0.0388 |       0.0362 |       0.0362 |       0.0457 |       0.0457 |       0.0424 |       0.0424 |       0.0515 |       0.0515 |       0.0486 |       0.0486 |       0.0575 |       0.0575 |       0.0539 |       0.0539 |       0.0622 |       0.0622 |       0.0589 |       0.0589 |       0.0668 |       0.0668 |       0.0632 |       0.0632 |       0.0705 |       0.0705 |       0.0671 |       0.0671 |       0.0741 |       0.0741 |       0.0705 |       0.0705 |       0.0770 |       0.0770 |       0.0736 |       0.0736 |       0.0798 |       0.0798 |       0.0763 |       0.0763 |
dl1.wb_rate                                 0.0282 |       0.0282 |       0.0252 |       0.0252 |       0.0338 |       0.0338 |       0.0313 |       0.0313 |       0.0406 |       0.0406 |       0.0374 |       0.0374 |       0.0465 |       0.0465 |       0.0438 |       0.0438 |       0.0527 |       0.0527 |       0.0493 |       0.0493 |       0.0575 |       0.0575 |       0.0545 |       0.0545 |       0.0623 |       0.0623 |       0.0590 |       0.0590 |       0.0662 |       0.0662 |       0.0630 |       0.0630 |       0.0699 |       0.0699 |       0.0666 |       0.0666 |       0.0730 |       0.0730 |       0.0699 |       0.0699 |       0.0760 |       0.0760 |       0.0727 |       0.0727 |
dl1.inv_rate                                0.0000 |       0.0000 |       0.0000 |       0.0000 |       0.0000 |       0.0000 |       0.0000 |       0.0000 |       0.0000 |       0.0000 |       0.0000 |       0.0000 |       0.0000 |       0.0000 |       0.0000 |       0.0000 |       0.0000 |       0.0000 |       0.0000 |       0.0000 |       0.0000 |       0.0000 |       0.0000 |       0.0000 |       0.0000 |       0.0000 |       0.0000 |       0.0000 |       0.0000 |       0.0000 |       0.0000 |       0.0000 |       0.0000 |       0.0000 |       0.0000 |       0.0000 |       0.0000 |       0.0000 |       0.0000 |       0.0000 |       0.0000 |       0.0000 |       0.0000 |       0.0000 |
dl2.accesses                                 15740 |        15740 |        14237 |        14237 |        37492 |        37492 |        34806 |        34806 |        92669 |        92669 |        85593 |        85593 |       220930 |       220930 |       208219 |       208219 |       523444 |       523444 |       490615 |       490615 |      1197588 |      1197588 |      1134057 |      1134057 |      2716471 |      2716471 |      2572018 |      2572018 |      6034803 |      6034803 |      5745999 |      5745999 |     13325800 |     13325800 |     12686604 |     12686604 |     29001816 |     29001816 |     27737700 |     27737700 |     62889190 |     62889190 |     60156745 |     60156745 |
dl2.hits                                     12081 |        12081 |        10605 |        10605 |        31799 |        31799 |        29144 |        29144 |        82868 |        82868 |        75835 |        75835 |       202935 |       202935 |       190267 |       190267 |       489065 |       489065 |       456279 |       456279 |      1130441 |      1130441 |      1066954 |      1066954 |      2583789 |      2578397 |      2439379 |      2394833 |      5765657 |      5323520 |      5398830 |      5092223 |     11898725 |     11484666 |     11379813 |     10972767 |     25318505 |     24282083 |     24310553 |     23235558 |     53450389 |     50878271 |     51154243 |     48768044 |
dl2.misses                                    3659 |         3659 |         3632 |         3632 |         5693 |         5693 |         5662 |         5662 |         9801 |         9801 |         9758 |         9758 |        17995 |        17995 |        17952 |        17952 |        34379 |        34379 |        34336 |        34336 |        67147 |        67147 |        67103 |        67103 |       132682 |       138074 |       132639 |       177185 |       269146 |       711283 |       347169 |       653776 |      1427075 |      1841134 |      1306791 |      1713837 |      3683311 |      4719733 |      3427147 |      4502142 |      9438801 |     12010919 |      9002502 |     11388701 |
dl2.replacements                               283 |          283 |            0 |            0 |          264 |          264 |            0 |            0 |          322 |          322 |            0 |            0 |          325 |          325 |            0 |            0 |          325 |          325 |            0 |            0 |          326 |          326 |            0 |            0 |          325 |         9319 |            0 |        46113 |         9319 |       580211 |        85025 |       522704 |      1164931 |      1710062 |      1044647 |      1582765 |      3421167 |      4588661 |      3165003 |      4371070 |      9176657 |     11879847 |      8740358 |     11257629 |
dl2.writebacks                                 196 |          196 |            0 |            0 |          172 |          172 |            0 |            0 |          219 |          219 |            0 |            0 |          221 |          221 |            0 |            0 |          221 |          221 |            0 |            0 |          221 |          221 |            0 |            0 |          221 |         9215 |            0 |        44727 |         9215 |       452799 |        83639 |       389249 |       908229 |      1427421 |       778077 |      1295880 |      2857162 |      3972194 |      2592119 |      3749490 |      7944658 |     10567782 |      7497093 |      9939973 |
dl2.invalidations                                0 |            0 |            0 |            0 |            0 |            0 |            0 |            0 |            0 |            0 |            0 |            0 |            0 |            0 |            0 |            0 |            0 |            0 |            0 |            0 |            0 |            0 |            0 |            0 |            0 |            0 |            0 |            0 |            0 |            0 |            0 |            0 |            0 |            0 |            0 |            0 |            0 |            0 |            0 |            0 |            0 |            0 |            0 |            0 |
dl2.miss_rate                               0.2325 |       0.2325 |       0.2551 |       0.2551 |       0.1518 |       0.1518 |       0.1627 |       0.1627 |       0.1058 |       0.1058 |       0.1140 |       0.1140 |       0.0815 |       0.0815 |       0.0862 |       0.0862 |       0.0657 |       0.0657 |       0.0700 |       0.0700 |       0.0561 |       0.0561 |       0.0592 |       0.0592 |       0.0488 |       0.0508 |       0.0516 |       0.0689 |       0.0446 |       0.1179 |       0.0604 |       0.1138 |       0.1071 |       0.1382 |       0.1030 |       0.1351 |       0.1270 |       0.1627 |       0.1236 |       0.1623 |       0.1501 |       0.1910 |       0.1497 |       0.1893 |
dl2.repl_rate                               0.0180 |       0.0180 |       0.0000 |       0.0000 |       0.0070 |       0.0070 |       0.0000 |       0.0000 |       0.0035 |       0.0035 |       0.0000 |       0.0000 |       0.0015 |       0.0015 |       0.0000 |       0.0000 |       0.0006 |       0.0006 |       0.0000 |       0.0000 |       0.0003 |       0.0003 |       0.0000 |       0.0000 |       0.0001 |       0.0034 |       0.0000 |       0.0179 |       0.0015 |       0.0961 |       0.0148 |       0.0910 |       0.0874 |       0.1283 |       0.0823 |       0.1248 |       0.1180 |       0.1582 |       0.1141 |       0.1576 |       0.1459 |       0.1889 |       0.1453 |       0.1871 |
dl2.wb_rate                                 0.0125 |       0.0125 |       0.0000 |       0.0000 |       0.0046 |       0.0046 |       0.0000 |       0.0000 |       0.0024 |       0.0024 |       0.0000 |       0.0000 |       0.0010 |       0.0010 |       0.0000 |       0.0000 |       0.0004 |       0.0004 |       0.0000 |       0.0000 |       0.0002 |       0.0002 |       0.0000 |       0.0000 |       0.0001 |       0.0034 |       0.0000 |       0.0174 |       0.0015 |       0.0750 |       0.0146 |       0.0677 |       0.0682 |       0.1071 |       0.0613 |       0.1021 |       0.0985 |       0.1370 |       0.0935 |       0.1352 |       0.1263 |       0.1680 |       0.1246 |       0.1652 |
dl2.inv_rate                                0.0000 |       0.0000 |       0.0000 |       0.0000 |       0.0000 |       0.0000 |       0.0000 |       0.0000 |       0.0000 |       0.0000 |       0.0000 |       0.0000 |       0.0000 |       0.0000 |       0.0000 |       0.0000 |       0.0000 |       0.0000 |       0.0000 |       0.0000 |       0.0000 |       0.0000 |       0.0000 |       0.0000 |       0.0000 |       0.0000 |       0.0000 |       0.0000 |       0.0000 |       0.0000 |       0.0000 |       0.0000 |       0.0000 |       0.0000 |       0.0000 |       0.0000 |       0.0000 |       0.0000 |       0.0000 |       0.0000 |       0.0000 |       0.0000 |       0.0000 |       0.0000 |
itlb.accesses                               870960 |       870960 |       870960 |       870960 |      1868173 |      1868173 |      1868173 |      1868173 |      4003196 |      4003196 |      4003196 |      4003196 |      8531680 |      8531680 |      8531680 |      8531680 |     18152807 |     18152807 |     18152807 |     18152807 |     38444567 |     38444567 |     38444567 |     38444567 |     81265285 |     81265285 |     81265285 |     81265285 |    171080812 |    171080812 |    171080812 |    171080812 |    359742086 |    359742086 |    359742086 |    359742086 |    753705990 |    753705990 |    753705990 |    753705990 |   1577715443 |   1577715443 |   1577715443 |   1577715443 |
itlb.hits                                   870949 |       870949 |       870949 |       870949 |      1868162 |      1868162 |      1868162 |      1868162 |      4003185 |      4003185 |      4003185 |      4003185 |      8531669 |      8531669 |      8531669 |      8531669 |     18152796 |     18152796 |     18152796 |     18152796 |     38444556 |     38444556 |     38444556 |     38444556 |     81265274 |     81265274 |     81265274 |     81265274 |    171080801 |    171080801 |    171080801 |    171080801 |    359742075 |    359742075 |    359742075 |    359742075 |    753705979 |    753705979 |    753705979 |    753705979 |   1577715432 |   1577715432 |   1577715432 |   1577715432 |
itlb.misses                                     11 |           11 |           11 |           11 |           11 |           11 |           11 |           11 |           11 |           11 |           11 |           11 |           11 |           11 |           11 |           11 |           11 |           11 |           11 |           11 |           11 |           11 |           11 |           11 |           11 |           11 |           11 |           11 |           11 |           11 |           11 |           11 |           11 |           11 |           11 |           11 |           11 |           11 |           11 |           11 |           11 |           11 |           11 |           11 |
itlb.replacements                                0 |            0 |            0 |            0 |            0 |            0 |            0 |            0 |            0 |            0 |            0 |            0 |            0 |            0 |            0 |            0 |            0 |            0 |            0 |            0 |            0 |            0 |            0 |            0 |            0 |            0 |            0 |            0 |            0 |            0 |            0 |            0 |            0 |            0 |            0 |            0 |            0 |            0 |            0 |            0 |            0 |            0 |            0 |            0 |
itlb.writebacks                                  0 |            0 |            0 |            0 |            0 |            0 |            0 |            0 |            0 |            0 |            0 |            0 |            0 |            0 |            0 |            0 |            0 |            0 |            0 |            0 |            0 |            0 |            0 |            0 |            0 |            0 |            0 |            0 |            0 |            0 |            0 |            0 |            0 |            0 |            0 |            0 |            0 |            0 |            0 |            0 |            0 |            0 |            0 |            0 |
itlb.invalidations                               0 |            0 |            0 |            0 |            0 |            0 |            0 |            0 |            0 |            0 |            0 |            0 |            0 |            0 |            0 |            0 |            0 |            0 |            0 |            0 |            0 |            0 |            0 |            0 |            0 |            0 |            0 |            0 |            0 |            0 |            0 |            0 |            0 |            0 |            0 |            0 |            0 |            0 |            0 |            0 |            0 |            0 |            0 |            0 |
itlb.miss_rate                              0.0000 |       0.0000 |       0.0000 |       0.0000 |       0.0000 |       0.0000 |       0.0000 |       0.0000 |       0.0000 |       0.0000 |       0.0000 |       0.0000 |       0.0000 |       0.0000 |       0.0000 |       0.0000 |       0.0000 |       0.0000 |       0.0000 |       0.0000 |       0.0000 |       0.0000 |       0.0000 |       0.0000 |       0.0000 |       0.0000 |       0.0000 |       0.0000 |       0.0000 |       0.0000 |       0.0000 |       0.0000 |       0.0000 |       0.0000 |       0.0000 |       0.0000 |       0.0000 |       0.0000 |       0.0000 |       0.0000 |       0.0000 |       0.0000 |       0.0000 |       0.0000 |
itlb.repl_rate                              0.0000 |       0.0000 |       0.0000 |       0.0000 |       0.0000 |       0.0000 |       0.0000 |       0.0000 |       0.0000 |       0.0000 |       0.0000 |       0.0000 |       0.0000 |       0.0000 |       0.0000 |       0.0000 |       0.0000 |       0.0000 |       0.0000 |       0.0000 |       0.0000 |       0.0000 |       0.0000 |       0.0000 |       0.0000 |       0.0000 |       0.0000 |       0.0000 |       0.0000 |       0.0000 |       0.0000 |       0.0000 |       0.0000 |       0.0000 |       0.0000 |       0.0000 |       0.0000 |       0.0000 |       0.0000 |       0.0000 |       0.0000 |       0.0000 |       0.0000 |       0.0000 |
itlb.wb_rate                                0.0000 |       0.0000 |       0.0000 |       0.0000 |       0.0000 |       0.0000 |       0.0000 |       0.0000 |       0.0000 |       0.0000 |       0.0000 |       0.0000 |       0.0000 |       0.0000 |       0.0000 |       0.0000 |       0.0000 |       0.0000 |       0.0000 |       0.0000 |       0.0000 |       0.0000 |       0.0000 |       0.0000 |       0.0000 |       0.0000 |       0.0000 |       0.0000 |       0.0000 |       0.0000 |       0.0000 |       0.0000 |       0.0000 |       0.0000 |       0.0000 |       0.0000 |       0.0000 |       0.0000 |       0.0000 |       0.0000 |       0.0000 |       0.0000 |       0.0000 |       0.0000 |
itlb.inv_rate                               0.0000 |       0.0000 |       0.0000 |       0.0000 |       0.0000 |       0.0000 |       0.0000 |       0.0000 |       0.0000 |       0.0000 |       0.0000 |       0.0000 |       0.0000 |       0.0000 |       0.0000 |       0.0000 |       0.0000 |       0.0000 |       0.0000 |       0.0000 |       0.0000 |       0.0000 |       0.0000 |       0.0000 |       0.0000 |       0.0000 |       0.0000 |       0.0000 |       0.0000 |       0.0000 |       0.0000 |       0.0000 |       0.0000 |       0.0000 |       0.0000 |       0.0000 |       0.0000 |       0.0000 |       0.0000 |       0.0000 |       0.0000 |       0.0000 |       0.0000 |       0.0000 |
dtlb.accesses                               234555 |       234555 |       234555 |       234555 |       497471 |       497471 |       497471 |       497471 |      1056909 |      1056909 |      1056909 |      1056909 |      2238972 |      2238972 |      2238972 |      2238972 |      4738411 |      4738411 |      4738411 |      4738411 |      9993051 |      9993051 |      9993051 |      9993051 |     21040403 |     21040403 |     21040403 |     21040403 |     44151642 |     44151642 |     44151642 |     44151642 |     92548408 |     92548408 |     92548408 |     92548408 |    193382943 |    193382943 |    193382943 |    193382943 |    403729407 |    403729407 |    403729407 |    403729407 |
dtlb.hits                                   234539 |       234539 |       234539 |       234539 |       497447 |       497447 |       497447 |       497447 |      1056869 |      1056869 |      1056869 |      1056869 |      2238900 |      2238900 |      2238900 |      2238900 |      4738264 |      4738264 |      4738264 |      4738264 |      9992243 |      9992243 |      9992243 |      9992243 |     20983087 |     20983087 |     20983087 |     20983087 |     43802021 |     43802021 |     43802021 |     43802021 |     91255276 |     91255276 |     91255276 |     91255276 |    189530524 |    189530524 |    189530524 |    189530524 |    393431636 |    393431636 |    393431636 |    393431636 |
dtlb.misses                                     16 |           16 |           16 |           16 |           24 |           24 |           24 |           24 |           40 |           40 |           40 |           40 |           72 |           72 |           72 |           72 |          147 |          147 |          147 |          147 |          808 |          808 |          808 |          808 |        57316 |        57316 |        57316 |        57316 |       349621 |       349621 |       349621 |       349621 |      1293132 |      1293132 |      1293132 |      1293132 |      3852419 |      3852419 |      3852419 |      3852419 |     10297771 |     10297771 |     10297771 |     10297771 |
dtlb.replacements                                0 |            0 |            0 |            0 |            0 |            0 |            0 |            0 |            0 |            0 |            0 |            0 |            0 |            0 |            0 |            0 |           19 |           19 |           19 |           19 |          680 |          680 |          680 |          680 |        57188 |        57188 |        57188 |        57188 |       349493 |       349493 |       349493 |       349493 |      1293004 |      1293004 |      1293004 |      1293004 |      3852291 |      3852291 |      3852291 |      3852291 |     10297643 |     10297643 |     10297643 |     10297643 |
dtlb.writebacks                                  0 |            0 |            0 |            0 |            0 |            0 |            0 |            0 |            0 |            0 |            0 |            0 |            0 |            0 |            0 |            0 |           16 |           16 |           16 |           16 |          553 |          553 |          553 |          553 |        54124 |        54124 |        54124 |        54124 |       330650 |       330650 |       330650 |       330650 |      1233183 |      1233183 |      1233183 |      1233183 |      3703072 |      3703072 |      3703072 |      3703072 |      9961492 |      9961492 |      9961492 |      9961492 |
dtlb.invalidations                               0 |            0 |            0 |            0 |            0 |            0 |            0 |            0 |            0 |            0 |            0 |            0 |            0 |            0 |            0 |            0 |            0 |            0 |            0 |            0 |            0 |            0 |            0 |            0 |            0 |            0 |            0 |            0 |            0 |            0 |            0 |            0 |            0 |            0 |            0 |            0 |            0 |            0 |            0 |            0 |            0 |            0 |            0 |            0 |
dtlb.miss_rate                              0.0001 |       0.0001 |       0.0001 |       0.0001 |       0.0000 |       0.0000 |       0.0000 |       0.0000 |       0.0000 |       0.0000 |       0.0000 |       0.0000 |       0.0000 |       0.0000 |       0.0000 |       0.0000 |       0.0000 |       0.0000 |       0.0000 |       0.0000 |       0.0001 |       0.0001 |       0.0001 |       0.0001 |       0.0027 |       0.0027 |       0.0027 |       0.0027 |       0.0079 |       0.0079 |       0.0079 |       0.0079 |       0.0140 |       0.0140 |       0.0140 |       0.0140 |       0.0199 |       0.0199 |       0.0199 |       0.0199 |       0.0255 |       0.0255 |       0.0255 |       0.0255 |
dtlb.repl_rate                              0.0000 |       0.0000 |       0.0000 |       0.0000 |       0.0000 |       0.0000 |       0.0000 |       0.0000 |       0.0000 |       0.0000 |       0.0000 |       0.0000 |       0.0000 |       0.0000 |       0.0000 |       0.0000 |       0.0000 |       0.0000 |       0.0000 |       0.0000 |       0.0001 |       0.0001 |       0.0001 |       0.0001 |       0.0027 |       0.0027 |       0.0027 |       0.0027 |       0.0079 |       0.0079 |       0.0079 |       0.0079 |       0.0140 |       0.0140 |       0.0140 |       0.0140 |       0.0199 |       0.0199 |       0.0199 |       0.0199 |       0.0255 |       0.0255 |       0.0255 |       0.0255 |
dtlb.wb_rate                                0.0000 |       0.0000 |       0.0000 |       0.0000 |       0.0000 |       0.0000 |       0.0000 |       0.0000 |       0.0000 |       0.0000 |       0.0000 |       0.0000 |       0.0000 |       0.0000 |       0.0000 |       0.0000 |       0.0000 |       0.0000 |       0.0000 |       0.0000 |       0.0001 |       0.0001 |       0.0001 |       0.0001 |       0.0026 |       0.0026 |       0.0026 |       0.0026 |       0.0075 |       0.0075 |       0.0075 |       0.0075 |       0.0133 |       0.0133 |       0.0133 |       0.0133 |       0.0191 |       0.0191 |       0.0191 |       0.0191 |       0.0247 |       0.0247 |       0.0247 |       0.0247 |
dtlb.inv_rate                               0.0000 |       0.0000 |       0.0000 |       0.0000 |       0.0000 |       0.0000 |       0.0000 |       0.0000 |       0.0000 |       0.0000 |       0.0000 |       0.0000 |       0.0000 |       0.0000 |       0.0000 |       0.0000 |       0.0000 |       0.0000 |       0.0000 |       0.0000 |       0.0000 |       0.0000 |       0.0000 |       0.0000 |       0.0000 |       0.0000 |       0.0000 |       0.0000 |       0.0000 |       0.0000 |       0.0000 |       0.0000 |       0.0000 |       0.0000 |       0.0000 |       0.0000 |       0.0000 |       0.0000 |       0.0000 |       0.0000 |       0.0000 |       0.0000 |       0.0000 |       0.0000 |
ld_text_base                            0x00400000 |   0x00400000 |   0x00400000 |   0x00400000 |   0x00400000 |   0x00400000 |   0x00400000 |   0x00400000 |   0x00400000 |   0x00400000 |   0x00400000 |   0x00400000 |   0x00400000 |   0x00400000 |   0x00400000 |   0x00400000 |   0x00400000 |   0x00400000 |   0x00400000 |   0x00400000 |   0x00400000 |   0x00400000 |   0x00400000 |   0x00400000 |   0x00400000 |   0x00400000 |   0x00400000 |   0x00400000 |   0x00400000 |   0x00400000 |   0x00400000 |   0x00400000 |   0x00400000 |   0x00400000 |   0x00400000 |   0x00400000 |   0x00400000 |   0x00400000 |   0x00400000 |   0x00400000 |   0x00400000 |   0x00400000 |   0x00400000 |   0x00400000 |
ld_text_size                                 76672 |        76672 |        76672 |        76672 |        76704 |        76704 |        76704 |        76704 |        76720 |        76720 |        76720 |        76720 |        76736 |        76736 |        76736 |        76736 |        76736 |        76736 |        76736 |        76736 |        76736 |        76736 |        76736 |        76736 |        76736 |        76736 |        76736 |        76736 |        76736 |        76736 |        76736 |        76736 |        76736 |        76736 |        76736 |        76736 |        76736 |        76736 |        76736 |        76736 |        76736 |        76736 |        76736 |        76736 |
ld_data_base                            0x10000000 |   0x10000000 |   0x10000000 |   0x10000000 |   0x10000000 |   0x10000000 |   0x10000000 |   0x10000000 |   0x10000000 |   0x10000000 |   0x10000000 |   0x10000000 |   0x10000000 |   0x10000000 |   0x10000000 |   0x10000000 |   0x10000000 |   0x10000000 |   0x10000000 |   0x10000000 |   0x10000000 |   0x10000000 |   0x10000000 |   0x10000000 |   0x10000000 |   0x10000000 |   0x10000000 |   0x10000000 |   0x10000000 |   0x10000000 |   0x10000000 |   0x10000000 |   0x10000000 |   0x10000000 |   0x10000000 |   0x10000000 |   0x10000000 |   0x10000000 |   0x10000000 |   0x10000000 |   0x10000000 |   0x10000000 |   0x10000000 |   0x10000000 |
ld_data_size                                  8244 |         8244 |         8244 |         8244 |         8244 |         8244 |         8244 |         8244 |         8244 |         8244 |         8244 |         8244 |         8244 |         8244 |         8244 |         8244 |         8244 |         8244 |         8244 |         8244 |         8244 |         8244 |         8244 |         8244 |         8244 |         8244 |         8244 |         8244 |         8244 |         8244 |         8244 |         8244 |         8244 |         8244 |         8244 |         8244 |         8244 |         8244 |         8244 |         8244 |         8244 |         8244 |         8244 |         8244 |
ld_stack_base                           0x7fffc000 |   0x7fffc000 |   0x7fffc000 |   0x7fffc000 |   0x7fffc000 |   0x7fffc000 |   0x7fffc000 |   0x7fffc000 |   0x7fffc000 |   0x7fffc000 |   0x7fffc000 |   0x7fffc000 |   0x7fffc000 |   0x7fffc000 |   0x7fffc000 |   0x7fffc000 |   0x7fffc000 |   0x7fffc000 |   0x7fffc000 |   0x7fffc000 |   0x7fffc000 |   0x7fffc000 |   0x7fffc000 |   0x7fffc000 |   0x7fffc000 |   0x7fffc000 |   0x7fffc000 |   0x7fffc000 |   0x7fffc000 |   0x7fffc000 |   0x7fffc000 |   0x7fffc000 |   0x7fffc000 |   0x7fffc000 |   0x7fffc000 |   0x7fffc000 |   0x7fffc000 |   0x7fffc000 |   0x7fffc000 |   0x7fffc000 |   0x7fffc000 |   0x7fffc000 |   0x7fffc000 |   0x7fffc000 |
ld_stack_size                                16384 |        16384 |        16384 |        16384 |        16384 |        16384 |        16384 |        16384 |        16384 |        16384 |        16384 |        16384 |        16384 |        16384 |        16384 |        16384 |        16384 |        16384 |        16384 |        16384 |        16384 |        16384 |        16384 |        16384 |        16384 |        16384 |        16384 |        16384 |        16384 |        16384 |        16384 |        16384 |        16384 |        16384 |        16384 |        16384 |        16384 |        16384 |        16384 |        16384 |        16384 |        16384 |        16384 |        16384 |
ld_prog_entry                           0x00400140 |   0x00400140 |   0x00400140 |   0x00400140 |   0x00400140 |   0x00400140 |   0x00400140 |   0x00400140 |   0x00400140 |   0x00400140 |   0x00400140 |   0x00400140 |   0x00400140 |   0x00400140 |   0x00400140 |   0x00400140 |   0x00400140 |   0x00400140 |   0x00400140 |   0x00400140 |   0x00400140 |   0x00400140 |   0x00400140 |   0x00400140 |   0x00400140 |   0x00400140 |   0x00400140 |   0x00400140 |   0x00400140 |   0x00400140 |   0x00400140 |   0x00400140 |   0x00400140 |   0x00400140 |   0x00400140 |   0x00400140 |   0x00400140 |   0x00400140 |   0x00400140 |   0x00400140 |   0x00400140 |   0x00400140 |   0x00400140 |   0x00400140 |
ld_environ_base                         0x7fff8000 |   0x7fff8000 |   0x7fff8000 |   0x7fff8000 |   0x7fff8000 |   0x7fff8000 |   0x7fff8000 |   0x7fff8000 |   0x7fff8000 |   0x7fff8000 |   0x7fff8000 |   0x7fff8000 |   0x7fff8000 |   0x7fff8000 |   0x7fff8000 |   0x7fff8000 |   0x7fff8000 |   0x7fff8000 |   0x7fff8000 |   0x7fff8000 |   0x7fff8000 |   0x7fff8000 |   0x7fff8000 |   0x7fff8000 |   0x7fff8000 |   0x7fff8000 |   0x7fff8000 |   0x7fff8000 |   0x7fff8000 |   0x7fff8000 |   0x7fff8000 |   0x7fff8000 |   0x7fff8000 |   0x7fff8000 |   0x7fff8000 |   0x7fff8000 |   0x7fff8000 |   0x7fff8000 |   0x7fff8000 |   0x7fff8000 |   0x7fff8000 |   0x7fff8000 |   0x7fff8000 |   0x7fff8000 |
ld_target_big_endian                             0 |            0 |            0 |            0 |            0 |            0 |            0 |            0 |            0 |            0 |            0 |            0 |            0 |            0 |            0 |            0 |            0 |            0 |            0 |            0 |            0 |            0 |            0 |            0 |            0 |            0 |            0 |            0 |            0 |            0 |            0 |            0 |            0 |            0 |            0 |            0 |            0 |            0 |            0 |            0 |            0 |            0 |            0 |            0 |
mem.page_count                                  35 |           35 |           35 |           35 |           43 |           43 |           43 |           43 |           59 |           59 |           59 |           59 |           91 |           91 |           91 |           91 |          155 |          155 |          155 |          155 |          283 |          283 |          283 |          283 |          539 |          539 |          539 |          539 |         1051 |         1051 |         1051 |         1051 |         2081 |         2081 |         2081 |         2081 |         4135 |         4135 |         4135 |         4135 |         8243 |         8243 |         8243 |         8243 |
mem.page_mem                                  140k |         140k |         140k |         140k |         172k |         172k |         172k |         172k |         236k |         236k |         236k |         236k |         364k |         364k |         364k |         364k |         620k |         620k |         620k |         620k |        1132k |        1132k |        1132k |        1132k |        2156k |        2156k |        2156k |        2156k |        4204k |        4204k |        4204k |        4204k |        8324k |        8324k |        8324k |        8324k |       16540k |       16540k |       16540k |       16540k |       32972k |       32972k |       32972k |       32972k |
mem.ptab_misses                                 35 |           35 |           35 |           35 |           43 |           43 |           43 |           43 |           59 |           59 |           59 |           59 |           91 |           91 |           91 |           91 |          155 |          155 |          155 |          155 |          283 |          283 |          283 |          283 |          539 |          539 |          539 |          539 |         1051 |         1051 |         1051 |         1051 |         9185 |         9185 |         9185 |         9185 |        23394 |        23394 |        23394 |        23394 |        65084 |        65084 |        65084 |        65084 |
mem.ptab_accesses                          4427998 |      4427998 |      4427998 |      4427998 |      8942874 |      8942874 |      8942874 |      8942874 |     18601938 |     18601938 |     18601938 |     18601938 |     39080096 |     39080096 |     39080096 |     39080096 |     82563482 |     82563482 |     82563482 |     82563482 |    174239802 |    174239802 |    174239802 |    174239802 |    367617378 |    367617378 |    367617378 |    367617378 |    773101964 |    773101964 |    773101964 |    773101964 |   1624540592 |   1624540592 |   1624540592 |   1624540592 |   3402065278 |   3402065278 |   3402065278 |   3402065278 |   7118796018 |   7118796018 |   7118796018 |   7118796018 |
mem.ptab_miss_rate                          0.0000 |       0.0000 |       0.0000 |       0.0000 |       0.0000 |       0.0000 |       0.0000 |       0.0000 |       0.0000 |       0.0000 |       0.0000 |       0.0000 |       0.0000 |       0.0000 |       0.0000 |       0.0000 |       0.0000 |       0.0000 |       0.0000 |       0.0000 |       0.0000 |       0.0000 |       0.0000 |       0.0000 |       0.0000 |       0.0000 |       0.0000 |       0.0000 |       0.0000 |       0.0000 |       0.0000 |       0.0000 |       0.0000 |       0.0000 |       0.0000 |       0.0000 |       0.0000 |       0.0000 |       0.0000 |       0.0000 |       0.0000 |       0.0000 |       0.0000 |       0.0000 |
-------------------------------------------------------------------------------------------------
sim-bpred                                     4096 |         4096 |         4096 |         4096 |         4096 |         4096 |         4096 |         8192 |         8192 |         8192 |         8192 |         8192 |         8192 |         8192 |        16384 |        16384 |        16384 |        16384 |        16384 |        16384 |        16384 |        32768 |        32768 |        32768 |        32768 |        32768 |        32768 |        32768 |        65536 |        65536 |        65536 |        65536 |        65536 |        65536 |        65536 |       131072 |       131072 |       131072 |       131072 |       131072 |       131072 |       131072 |       262144 |       262144 |       262144 |       262144 |       262144 |       262144 |       262144 |       524288 |       524288 |       524288 |       524288 |       524288 |       524288 |       524288 |      1048576 |      1048576 |      1048576 |      1048576 |      1048576 |      1048576 |      1048576 |      2097152 |      2097152 |      2097152 |      2097152 |      2097152 |      2097152 |      2097152 |      4194304 |      4194304 |      4194304 |      4194304 |      4194304 |      4194304 |      4194304 |
-bpred bimod -bpred:bimod 512
-bpred bimod -bpred:bimod 1024
-bpred bimod -bpred:bimod 2048
-bpred 2lev -bpred:2lev 1 512 10 1
-bpred 2lev -bpred:2lev 1 1024 10 1
-bpred 2lev -bpred:2lev 1 2048 10 1
-bpred 2lev -bpred:2lev 1 4096 10 1
-------------------------------------------------------------------------------------------------
sim_num_insn                                870960 |       870960 |       870960 |       870960 |       870960 |       870960 |       870960 |      1868173 |      1868173 |      1868173 |      1868173 |      1868173 |      1868173 |      1868173 |      4003196 |      4003196 |      4003196 |      4003196 |      4003196 |      4003196 |      4003196 |      8531680 |      8531680 |      8531680 |      8531680 |      8531680 |      8531680 |      8531680 |     18152807 |     18152807 |     18152807 |     18152807 |     18152807 |     18152807 |     18152807 |     38444567 |     38444567 |     38444567 |     38444567 |     38444567 |     38444567 |     38444567 |     81265285 |     81265285 |     81265285 |     81265285 |     81265285 |     81265285 |     81265285 |    171080812 |    171080812 |    171080812 |    171080812 |    171080812 |    171080812 |    171080812 |    359742086 |    359742086 |    359742086 |    359742086 |    359742086 |    359742086 |    359742086 |    753705990 |    753705990 |    753705990 |    753705990 |    753705990 |    753705990 |    753705990 |   1577715443 |   1577715443 |   1577715443 |   1577715443 |   1577715443 |   1577715443 |   1577715443 |
sim_num_refs                                218091 |       218091 |       218091 |       218091 |       218091 |       218091 |       218091 |       464623 |       464623 |       464623 |       464623 |       464623 |       464623 |       464623 |       991293 |       991293 |       991293 |       991293 |       991293 |       991293 |       991293 |      2107820 |      2107820 |      2107820 |      2107820 |      2107820 |      2107820 |      2107820 |      4476187 |      4476187 |      4476187 |      4476187 |      4476187 |      4476187 |      4476187 |      9468683 |      9468683 |      9468683 |      9468683 |      9468683 |      9468683 |      9468683 |     19991747 |     19991747 |     19991747 |     19991747 |     19991747 |     19991747 |     19991747 |     42054410 |     42054410 |     42054410 |     42054410 |     42054410 |     42054410 |     42054410 |     88354024 |     88354024 |     88354024 |     88354024 |     88354024 |     88354024 |     88354024 |    184994255 |    184994255 |    184994255 |    184994255 |    184994255 |    184994255 |    184994255 |    386952111 |    386952111 |    386952111 |    386952111 |    386952111 |    386952111 |    386952111 |
sim_elapsed_time                                 1 |            1 |            1 |            1 |            1 |            1 |            1 |            1 |            1 |            1 |            1 |            1 |            1 |            1 |            1 |            1 |            1 |            1 |            1 |            1 |            1 |            1 |            1 |            1 |            2 |            1 |            1 |            1 |            2 |            2 |            3 |            2 |            3 |            2 |            3 |            5 |            5 |            5 |            5 |            5 |            5 |            5 |           11 |           10 |           11 |           11 |           11 |           11 |           11 |           23 |           23 |           22 |           23 |           23 |           23 |           23 |           48 |           48 |           48 |           49 |           48 |           49 |           48 |          102 |          100 |          101 |          103 |          102 |          102 |          103 |          211 |          212 |          211 |          213 |          215 |          215 |          214 |
sim_inst_rate                          870960.0000 |  870960.0000 |  870960.0000 |  870960.0000 |  870960.0000 |  870960.0000 |  870960.0000 | 1868173.0000 | 1868173.0000 | 1868173.0000 | 1868173.0000 | 1868173.0000 | 1868173.0000 | 1868173.0000 | 4003196.0000 | 4003196.0000 | 4003196.0000 | 4003196.0000 | 4003196.0000 | 4003196.0000 | 4003196.0000 | 8531680.0000 | 8531680.0000 | 8531680.0000 | 4265840.0000 | 8531680.0000 | 8531680.0000 | 8531680.0000 | 9076403.5000 | 9076403.5000 | 6050935.6667 | 9076403.5000 | 6050935.6667 | 9076403.5000 | 6050935.6667 | 7688913.4000 | 7688913.4000 | 7688913.4000 | 7688913.4000 | 7688913.4000 | 7688913.4000 | 7688913.4000 | 7387753.1818 | 8126528.5000 | 7387753.1818 | 7387753.1818 | 7387753.1818 | 7387753.1818 | 7387753.1818 | 7438296.1739 | 7438296.1739 | 7776400.5455 | 7438296.1739 | 7438296.1739 | 7438296.1739 | 7438296.1739 | 7494626.7917 | 7494626.7917 | 7494626.7917 | 7341675.2245 | 7494626.7917 | 7341675.2245 | 7494626.7917 | 7389274.4118 | 7537059.9000 | 7462435.5446 | 7317533.8835 | 7389274.4118 | 7389274.4118 | 7317533.8835 | 7477324.3744 | 7442053.9764 | 7477324.3744 | 7407114.7559 | 7338211.3628 | 7338211.3628 | 7372502.0701 |
sim_num_branches                            155050 |       155050 |       155050 |       155050 |       155050 |       155050 |       155050 |       333512 |       333512 |       333512 |       333512 |       333512 |       333512 |       333512 |       715554 |       715554 |       715554 |       715554 |       715554 |       715554 |       715554 |      1527078 |      1527078 |      1527078 |      1527078 |      1527078 |      1527078 |      1527078 |      3251475 |      3251475 |      3251475 |      3251475 |      3251475 |      3251475 |      3251475 |      6892653 |      6892653 |      6892653 |      6892653 |      6892653 |      6892653 |      6892653 |     14577383 |     14577383 |     14577383 |     14577383 |     14577383 |     14577383 |     14577383 |     30709984 |     30709984 |     30709984 |     30709984 |     30709984 |     30709984 |     30709984 |     64600230 |     64600230 |     64600230 |     64600230 |     64600230 |     64600230 |     64600230 |    135421066 |    135421066 |    135421066 |    135421066 |    135421066 |    135421066 |    135421066 |    283567375 |    283567375 |    283567375 |    283567375 |    283567375 |    283567375 |    283567375 |
sim_IPB                                     5.6173 |       5.6173 |       5.6173 |       5.6173 |       5.6173 |       5.6173 |       5.6173 |       5.6015 |       5.6015 |       5.6015 |       5.6015 |       5.6015 |       5.6015 |       5.6015 |       5.5945 |       5.5945 |       5.5945 |       5.5945 |       5.5945 |       5.5945 |       5.5945 |       5.5869 |       5.5869 |       5.5869 |       5.5869 |       5.5869 |       5.5869 |       5.5869 |       5.5829 |       5.5829 |       5.5829 |       5.5829 |       5.5829 |       5.5829 |       5.5829 |       5.5776 |       5.5776 |       5.5776 |       5.5776 |       5.5776 |       5.5776 |       5.5776 |       5.5748 |       5.5748 |       5.5748 |       5.5748 |       5.5748 |       5.5748 |       5.5748 |       5.5709 |       5.5709 |       5.5709 |       5.5709 |       5.5709 |       5.5709 |       5.5709 |       5.5687 |       5.5687 |       5.5687 |       5.5687 |       5.5687 |       5.5687 |       5.5687 |       5.5656 |       5.5656 |       5.5656 |       5.5656 |       5.5656 |       5.5656 |       5.5656 |       5.5638 |       5.5638 |       5.5638 |       5.5638 |       5.5638 |       5.5638 |       5.5638 |
bpred_bimod.lookups                         155050 |       155050 |       155050 |xxxxxxxxxxxxx |xxxxxxxxxxxxx |xxxxxxxxxxxxx |xxxxxxxxxxxxx |       333512 |       333512 |       333512 |xxxxxxxxxxxxx |xxxxxxxxxxxxx |xxxxxxxxxxxxx |xxxxxxxxxxxxx |       715554 |       715554 |       715554 |xxxxxxxxxxxxx |xxxxxxxxxxxxx |xxxxxxxxxxxxx |xxxxxxxxxxxxx |      1527078 |      1527078 |      1527078 |xxxxxxxxxxxxx |xxxxxxxxxxxxx |xxxxxxxxxxxxx |xxxxxxxxxxxxx |      3251475 |      3251475 |      3251475 |xxxxxxxxxxxxx |xxxxxxxxxxxxx |xxxxxxxxxxxxx |xxxxxxxxxxxxx |      6892653 |      6892653 |      6892653 |xxxxxxxxxxxxx |xxxxxxxxxxxxx |xxxxxxxxxxxxx |xxxxxxxxxxxxx |     14577383 |     14577383 |     14577383 |xxxxxxxxxxxxx |xxxxxxxxxxxxx |xxxxxxxxxxxxx |xxxxxxxxxxxxx |     30709984 |     30709984 |     30709984 |xxxxxxxxxxxxx |xxxxxxxxxxxxx |xxxxxxxxxxxxx |xxxxxxxxxxxxx |     64600230 |     64600230 |     64600230 |xxxxxxxxxxxxx |xxxxxxxxxxxxx |xxxxxxxxxxxxx |xxxxxxxxxxxxx |    135421066 |    135421066 |    135421066 |xxxxxxxxxxxxx |xxxxxxxxxxxxx |xxxxxxxxxxxxx |xxxxxxxxxxxxx |    283567375 |    283567375 |    283567375 |
bpred_bimod.updates                         155050 |       155050 |       155050 |xxxxxxxxxxxxx |xxxxxxxxxxxxx |xxxxxxxxxxxxx |xxxxxxxxxxxxx |       333512 |       333512 |       333512 |xxxxxxxxxxxxx |xxxxxxxxxxxxx |xxxxxxxxxxxxx |xxxxxxxxxxxxx |       715554 |       715554 |       715554 |xxxxxxxxxxxxx |xxxxxxxxxxxxx |xxxxxxxxxxxxx |xxxxxxxxxxxxx |      1527078 |      1527078 |      1527078 |xxxxxxxxxxxxx |xxxxxxxxxxxxx |xxxxxxxxxxxxx |xxxxxxxxxxxxx |      3251475 |      3251475 |      3251475 |xxxxxxxxxxxxx |xxxxxxxxxxxxx |xxxxxxxxxxxxx |xxxxxxxxxxxxx |      6892653 |      6892653 |      6892653 |xxxxxxxxxxxxx |xxxxxxxxxxxxx |xxxxxxxxxxxxx |xxxxxxxxxxxxx |     14577383 |     14577383 |     14577383 |xxxxxxxxxxxxx |xxxxxxxxxxxxx |xxxxxxxxxxxxx |xxxxxxxxxxxxx |     30709984 |     30709984 |     30709984 |xxxxxxxxxxxxx |xxxxxxxxxxxxx |xxxxxxxxxxxxx |xxxxxxxxxxxxx |     64600230 |     64600230 |     64600230 |xxxxxxxxxxxxx |xxxxxxxxxxxxx |xxxxxxxxxxxxx |xxxxxxxxxxxxx |    135421066 |    135421066 |    135421066 |xxxxxxxxxxxxx |xxxxxxxxxxxxx |xxxxxxxxxxxxx |xxxxxxxxxxxxx |    283567375 |    283567375 |    283567375 |
bpred_bimod.addr_hits                       124113 |       124118 |       124120 |xxxxxxxxxxxxx |xxxxxxxxxxxxx |xxxxxxxxxxxxx |xxxxxxxxxxxxx |       266946 |       266951 |       266952 |xxxxxxxxxxxxx |xxxxxxxxxxxxx |xxxxxxxxxxxxx |xxxxxxxxxxxxx |       573190 |       573197 |       573198 |xxxxxxxxxxxxx |xxxxxxxxxxxxx |xxxxxxxxxxxxx |xxxxxxxxxxxxx |      1221802 |      1221808 |      1221809 |xxxxxxxxxxxxx |xxxxxxxxxxxxx |xxxxxxxxxxxxx |xxxxxxxxxxxxx |      2602965 |      2602971 |      2602972 |xxxxxxxxxxxxx |xxxxxxxxxxxxx |xxxxxxxxxxxxx |xxxxxxxxxxxxx |      5513925 |      5513931 |      5513932 |xxxxxxxxxxxxx |xxxxxxxxxxxxx |xxxxxxxxxxxxx |xxxxxxxxxxxxx |     11670010 |     11670016 |     11670017 |xxxxxxxxxxxxx |xxxxxxxxxxxxx |xxxxxxxxxxxxx |xxxxxxxxxxxxx |     24565870 |     24565876 |     24565877 |xxxxxxxxxxxxx |xxxxxxxxxxxxx |xxxxxxxxxxxxx |xxxxxxxxxxxxx |     51707921 |     51707926 |     51707927 |xxxxxxxxxxxxx |xxxxxxxxxxxxx |xxxxxxxxxxxxx |xxxxxxxxxxxxx |    108309967 |    108309972 |    108309973 |xxxxxxxxxxxxx |xxxxxxxxxxxxx |xxxxxxxxxxxxx |xxxxxxxxxxxxx |    226958483 |    226958488 |    226958489 |
bpred_bimod.dir_hits                        124234 |       124238 |       124239 |xxxxxxxxxxxxx |xxxxxxxxxxxxx |xxxxxxxxxxxxx |xxxxxxxxxxxxx |       267073 |       267077 |       267077 |xxxxxxxxxxxxx |xxxxxxxxxxxxx |xxxxxxxxxxxxx |xxxxxxxxxxxxx |       573318 |       573324 |       573323 |xxxxxxxxxxxxx |xxxxxxxxxxxxx |xxxxxxxxxxxxx |xxxxxxxxxxxxx |      1221929 |      1221933 |      1221933 |xxxxxxxxxxxxx |xxxxxxxxxxxxx |xxxxxxxxxxxxx |xxxxxxxxxxxxx |      2603092 |      2603096 |      2603096 |xxxxxxxxxxxxx |xxxxxxxxxxxxx |xxxxxxxxxxxxx |xxxxxxxxxxxxx |      5514053 |      5514057 |      5514057 |xxxxxxxxxxxxx |xxxxxxxxxxxxx |xxxxxxxxxxxxx |xxxxxxxxxxxxx |     11670137 |     11670141 |     11670141 |xxxxxxxxxxxxx |xxxxxxxxxxxxx |xxxxxxxxxxxxx |xxxxxxxxxxxxx |     24565998 |     24566002 |     24566002 |xxxxxxxxxxxxx |xxxxxxxxxxxxx |xxxxxxxxxxxxx |xxxxxxxxxxxxx |     51708060 |     51708063 |     51708062 |xxxxxxxxxxxxx |xxxxxxxxxxxxx |xxxxxxxxxxxxx |xxxxxxxxxxxxx |    108310107 |    108310110 |    108310109 |xxxxxxxxxxxxx |xxxxxxxxxxxxx |xxxxxxxxxxxxx |xxxxxxxxxxxxx |    226958623 |    226958626 |    226958625 |
bpred_bimod.misses                           30816 |        30812 |        30811 |xxxxxxxxxxxxx |xxxxxxxxxxxxx |xxxxxxxxxxxxx |xxxxxxxxxxxxx |        66439 |        66435 |        66435 |xxxxxxxxxxxxx |xxxxxxxxxxxxx |xxxxxxxxxxxxx |xxxxxxxxxxxxx |       142236 |       142230 |       142231 |xxxxxxxxxxxxx |xxxxxxxxxxxxx |xxxxxxxxxxxxx |xxxxxxxxxxxxx |       305149 |       305145 |       305145 |xxxxxxxxxxxxx |xxxxxxxxxxxxx |xxxxxxxxxxxxx |xxxxxxxxxxxxx |       648383 |       648379 |       648379 |xxxxxxxxxxxxx |xxxxxxxxxxxxx |xxxxxxxxxxxxx |xxxxxxxxxxxxx |      1378600 |      1378596 |      1378596 |xxxxxxxxxxxxx |xxxxxxxxxxxxx |xxxxxxxxxxxxx |xxxxxxxxxxxxx |      2907246 |      2907242 |      2907242 |xxxxxxxxxxxxx |xxxxxxxxxxxxx |xxxxxxxxxxxxx |xxxxxxxxxxxxx |      6143986 |      6143982 |      6143982 |xxxxxxxxxxxxx |xxxxxxxxxxxxx |xxxxxxxxxxxxx |xxxxxxxxxxxxx |     12892170 |     12892167 |     12892168 |xxxxxxxxxxxxx |xxxxxxxxxxxxx |xxxxxxxxxxxxx |xxxxxxxxxxxxx |     27110959 |     27110956 |     27110957 |xxxxxxxxxxxxx |xxxxxxxxxxxxx |xxxxxxxxxxxxx |xxxxxxxxxxxxx |     56608752 |     56608749 |     56608750 |
bpred_bimod.jr_hits                           4155 |         4155 |         4155 |xxxxxxxxxxxxx |xxxxxxxxxxxxx |xxxxxxxxxxxxx |xxxxxxxxxxxxx |         8259 |         8259 |         8259 |xxxxxxxxxxxxx |xxxxxxxxxxxxx |xxxxxxxxxxxxx |xxxxxxxxxxxxx |        16451 |        16451 |        16451 |xxxxxxxxxxxxx |xxxxxxxxxxxxx |xxxxxxxxxxxxx |xxxxxxxxxxxxx |        32835 |        32835 |        32835 |xxxxxxxxxxxxx |xxxxxxxxxxxxx |xxxxxxxxxxxxx |xxxxxxxxxxxxx |        65603 |        65603 |        65603 |xxxxxxxxxxxxx |xxxxxxxxxxxxx |xxxxxxxxxxxxx |xxxxxxxxxxxxx |       131139 |       131139 |       131139 |xxxxxxxxxxxxx |xxxxxxxxxxxxx |xxxxxxxxxxxxx |xxxxxxxxxxxxx |       262211 |       262211 |       262211 |xxxxxxxxxxxxx |xxxxxxxxxxxxx |xxxxxxxxxxxxx |xxxxxxxxxxxxx |       524355 |       524355 |       524355 |xxxxxxxxxxxxx |xxxxxxxxxxxxx |xxxxxxxxxxxxx |xxxxxxxxxxxxx |      1048646 |      1048646 |      1048646 |xxxxxxxxxxxxx |xxxxxxxxxxxxx |xxxxxxxxxxxxx |xxxxxxxxxxxxx |      2097222 |      2097222 |      2097222 |xxxxxxxxxxxxx |xxxxxxxxxxxxx |xxxxxxxxxxxxx |xxxxxxxxxxxxx |      4194374 |      4194374 |      4194374 |
bpred_bimod.jr_seen                           4155 |         4155 |         4155 |xxxxxxxxxxxxx |xxxxxxxxxxxxx |xxxxxxxxxxxxx |xxxxxxxxxxxxx |         8260 |         8260 |         8260 |xxxxxxxxxxxxx |xxxxxxxxxxxxx |xxxxxxxxxxxxx |xxxxxxxxxxxxx |        16452 |        16452 |        16452 |xxxxxxxxxxxxx |xxxxxxxxxxxxx |xxxxxxxxxxxxx |xxxxxxxxxxxxx |        32836 |        32836 |        32836 |xxxxxxxxxxxxx |xxxxxxxxxxxxx |xxxxxxxxxxxxx |xxxxxxxxxxxxx |        65604 |        65604 |        65604 |xxxxxxxxxxxxx |xxxxxxxxxxxxx |xxxxxxxxxxxxx |xxxxxxxxxxxxx |       131140 |       131140 |       131140 |xxxxxxxxxxxxx |xxxxxxxxxxxxx |xxxxxxxxxxxxx |xxxxxxxxxxxxx |       262212 |       262212 |       262212 |xxxxxxxxxxxxx |xxxxxxxxxxxxx |xxxxxxxxxxxxx |xxxxxxxxxxxxx |       524356 |       524356 |       524356 |xxxxxxxxxxxxx |xxxxxxxxxxxxx |xxxxxxxxxxxxx |xxxxxxxxxxxxx |      1048647 |      1048647 |      1048647 |xxxxxxxxxxxxx |xxxxxxxxxxxxx |xxxxxxxxxxxxx |xxxxxxxxxxxxx |      2097223 |      2097223 |      2097223 |xxxxxxxxxxxxx |xxxxxxxxxxxxx |xxxxxxxxxxxxx |xxxxxxxxxxxxx |      4194375 |      4194375 |      4194375 |
bpred_bimod.jr_non_ras_hits.PP                   0 |            0 |            0 |xxxxxxxxxxxxx |xxxxxxxxxxxxx |xxxxxxxxxxxxx |xxxxxxxxxxxxx |            0 |            0 |            0 |xxxxxxxxxxxxx |xxxxxxxxxxxxx |xxxxxxxxxxxxx |xxxxxxxxxxxxx |            0 |            0 |            0 |xxxxxxxxxxxxx |xxxxxxxxxxxxx |xxxxxxxxxxxxx |xxxxxxxxxxxxx |            0 |            0 |            0 |xxxxxxxxxxxxx |xxxxxxxxxxxxx |xxxxxxxxxxxxx |xxxxxxxxxxxxx |            0 |            0 |            0 |xxxxxxxxxxxxx |xxxxxxxxxxxxx |xxxxxxxxxxxxx |xxxxxxxxxxxxx |            0 |            0 |            0 |xxxxxxxxxxxxx |xxxxxxxxxxxxx |xxxxxxxxxxxxx |xxxxxxxxxxxxx |            0 |            0 |            0 |xxxxxxxxxxxxx |xxxxxxxxxxxxx |xxxxxxxxxxxxx |xxxxxxxxxxxxx |            0 |            0 |            0 |xxxxxxxxxxxxx |xxxxxxxxxxxxx |xxxxxxxxxxxxx |xxxxxxxxxxxxx |            0 |            0 |            0 |xxxxxxxxxxxxx |xxxxxxxxxxxxx |xxxxxxxxxxxxx |xxxxxxxxxxxxx |            0 |            0 |            0 |xxxxxxxxxxxxx |xxxxxxxxxxxxx |xxxxxxxxxxxxx |xxxxxxxxxxxxx |            0 |            0 |            0 |
bpred_bimod.jr_non_ras_seen.PP                   0 |            0 |            0 |xxxxxxxxxxxxx |xxxxxxxxxxxxx |xxxxxxxxxxxxx |xxxxxxxxxxxxx |            0 |            0 |            0 |xxxxxxxxxxxxx |xxxxxxxxxxxxx |xxxxxxxxxxxxx |xxxxxxxxxxxxx |            0 |            0 |            0 |xxxxxxxxxxxxx |xxxxxxxxxxxxx |xxxxxxxxxxxxx |xxxxxxxxxxxxx |            0 |            0 |            0 |xxxxxxxxxxxxx |xxxxxxxxxxxxx |xxxxxxxxxxxxx |xxxxxxxxxxxxx |            0 |            0 |            0 |xxxxxxxxxxxxx |xxxxxxxxxxxxx |xxxxxxxxxxxxx |xxxxxxxxxxxxx |            0 |            0 |            0 |xxxxxxxxxxxxx |xxxxxxxxxxxxx |xxxxxxxxxxxxx |xxxxxxxxxxxxx |            0 |            0 |            0 |xxxxxxxxxxxxx |xxxxxxxxxxxxx |xxxxxxxxxxxxx |xxxxxxxxxxxxx |            0 |            0 |            0 |xxxxxxxxxxxxx |xxxxxxxxxxxxx |xxxxxxxxxxxxx |xxxxxxxxxxxxx |            1 |            1 |            1 |xxxxxxxxxxxxx |xxxxxxxxxxxxx |xxxxxxxxxxxxx |xxxxxxxxxxxxx |            1 |            1 |            1 |xxxxxxxxxxxxx |xxxxxxxxxxxxx |xxxxxxxxxxxxx |xxxxxxxxxxxxx |            1 |            1 |            1 |
bpred_bimod.bpred_addr_rate                 0.8005 |       0.8005 |       0.8005 |xxxxxxxxxxxxx |xxxxxxxxxxxxx |xxxxxxxxxxxxx |xxxxxxxxxxxxx |       0.8004 |       0.8004 |       0.8004 |xxxxxxxxxxxxx |xxxxxxxxxxxxx |xxxxxxxxxxxxx |xxxxxxxxxxxxx |       0.8010 |       0.8011 |       0.8011 |xxxxxxxxxxxxx |xxxxxxxxxxxxx |xxxxxxxxxxxxx |xxxxxxxxxxxxx |       0.8001 |       0.8001 |       0.8001 |xxxxxxxxxxxxx |xxxxxxxxxxxxx |xxxxxxxxxxxxx |xxxxxxxxxxxxx |       0.8005 |       0.8006 |       0.8006 |xxxxxxxxxxxxx |xxxxxxxxxxxxx |xxxxxxxxxxxxx |xxxxxxxxxxxxx |       0.8000 |       0.8000 |       0.8000 |xxxxxxxxxxxxx |xxxxxxxxxxxxx |xxxxxxxxxxxxx |xxxxxxxxxxxxx |       0.8006 |       0.8006 |       0.8006 |xxxxxxxxxxxxx |xxxxxxxxxxxxx |xxxxxxxxxxxxx |xxxxxxxxxxxxx |       0.7999 |       0.7999 |       0.7999 |xxxxxxxxxxxxx |xxxxxxxxxxxxx |xxxxxxxxxxxxx |xxxxxxxxxxxxx |       0.8004 |       0.8004 |       0.8004 |xxxxxxxxxxxxx |xxxxxxxxxxxxx |xxxxxxxxxxxxx |xxxxxxxxxxxxx |       0.7998 |       0.7998 |       0.7998 |xxxxxxxxxxxxx |xxxxxxxxxxxxx |xxxxxxxxxxxxx |xxxxxxxxxxxxx |       0.8004 |       0.8004 |       0.8004 |
bpred_bimod.bpred_dir_rate                  0.8013 |       0.8013 |       0.8013 |xxxxxxxxxxxxx |xxxxxxxxxxxxx |xxxxxxxxxxxxx |xxxxxxxxxxxxx |       0.8008 |       0.8008 |       0.8008 |xxxxxxxxxxxxx |xxxxxxxxxxxxx |xxxxxxxxxxxxx |xxxxxxxxxxxxx |       0.8012 |       0.8012 |       0.8012 |xxxxxxxxxxxxx |xxxxxxxxxxxxx |xxxxxxxxxxxxx |xxxxxxxxxxxxx |       0.8002 |       0.8002 |       0.8002 |xxxxxxxxxxxxx |xxxxxxxxxxxxx |xxxxxxxxxxxxx |xxxxxxxxxxxxx |       0.8006 |       0.8006 |       0.8006 |xxxxxxxxxxxxx |xxxxxxxxxxxxx |xxxxxxxxxxxxx |xxxxxxxxxxxxx |       0.8000 |       0.8000 |       0.8000 |xxxxxxxxxxxxx |xxxxxxxxxxxxx |xxxxxxxxxxxxx |xxxxxxxxxxxxx |       0.8006 |       0.8006 |       0.8006 |xxxxxxxxxxxxx |xxxxxxxxxxxxx |xxxxxxxxxxxxx |xxxxxxxxxxxxx |       0.7999 |       0.7999 |       0.7999 |xxxxxxxxxxxxx |xxxxxxxxxxxxx |xxxxxxxxxxxxx |xxxxxxxxxxxxx |       0.8004 |       0.8004 |       0.8004 |xxxxxxxxxxxxx |xxxxxxxxxxxxx |xxxxxxxxxxxxx |xxxxxxxxxxxxx |       0.7998 |       0.7998 |       0.7998 |xxxxxxxxxxxxx |xxxxxxxxxxxxx |xxxxxxxxxxxxx |xxxxxxxxxxxxx |       0.8004 |       0.8004 |       0.8004 |
bpred_bimod.bpred_jr_rate                   1.0000 |       1.0000 |       1.0000 |xxxxxxxxxxxxx |xxxxxxxxxxxxx |xxxxxxxxxxxxx |xxxxxxxxxxxxx |       0.9999 |       0.9999 |       0.9999 |xxxxxxxxxxxxx |xxxxxxxxxxxxx |xxxxxxxxxxxxx |xxxxxxxxxxxxx |       0.9999 |       0.9999 |       0.9999 |xxxxxxxxxxxxx |xxxxxxxxxxxxx |xxxxxxxxxxxxx |xxxxxxxxxxxxx |       1.0000 |       1.0000 |       1.0000 |xxxxxxxxxxxxx |xxxxxxxxxxxxx |xxxxxxxxxxxxx |xxxxxxxxxxxxx |       1.0000 |       1.0000 |       1.0000 |xxxxxxxxxxxxx |xxxxxxxxxxxxx |xxxxxxxxxxxxx |xxxxxxxxxxxxx |       1.0000 |       1.0000 |       1.0000 |xxxxxxxxxxxxx |xxxxxxxxxxxxx |xxxxxxxxxxxxx |xxxxxxxxxxxxx |       1.0000 |       1.0000 |       1.0000 |xxxxxxxxxxxxx |xxxxxxxxxxxxx |xxxxxxxxxxxxx |xxxxxxxxxxxxx |       1.0000 |       1.0000 |       1.0000 |xxxxxxxxxxxxx |xxxxxxxxxxxxx |xxxxxxxxxxxxx |xxxxxxxxxxxxx |       1.0000 |       1.0000 |       1.0000 |xxxxxxxxxxxxx |xxxxxxxxxxxxx |xxxxxxxxxxxxx |xxxxxxxxxxxxx |       1.0000 |       1.0000 |       1.0000 |xxxxxxxxxxxxx |xxxxxxxxxxxxx |xxxxxxxxxxxxx |xxxxxxxxxxxxx |       1.0000 |       1.0000 |       1.0000 |
bpred_bimod.bpred_jr_non_ras_rate.PP       <error: |      <error: |      <error: |xxxxxxxxxxxxx |xxxxxxxxxxxxx |xxxxxxxxxxxxx |xxxxxxxxxxxxx |      <error: |      <error: |      <error: |xxxxxxxxxxxxx |xxxxxxxxxxxxx |xxxxxxxxxxxxx |xxxxxxxxxxxxx |      <error: |      <error: |      <error: |xxxxxxxxxxxxx |xxxxxxxxxxxxx |xxxxxxxxxxxxx |xxxxxxxxxxxxx |      <error: |      <error: |      <error: |xxxxxxxxxxxxx |xxxxxxxxxxxxx |xxxxxxxxxxxxx |xxxxxxxxxxxxx |      <error: |      <error: |      <error: |xxxxxxxxxxxxx |xxxxxxxxxxxxx |xxxxxxxxxxxxx |xxxxxxxxxxxxx |      <error: |      <error: |      <error: |xxxxxxxxxxxxx |xxxxxxxxxxxxx |xxxxxxxxxxxxx |xxxxxxxxxxxxx |      <error: |      <error: |      <error: |xxxxxxxxxxxxx |xxxxxxxxxxxxx |xxxxxxxxxxxxx |xxxxxxxxxxxxx |      <error: |      <error: |      <error: |xxxxxxxxxxxxx |xxxxxxxxxxxxx |xxxxxxxxxxxxx |xxxxxxxxxxxxx |       0.0000 |       0.0000 |       0.0000 |xxxxxxxxxxxxx |xxxxxxxxxxxxx |xxxxxxxxxxxxx |xxxxxxxxxxxxx |       0.0000 |       0.0000 |       0.0000 |xxxxxxxxxxxxx |xxxxxxxxxxxxx |xxxxxxxxxxxxx |xxxxxxxxxxxxx |       0.0000 |       0.0000 |       0.0000 |
bpred_bimod.retstack_pushes                   4157 |         4157 |         4157 |xxxxxxxxxxxxx |xxxxxxxxxxxxx |xxxxxxxxxxxxx |xxxxxxxxxxxxx |         8262 |         8262 |         8262 |xxxxxxxxxxxxx |xxxxxxxxxxxxx |xxxxxxxxxxxxx |xxxxxxxxxxxxx |        16454 |        16454 |        16454 |xxxxxxxxxxxxx |xxxxxxxxxxxxx |xxxxxxxxxxxxx |xxxxxxxxxxxxx |        32838 |        32838 |        32838 |xxxxxxxxxxxxx |xxxxxxxxxxxxx |xxxxxxxxxxxxx |xxxxxxxxxxxxx |        65606 |        65606 |        65606 |xxxxxxxxxxxxx |xxxxxxxxxxxxx |xxxxxxxxxxxxx |xxxxxxxxxxxxx |       131142 |       131142 |       131142 |xxxxxxxxxxxxx |xxxxxxxxxxxxx |xxxxxxxxxxxxx |xxxxxxxxxxxxx |       262214 |       262214 |       262214 |xxxxxxxxxxxxx |xxxxxxxxxxxxx |xxxxxxxxxxxxx |xxxxxxxxxxxxx |       524358 |       524358 |       524358 |xxxxxxxxxxxxx |xxxxxxxxxxxxx |xxxxxxxxxxxxx |xxxxxxxxxxxxx |      1048648 |      1048648 |      1048648 |xxxxxxxxxxxxx |xxxxxxxxxxxxx |xxxxxxxxxxxxx |xxxxxxxxxxxxx |      2097224 |      2097224 |      2097224 |xxxxxxxxxxxxx |xxxxxxxxxxxxx |xxxxxxxxxxxxx |xxxxxxxxxxxxx |      4194376 |      4194376 |      4194376 |
bpred_bimod.retstack_pops                     4155 |         4155 |         4155 |xxxxxxxxxxxxx |xxxxxxxxxxxxx |xxxxxxxxxxxxx |xxxxxxxxxxxxx |         8260 |         8260 |         8260 |xxxxxxxxxxxxx |xxxxxxxxxxxxx |xxxxxxxxxxxxx |xxxxxxxxxxxxx |        16452 |        16452 |        16452 |xxxxxxxxxxxxx |xxxxxxxxxxxxx |xxxxxxxxxxxxx |xxxxxxxxxxxxx |        32836 |        32836 |        32836 |xxxxxxxxxxxxx |xxxxxxxxxxxxx |xxxxxxxxxxxxx |xxxxxxxxxxxxx |        65604 |        65604 |        65604 |xxxxxxxxxxxxx |xxxxxxxxxxxxx |xxxxxxxxxxxxx |xxxxxxxxxxxxx |       131140 |       131140 |       131140 |xxxxxxxxxxxxx |xxxxxxxxxxxxx |xxxxxxxxxxxxx |xxxxxxxxxxxxx |       262212 |       262212 |       262212 |xxxxxxxxxxxxx |xxxxxxxxxxxxx |xxxxxxxxxxxxx |xxxxxxxxxxxxx |       524356 |       524356 |       524356 |xxxxxxxxxxxxx |xxxxxxxxxxxxx |xxxxxxxxxxxxx |xxxxxxxxxxxxx |      1048646 |      1048646 |      1048646 |xxxxxxxxxxxxx |xxxxxxxxxxxxx |xxxxxxxxxxxxx |xxxxxxxxxxxxx |      2097222 |      2097222 |      2097222 |xxxxxxxxxxxxx |xxxxxxxxxxxxx |xxxxxxxxxxxxx |xxxxxxxxxxxxx |      4194374 |      4194374 |      4194374 |
bpred_bimod.used_ras.PP                       4155 |         4155 |         4155 |xxxxxxxxxxxxx |xxxxxxxxxxxxx |xxxxxxxxxxxxx |xxxxxxxxxxxxx |         8260 |         8260 |         8260 |xxxxxxxxxxxxx |xxxxxxxxxxxxx |xxxxxxxxxxxxx |xxxxxxxxxxxxx |        16452 |        16452 |        16452 |xxxxxxxxxxxxx |xxxxxxxxxxxxx |xxxxxxxxxxxxx |xxxxxxxxxxxxx |        32836 |        32836 |        32836 |xxxxxxxxxxxxx |xxxxxxxxxxxxx |xxxxxxxxxxxxx |xxxxxxxxxxxxx |        65604 |        65604 |        65604 |xxxxxxxxxxxxx |xxxxxxxxxxxxx |xxxxxxxxxxxxx |xxxxxxxxxxxxx |       131140 |       131140 |       131140 |xxxxxxxxxxxxx |xxxxxxxxxxxxx |xxxxxxxxxxxxx |xxxxxxxxxxxxx |       262212 |       262212 |       262212 |xxxxxxxxxxxxx |xxxxxxxxxxxxx |xxxxxxxxxxxxx |xxxxxxxxxxxxx |       524356 |       524356 |       524356 |xxxxxxxxxxxxx |xxxxxxxxxxxxx |xxxxxxxxxxxxx |xxxxxxxxxxxxx |      1048646 |      1048646 |      1048646 |xxxxxxxxxxxxx |xxxxxxxxxxxxx |xxxxxxxxxxxxx |xxxxxxxxxxxxx |      2097222 |      2097222 |      2097222 |xxxxxxxxxxxxx |xxxxxxxxxxxxx |xxxxxxxxxxxxx |xxxxxxxxxxxxx |      4194374 |      4194374 |      4194374 |
bpred_bimod.ras_hits.PP                       4155 |         4155 |         4155 |xxxxxxxxxxxxx |xxxxxxxxxxxxx |xxxxxxxxxxxxx |xxxxxxxxxxxxx |         8259 |         8259 |         8259 |xxxxxxxxxxxxx |xxxxxxxxxxxxx |xxxxxxxxxxxxx |xxxxxxxxxxxxx |        16451 |        16451 |        16451 |xxxxxxxxxxxxx |xxxxxxxxxxxxx |xxxxxxxxxxxxx |xxxxxxxxxxxxx |        32835 |        32835 |        32835 |xxxxxxxxxxxxx |xxxxxxxxxxxxx |xxxxxxxxxxxxx |xxxxxxxxxxxxx |        65603 |        65603 |        65603 |xxxxxxxxxxxxx |xxxxxxxxxxxxx |xxxxxxxxxxxxx |xxxxxxxxxxxxx |       131139 |       131139 |       131139 |xxxxxxxxxxxxx |xxxxxxxxxxxxx |xxxxxxxxxxxxx |xxxxxxxxxxxxx |       262211 |       262211 |       262211 |xxxxxxxxxxxxx |xxxxxxxxxxxxx |xxxxxxxxxxxxx |xxxxxxxxxxxxx |       524355 |       524355 |       524355 |xxxxxxxxxxxxx |xxxxxxxxxxxxx |xxxxxxxxxxxxx |xxxxxxxxxxxxx |      1048646 |      1048646 |      1048646 |xxxxxxxxxxxxx |xxxxxxxxxxxxx |xxxxxxxxxxxxx |xxxxxxxxxxxxx |      2097222 |      2097222 |      2097222 |xxxxxxxxxxxxx |xxxxxxxxxxxxx |xxxxxxxxxxxxx |xxxxxxxxxxxxx |      4194374 |      4194374 |      4194374 |
bpred_bimod.ras_rate.PP                     1.0000 |       1.0000 |       1.0000 |xxxxxxxxxxxxx |xxxxxxxxxxxxx |xxxxxxxxxxxxx |xxxxxxxxxxxxx |       0.9999 |       0.9999 |       0.9999 |xxxxxxxxxxxxx |xxxxxxxxxxxxx |xxxxxxxxxxxxx |xxxxxxxxxxxxx |       0.9999 |       0.9999 |       0.9999 |xxxxxxxxxxxxx |xxxxxxxxxxxxx |xxxxxxxxxxxxx |xxxxxxxxxxxxx |       1.0000 |       1.0000 |       1.0000 |xxxxxxxxxxxxx |xxxxxxxxxxxxx |xxxxxxxxxxxxx |xxxxxxxxxxxxx |       1.0000 |       1.0000 |       1.0000 |xxxxxxxxxxxxx |xxxxxxxxxxxxx |xxxxxxxxxxxxx |xxxxxxxxxxxxx |       1.0000 |       1.0000 |       1.0000 |xxxxxxxxxxxxx |xxxxxxxxxxxxx |xxxxxxxxxxxxx |xxxxxxxxxxxxx |       1.0000 |       1.0000 |       1.0000 |xxxxxxxxxxxxx |xxxxxxxxxxxxx |xxxxxxxxxxxxx |xxxxxxxxxxxxx |       1.0000 |       1.0000 |       1.0000 |xxxxxxxxxxxxx |xxxxxxxxxxxxx |xxxxxxxxxxxxx |xxxxxxxxxxxxx |       1.0000 |       1.0000 |       1.0000 |xxxxxxxxxxxxx |xxxxxxxxxxxxx |xxxxxxxxxxxxx |xxxxxxxxxxxxx |       1.0000 |       1.0000 |       1.0000 |xxxxxxxxxxxxx |xxxxxxxxxxxxx |xxxxxxxxxxxxx |xxxxxxxxxxxxx |       1.0000 |       1.0000 |       1.0000 |
bpred_2lev.lookups                   xxxxxxxxxxxxx |xxxxxxxxxxxxx |xxxxxxxxxxxxx |       155050 |       155050 |       155050 |       155050 |xxxxxxxxxxxxx |xxxxxxxxxxxxx |xxxxxxxxxxxxx |       333512 |       333512 |       333512 |       333512 |xxxxxxxxxxxxx |xxxxxxxxxxxxx |xxxxxxxxxxxxx |       715554 |       715554 |       715554 |       715554 |xxxxxxxxxxxxx |xxxxxxxxxxxxx |xxxxxxxxxxxxx |      1527078 |      1527078 |      1527078 |      1527078 |xxxxxxxxxxxxx |xxxxxxxxxxxxx |xxxxxxxxxxxxx |      3251475 |      3251475 |      3251475 |      3251475 |xxxxxxxxxxxxx |xxxxxxxxxxxxx |xxxxxxxxxxxxx |      6892653 |      6892653 |      6892653 |      6892653 |xxxxxxxxxxxxx |xxxxxxxxxxxxx |xxxxxxxxxxxxx |     14577383 |     14577383 |     14577383 |     14577383 |xxxxxxxxxxxxx |xxxxxxxxxxxxx |xxxxxxxxxxxxx |     30709984 |     30709984 |     30709984 |     30709984 |xxxxxxxxxxxxx |xxxxxxxxxxxxx |xxxxxxxxxxxxx |     64600230 |     64600230 |     64600230 |     64600230 |xxxxxxxxxxxxx |xxxxxxxxxxxxx |xxxxxxxxxxxxx |    135421066 |    135421066 |    135421066 |    135421066 |xxxxxxxxxxxxx |xxxxxxxxxxxxx |xxxxxxxxxxxxx |    283567375 |    283567375 |    283567375 |    283567375 |
[...]
bpred_2lev.retstack_pushes           xxxxxxxxxxxxx |xxxxxxxxxxxxx |xxxxxxxxxxxxx |         4157 |         4157 |         4157 |         4157 |xxxxxxxxxxxxx |xxxxxxxxxxxxx |xxxxxxxxxxxxx |         8262 |         8262 |         8262 |         8262 |xxxxxxxxxxxxx |xxxxxxxxxxxxx |xxxxxxxxxxxxx |        16454 |        16454 |        16454 |        16454 |xxxxxxxxxxxxx |xxxxxxxxxxxxx |xxxxxxxxxxxxx |        32838 |        32838 |        32838 |        32838 |xxxxxxxxxxxxx |xxxxxxxxxxxxx |xxxxxxxxxxxxx |        65606 |        65606 |        65606 |        65606 |xxxxxxxxxxxxx |xxxxxxxxxxxxx |xxxxxxxxxxxxx |       131142 |       131142 |       131142 |       131142 |xxxxxxxxxxxxx |xxxxxxxxxxxxx |xxxxxxxxxxxxx |       262214 |       262214 |       262214 |       262214 |xxxxxxxxxxxxx |xxxxxxxxxxxxx |xxxxxxxxxxxxx |       524358 |       524358 |       524358 |       524358 |xxxxxxxxxxxxx |xxxxxxxxxxxxx |xxxxxxxxxxxxx |      1048648 |      1048648 |      1048648 |      1048648 |xxxxxxxxxxxxx |xxxxxxxxxxxxx |xxxxxxxxxxxxx |      2097224 |      2097224 |      2097224 |      2097224 |xxxxxxxxxxxxx |xxxxxxxxxxxxx |xxxxxxxxxxxxx |      4194376 |      4194376 |      4194376 |      4194376 |
bpred_2lev.retstack_pops             xxxxxxxxxxxxx |xxxxxxxxxxxxx |xxxxxxxxxxxxx |         4155 |         4155 |         4155 |         4155 |xxxxxxxxxxxxx |xxxxxxxxxxxxx |xxxxxxxxxxxxx |         8260 |         8260 |         8260 |         8260 |xxxxxxxxxxxxx |xxxxxxxxxxxxx |xxxxxxxxxxxxx |        16452 |        16452 |        16452 |        16452 |xxxxxxxxxxxxx |xxxxxxxxxxxxx |xxxxxxxxxxxxx |        32836 |        32836 |        32836 |        32836 |xxxxxxxxxxxxx |xxxxxxxxxxxxx |xxxxxxxxxxxxx |        65604 |        65604 |        65604 |        65604 |xxxxxxxxxxxxx |xxxxxxxxxxxxx |xxxxxxxxxxxxx |       131140 |       131140 |       131140 |       131140 |xxxxxxxxxxxxx |xxxxxxxxxxxxx |xxxxxxxxxxxxx |       262212 |       262212 |       262212 |       262212 |xxxxxxxxxxxxx |xxxxxxxxxxxxx |xxxxxxxxxxxxx |       524356 |       524356 |       524356 |       524356 |xxxxxxxxxxxxx |xxxxxxxxxxxxx |xxxxxxxxxxxxx |      1048646 |      1048646 |      1048646 |      1048646 |xxxxxxxxxxxxx |xxxxxxxxxxxxx |xxxxxxxxxxxxx |      2097222 |      2097222 |      2097222 |      2097222 |xxxxxxxxxxxxx |xxxxxxxxxxxxx |xxxxxxxxxxxxx |      4194374 |      4194374 |      4194374 |      4194374 |
bpred_2lev.used_ras.PP               xxxxxxxxxxxxx |xxxxxxxxxxxxx |xxxxxxxxxxxxx |         4155 |         4155 |         4155 |         4155 |xxxxxxxxxxxxx |xxxxxxxxxxxxx |xxxxxxxxxxxxx |         8260 |         8260 |         8260 |         8260 |xxxxxxxxxxxxx |xxxxxxxxxxxxx |xxxxxxxxxxxxx |        16452 |        16452 |        16452 |        16452 |xxxxxxxxxxxxx |xxxxxxxxxxxxx |xxxxxxxxxxxxx |        32836 |        32836 |        32836 |        32836 |xxxxxxxxxxxxx |xxxxxxxxxxxxx |xxxxxxxxxxxxx |        65604 |        65604 |        65604 |        65604 |xxxxxxxxxxxxx |xxxxxxxxxxxxx |xxxxxxxxxxxxx |       131140 |       131140 |       131140 |       131140 |xxxxxxxxxxxxx |xxxxxxxxxxxxx |xxxxxxxxxxxxx |       262212 |       262212 |       262212 |       262212 |xxxxxxxxxxxxx |xxxxxxxxxxxxx |xxxxxxxxxxxxx |       524356 |       524356 |       524356 |       524356 |xxxxxxxxxxxxx |xxxxxxxxxxxxx |xxxxxxxxxxxxx |      1048646 |      1048646 |      1048646 |      1048646 |xxxxxxxxxxxxx |xxxxxxxxxxxxx |xxxxxxxxxxxxx |      2097222 |      2097222 |      2097222 |      2097222 |xxxxxxxxxxxxx |xxxxxxxxxxxxx |xxxxxxxxxxxxx |      4194374 |      4194374 |      4194374 |      4194374 |
bpred_2lev.ras_hits.PP               xxxxxxxxxxxxx |xxxxxxxxxxxxx |xxxxxxxxxxxxx |         4155 |         4155 |         4155 |         4155 |xxxxxxxxxxxxx |xxxxxxxxxxxxx |xxxxxxxxxxxxx |         8259 |         8259 |         8259 |         8259 |xxxxxxxxxxxxx |xxxxxxxxxxxxx |xxxxxxxxxxxxx |        16451 |        16451 |        16451 |        16451 |xxxxxxxxxxxxx |xxxxxxxxxxxxx |xxxxxxxxxxxxx |        32835 |        32835 |        32835 |        32835 |xxxxxxxxxxxxx |xxxxxxxxxxxxx |xxxxxxxxxxxxx |        65603 |        65603 |        65603 |        65603 |xxxxxxxxxxxxx |xxxxxxxxxxxxx |xxxxxxxxxxxxx |       131139 |       131139 |       131139 |       131139 |xxxxxxxxxxxxx |xxxxxxxxxxxxx |xxxxxxxxxxxxx |       262211 |       262211 |       262211 |       262211 |xxxxxxxxxxxxx |xxxxxxxxxxxxx |xxxxxxxxxxxxx |       524355 |       524355 |       524355 |       524355 |xxxxxxxxxxxxx |xxxxxxxxxxxxx |xxxxxxxxxxxxx |      1048646 |      1048646 |      1048646 |      1048646 |xxxxxxxxxxxxx |xxxxxxxxxxxxx |xxxxxxxxxxxxx |      2097222 |      2097222 |      2097222 |      2097222 |xxxxxxxxxxxxx |xxxxxxxxxxxxx |xxxxxxxxxxxxx |      4194374 |      4194374 |      4194374 |      4194374 |
bpred_2lev.ras_rate.PP               xxxxxxxxxxxxx |xxxxxxxxxxxxx |xxxxxxxxxxxxx |       1.0000 |       1.0000 |       1.0000 |       1.0000 |xxxxxxxxxxxxx |xxxxxxxxxxxxx |xxxxxxxxxxxxx |       0.9999 |       0.9999 |       0.9999 |       0.9999 |xxxxxxxxxxxxx |xxxxxxxxxxxxx |xxxxxxxxxxxxx |       0.9999 |       0.9999 |       0.9999 |       0.9999 |xxxxxxxxxxxxx |xxxxxxxxxxxxx |xxxxxxxxxxxxx |       1.0000 |       1.0000 |       1.0000 |       1.0000 |xxxxxxxxxxxxx |xxxxxxxxxxxxx |xxxxxxxxxxxxx |       1.0000 |       1.0000 |       1.0000 |       1.0000 |xxxxxxxxxxxxx |xxxxxxxxxxxxx |xxxxxxxxxxxxx |       1.0000 |       1.0000 |       1.0000 |       1.0000 |xxxxxxxxxxxxx |xxxxxxxxxxxxx |xxxxxxxxxxxxx |       1.0000 |       1.0000 |       1.0000 |       1.0000 |xxxxxxxxxxxxx |xxxxxxxxxxxxx |xxxxxxxxxxxxx |       1.0000 |       1.0000 |       1.0000 |       1.0000 |xxxxxxxxxxxxx |xxxxxxxxxxxxx |xxxxxxxxxxxxx |       1.0000 |       1.0000 |       1.0000 |       1.0000 |xxxxxxxxxxxxx |xxxxxxxxxxxxx |xxxxxxxxxxxxx |       1.0000 |       1.0000 |       1.0000 |       1.0000 |xxxxxxxxxxxxx |xxxxxxxxxxxxx |xxxxxxxxxxxxx |       1.0000 |       1.0000 |       1.0000 |       1.0000 |

Command list: 
	sslittle-na-sstrix-gcc -Wall -O3 -funroll-loops -finline-functions  -DRANDOM_SIZE=4096 -DSEED=0 -DSORT=cache4_heapsort cache4_heapsort638832258.c simpleMain.c -o cache4_heapsort2064488059
	sim-cache -cache:dl1 dl1:512:16:1:l -cache:dl2 dl2:262144:16:1:l -cache:il1 il1:512:16:1:l -cache:il2 dl2 cache4_heapsort2064488059
	sim-cache -cache:dl1 dl1:512:16:1:l -cache:dl2 dl2:131072:16:1:l -cache:il1 il1:512:16:1:l -cache:il2 dl2 cache4_heapsort2064488059
	sim-cache -cache:dl1 dl1:1:16:512:l -cache:dl2 dl2:1:16:262144:l -cache:il1 il1:1:16:512:l -cache:il2 dl2 cache4_heapsort2064488059
	sim-cache -cache:dl1 dl1:1:16:512:l -cache:dl2 dl2:1:16:131072:l -cache:il1 il1:1:16:512:l -cache:il2 dl2 cache4_heapsort2064488059
	sim-bpred -bpred bimod -bpred:bimod 512 cache4_heapsort2064488059
	sim-bpred -bpred bimod -bpred:bimod 1024 cache4_heapsort2064488059
	sim-bpred -bpred bimod -bpred:bimod 2048 cache4_heapsort2064488059
	sim-bpred -bpred 2lev -bpred:2lev 1 512 10 1 cache4_heapsort2064488059
	sim-bpred -bpred 2lev -bpred:2lev 1 1024 10 1 cache4_heapsort2064488059
	sim-bpred -bpred 2lev -bpred:2lev 1 2048 10 1 cache4_heapsort2064488059
	sim-bpred -bpred 2lev -bpred:2lev 1 4096 10 1 cache4_heapsort2064488059
	sslittle-na-sstrix-gcc -Wall -O3 -funroll-loops -finline-functions  -DRANDOM_SIZE=8192 -DSEED=0 -DSORT=cache4_heapsort cache4_heapsort638832258.c simpleMain.c -o cache4_heapsort2064488059
	sim-cache -cache:dl1 dl1:512:16:1:l -cache:dl2 dl2:262144:16:1:l -cache:il1 il1:512:16:1:l -cache:il2 dl2 cache4_heapsort2064488059
	sim-cache -cache:dl1 dl1:512:16:1:l -cache:dl2 dl2:131072:16:1:l -cache:il1 il1:512:16:1:l -cache:il2 dl2 cache4_heapsort2064488059
	sim-cache -cache:dl1 dl1:1:16:512:l -cache:dl2 dl2:1:16:262144:l -cache:il1 il1:1:16:512:l -cache:il2 dl2 cache4_heapsort2064488059
	sim-cache -cache:dl1 dl1:1:16:512:l -cache:dl2 dl2:1:16:131072:l -cache:il1 il1:1:16:512:l -cache:il2 dl2 cache4_heapsort2064488059
	sim-bpred -bpred bimod -bpred:bimod 512 cache4_heapsort2064488059
	sim-bpred -bpred bimod -bpred:bimod 1024 cache4_heapsort2064488059
	sim-bpred -bpred bimod -bpred:bimod 2048 cache4_heapsort2064488059
	sim-bpred -bpred 2lev -bpred:2lev 1 512 10 1 cache4_heapsort2064488059
	sim-bpred -bpred 2lev -bpred:2lev 1 1024 10 1 cache4_heapsort2064488059
	sim-bpred -bpred 2lev -bpred:2lev 1 2048 10 1 cache4_heapsort2064488059
	sim-bpred -bpred 2lev -bpred:2lev 1 4096 10 1 cache4_heapsort2064488059
	sslittle-na-sstrix-gcc -Wall -O3 -funroll-loops -finline-functions  -DRANDOM_SIZE=16384 -DSEED=0 -DSORT=cache4_heapsort cache4_heapsort638832258.c simpleMain.c -o cache4_heapsort2064488059
	sim-cache -cache:dl1 dl1:512:16:1:l -cache:dl2 dl2:262144:16:1:l -cache:il1 il1:512:16:1:l -cache:il2 dl2 cache4_heapsort2064488059
	sim-cache -cache:dl1 dl1:512:16:1:l -cache:dl2 dl2:131072:16:1:l -cache:il1 il1:512:16:1:l -cache:il2 dl2 cache4_heapsort2064488059
	sim-cache -cache:dl1 dl1:1:16:512:l -cache:dl2 dl2:1:16:262144:l -cache:il1 il1:1:16:512:l -cache:il2 dl2 cache4_heapsort2064488059
	sim-cache -cache:dl1 dl1:1:16:512:l -cache:dl2 dl2:1:16:131072:l -cache:il1 il1:1:16:512:l -cache:il2 dl2 cache4_heapsort2064488059
	sim-bpred -bpred bimod -bpred:bimod 512 cache4_heapsort2064488059
	sim-bpred -bpred bimod -bpred:bimod 1024 cache4_heapsort2064488059
	sim-bpred -bpred bimod -bpred:bimod 2048 cache4_heapsort2064488059
	sim-bpred -bpred 2lev -bpred:2lev 1 512 10 1 cache4_heapsort2064488059
	sim-bpred -bpred 2lev -bpred:2lev 1 1024 10 1 cache4_heapsort2064488059
	sim-bpred -bpred 2lev -bpred:2lev 1 2048 10 1 cache4_heapsort2064488059
	sim-bpred -bpred 2lev -bpred:2lev 1 4096 10 1 cache4_heapsort2064488059
	sslittle-na-sstrix-gcc -Wall -O3 -funroll-loops -finline-functions  -DRANDOM_SIZE=32768 -DSEED=0 -DSORT=cache4_heapsort cache4_heapsort638832258.c simpleMain.c -o cache4_heapsort2064488059
	sim-cache -cache:dl1 dl1:512:16:1:l -cache:dl2 dl2:262144:16:1:l -cache:il1 il1:512:16:1:l -cache:il2 dl2 cache4_heapsort2064488059
	sim-cache -cache:dl1 dl1:512:16:1:l -cache:dl2 dl2:131072:16:1:l -cache:il1 il1:512:16:1:l -cache:il2 dl2 cache4_heapsort2064488059
	sim-cache -cache:dl1 dl1:1:16:512:l -cache:dl2 dl2:1:16:262144:l -cache:il1 il1:1:16:512:l -cache:il2 dl2 cache4_heapsort2064488059
	sim-cache -cache:dl1 dl1:1:16:512:l -cache:dl2 dl2:1:16:131072:l -cache:il1 il1:1:16:512:l -cache:il2 dl2 cache4_heapsort2064488059
	sim-bpred -bpred bimod -bpred:bimod 512 cache4_heapsort2064488059
	sim-bpred -bpred bimod -bpred:bimod 1024 cache4_heapsort2064488059
	sim-bpred -bpred bimod -bpred:bimod 2048 cache4_heapsort2064488059
	sim-bpred -bpred 2lev -bpred:2lev 1 512 10 1 cache4_heapsort2064488059
	sim-bpred -bpred 2lev -bpred:2lev 1 1024 10 1 cache4_heapsort2064488059
	sim-bpred -bpred 2lev -bpred:2lev 1 2048 10 1 cache4_heapsort2064488059
	sim-bpred -bpred 2lev -bpred:2lev 1 4096 10 1 cache4_heapsort2064488059
	sslittle-na-sstrix-gcc -Wall -O3 -funroll-loops -finline-functions  -DRANDOM_SIZE=65536 -DSEED=0 -DSORT=cache4_heapsort cache4_heapsort638832258.c simpleMain.c -o cache4_heapsort2064488059
	sim-cache -cache:dl1 dl1:512:16:1:l -cache:dl2 dl2:262144:16:1:l -cache:il1 il1:512:16:1:l -cache:il2 dl2 cache4_heapsort2064488059
	sim-cache -cache:dl1 dl1:512:16:1:l -cache:dl2 dl2:131072:16:1:l -cache:il1 il1:512:16:1:l -cache:il2 dl2 cache4_heapsort2064488059
	sim-cache -cache:dl1 dl1:1:16:512:l -cache:dl2 dl2:1:16:262144:l -cache:il1 il1:1:16:512:l -cache:il2 dl2 cache4_heapsort2064488059
	sim-cache -cache:dl1 dl1:1:16:512:l -cache:dl2 dl2:1:16:131072:l -cache:il1 il1:1:16:512:l -cache:il2 dl2 cache4_heapsort2064488059
	sim-bpred -bpred bimod -bpred:bimod 512 cache4_heapsort2064488059
	sim-bpred -bpred bimod -bpred:bimod 1024 cache4_heapsort2064488059
	sim-bpred -bpred bimod -bpred:bimod 2048 cache4_heapsort2064488059
	sim-bpred -bpred 2lev -bpred:2lev 1 512 10 1 cache4_heapsort2064488059
	sim-bpred -bpred 2lev -bpred:2lev 1 1024 10 1 cache4_heapsort2064488059
	sim-bpred -bpred 2lev -bpred:2lev 1 2048 10 1 cache4_heapsort2064488059
	sim-bpred -bpred 2lev -bpred:2lev 1 4096 10 1 cache4_heapsort2064488059
	sslittle-na-sstrix-gcc -Wall -O3 -funroll-loops -finline-functions  -DRANDOM_SIZE=131072 -DSEED=0 -DSORT=cache4_heapsort cache4_heapsort638832258.c simpleMain.c -o cache4_heapsort2064488059
	sim-cache -cache:dl1 dl1:512:16:1:l -cache:dl2 dl2:262144:16:1:l -cache:il1 il1:512:16:1:l -cache:il2 dl2 cache4_heapsort2064488059
	sim-cache -cache:dl1 dl1:512:16:1:l -cache:dl2 dl2:131072:16:1:l -cache:il1 il1:512:16:1:l -cache:il2 dl2 cache4_heapsort2064488059
	sim-cache -cache:dl1 dl1:1:16:512:l -cache:dl2 dl2:1:16:262144:l -cache:il1 il1:1:16:512:l -cache:il2 dl2 cache4_heapsort2064488059
	sim-cache -cache:dl1 dl1:1:16:512:l -cache:dl2 dl2:1:16:131072:l -cache:il1 il1:1:16:512:l -cache:il2 dl2 cache4_heapsort2064488059
	sim-bpred -bpred bimod -bpred:bimod 512 cache4_heapsort2064488059
	sim-bpred -bpred bimod -bpred:bimod 1024 cache4_heapsort2064488059
	sim-bpred -bpred bimod -bpred:bimod 2048 cache4_heapsort2064488059
	sim-bpred -bpred 2lev -bpred:2lev 1 512 10 1 cache4_heapsort2064488059
	sim-bpred -bpred 2lev -bpred:2lev 1 1024 10 1 cache4_heapsort2064488059
	sim-bpred -bpred 2lev -bpred:2lev 1 2048 10 1 cache4_heapsort2064488059
	sim-bpred -bpred 2lev -bpred:2lev 1 4096 10 1 cache4_heapsort2064488059
	sslittle-na-sstrix-gcc -Wall -O3 -funroll-loops -finline-functions  -DRANDOM_SIZE=262144 -DSEED=0 -DSORT=cache4_heapsort cache4_heapsort638832258.c simpleMain.c -o cache4_heapsort2064488059
	sim-cache -cache:dl1 dl1:512:16:1:l -cache:dl2 dl2:262144:16:1:l -cache:il1 il1:512:16:1:l -cache:il2 dl2 cache4_heapsort2064488059
	sim-cache -cache:dl1 dl1:512:16:1:l -cache:dl2 dl2:131072:16:1:l -cache:il1 il1:512:16:1:l -cache:il2 dl2 cache4_heapsort2064488059
	sim-cache -cache:dl1 dl1:1:16:512:l -cache:dl2 dl2:1:16:262144:l -cache:il1 il1:1:16:512:l -cache:il2 dl2 cache4_heapsort2064488059
	sim-cache -cache:dl1 dl1:1:16:512:l -cache:dl2 dl2:1:16:131072:l -cache:il1 il1:1:16:512:l -cache:il2 dl2 cache4_heapsort2064488059
	sim-bpred -bpred bimod -bpred:bimod 512 cache4_heapsort2064488059
	sim-bpred -bpred bimod -bpred:bimod 1024 cache4_heapsort2064488059
	sim-bpred -bpred bimod -bpred:bimod 2048 cache4_heapsort2064488059
	sim-bpred -bpred 2lev -bpred:2lev 1 512 10 1 cache4_heapsort2064488059
	sim-bpred -bpred 2lev -bpred:2lev 1 1024 10 1 cache4_heapsort2064488059
	sim-bpred -bpred 2lev -bpred:2lev 1 2048 10 1 cache4_heapsort2064488059
	sim-bpred -bpred 2lev -bpred:2lev 1 4096 10 1 cache4_heapsort2064488059
	sslittle-na-sstrix-gcc -Wall -O3 -funroll-loops -finline-functions  -DRANDOM_SIZE=524288 -DSEED=0 -DSORT=cache4_heapsort cache4_heapsort638832258.c simpleMain.c -o cache4_heapsort2064488059
	sim-cache -cache:dl1 dl1:512:16:1:l -cache:dl2 dl2:262144:16:1:l -cache:il1 il1:512:16:1:l -cache:il2 dl2 cache4_heapsort2064488059
	sim-cache -cache:dl1 dl1:512:16:1:l -cache:dl2 dl2:131072:16:1:l -cache:il1 il1:512:16:1:l -cache:il2 dl2 cache4_heapsort2064488059
	sim-cache -cache:dl1 dl1:1:16:512:l -cache:dl2 dl2:1:16:262144:l -cache:il1 il1:1:16:512:l -cache:il2 dl2 cache4_heapsort2064488059
	sim-cache -cache:dl1 dl1:1:16:512:l -cache:dl2 dl2:1:16:131072:l -cache:il1 il1:1:16:512:l -cache:il2 dl2 cache4_heapsort2064488059
	sim-bpred -bpred bimod -bpred:bimod 512 cache4_heapsort2064488059
	sim-bpred -bpred bimod -bpred:bimod 1024 cache4_heapsort2064488059
	sim-bpred -bpred bimod -bpred:bimod 2048 cache4_heapsort2064488059
	sim-bpred -bpred 2lev -bpred:2lev 1 512 10 1 cache4_heapsort2064488059
	sim-bpred -bpred 2lev -bpred:2lev 1 1024 10 1 cache4_heapsort2064488059
	sim-bpred -bpred 2lev -bpred:2lev 1 2048 10 1 cache4_heapsort2064488059
	sim-bpred -bpred 2lev -bpred:2lev 1 4096 10 1 cache4_heapsort2064488059
	sslittle-na-sstrix-gcc -Wall -O3 -funroll-loops -finline-functions  -DRANDOM_SIZE=1048576 -DSEED=0 -DSORT=cache4_heapsort cache4_heapsort638832258.c simpleMain.c -o cache4_heapsort2064488059
	sim-cache -cache:dl1 dl1:512:16:1:l -cache:dl2 dl2:262144:16:1:l -cache:il1 il1:512:16:1:l -cache:il2 dl2 cache4_heapsort2064488059
	sim-cache -cache:dl1 dl1:512:16:1:l -cache:dl2 dl2:131072:16:1:l -cache:il1 il1:512:16:1:l -cache:il2 dl2 cache4_heapsort2064488059
	sim-cache -cache:dl1 dl1:1:16:512:l -cache:dl2 dl2:1:16:262144:l -cache:il1 il1:1:16:512:l -cache:il2 dl2 cache4_heapsort2064488059
	sim-cache -cache:dl1 dl1:1:16:512:l -cache:dl2 dl2:1:16:131072:l -cache:il1 il1:1:16:512:l -cache:il2 dl2 cache4_heapsort2064488059
	sim-bpred -bpred bimod -bpred:bimod 512 cache4_heapsort2064488059
	sim-bpred -bpred bimod -bpred:bimod 1024 cache4_heapsort2064488059
	sim-bpred -bpred bimod -bpred:bimod 2048 cache4_heapsort2064488059
	sim-bpred -bpred 2lev -bpred:2lev 1 512 10 1 cache4_heapsort2064488059
	sim-bpred -bpred 2lev -bpred:2lev 1 1024 10 1 cache4_heapsort2064488059
	sim-bpred -bpred 2lev -bpred:2lev 1 2048 10 1 cache4_heapsort2064488059
	sim-bpred -bpred 2lev -bpred:2lev 1 4096 10 1 cache4_heapsort2064488059
	sslittle-na-sstrix-gcc -Wall -O3 -funroll-loops -finline-functions  -DRANDOM_SIZE=2097152 -DSEED=0 -DSORT=cache4_heapsort cache4_heapsort638832258.c simpleMain.c -o cache4_heapsort2064488059
	sim-cache -cache:dl1 dl1:512:16:1:l -cache:dl2 dl2:262144:16:1:l -cache:il1 il1:512:16:1:l -cache:il2 dl2 cache4_heapsort2064488059
	sim-cache -cache:dl1 dl1:512:16:1:l -cache:dl2 dl2:131072:16:1:l -cache:il1 il1:512:16:1:l -cache:il2 dl2 cache4_heapsort2064488059
	sim-cache -cache:dl1 dl1:1:16:512:l -cache:dl2 dl2:1:16:262144:l -cache:il1 il1:1:16:512:l -cache:il2 dl2 cache4_heapsort2064488059
	sim-cache -cache:dl1 dl1:1:16:512:l -cache:dl2 dl2:1:16:131072:l -cache:il1 il1:1:16:512:l -cache:il2 dl2 cache4_heapsort2064488059
	sim-bpred -bpred bimod -bpred:bimod 512 cache4_heapsort2064488059
	sim-bpred -bpred bimod -bpred:bimod 1024 cache4_heapsort2064488059
	sim-bpred -bpred bimod -bpred:bimod 2048 cache4_heapsort2064488059
	sim-bpred -bpred 2lev -bpred:2lev 1 512 10 1 cache4_heapsort2064488059
	sim-bpred -bpred 2lev -bpred:2lev 1 1024 10 1 cache4_heapsort2064488059
	sim-bpred -bpred 2lev -bpred:2lev 1 2048 10 1 cache4_heapsort2064488059
	sim-bpred -bpred 2lev -bpred:2lev 1 4096 10 1 cache4_heapsort2064488059
	sslittle-na-sstrix-gcc -Wall -O3 -funroll-loops -finline-functions  -DRANDOM_SIZE=4194304 -DSEED=0 -DSORT=cache4_heapsort cache4_heapsort638832258.c simpleMain.c -o cache4_heapsort2064488059
	sim-cache -cache:dl1 dl1:512:16:1:l -cache:dl2 dl2:262144:16:1:l -cache:il1 il1:512:16:1:l -cache:il2 dl2 cache4_heapsort2064488059
	sim-cache -cache:dl1 dl1:512:16:1:l -cache:dl2 dl2:131072:16:1:l -cache:il1 il1:512:16:1:l -cache:il2 dl2 cache4_heapsort2064488059
	sim-cache -cache:dl1 dl1:1:16:512:l -cache:dl2 dl2:1:16:262144:l -cache:il1 il1:1:16:512:l -cache:il2 dl2 cache4_heapsort2064488059
	sim-cache -cache:dl1 dl1:1:16:512:l -cache:dl2 dl2:1:16:131072:l -cache:il1 il1:1:16:512:l -cache:il2 dl2 cache4_heapsort2064488059
	sim-bpred -bpred bimod -bpred:bimod 512 cache4_heapsort2064488059
	sim-bpred -bpred bimod -bpred:bimod 1024 cache4_heapsort2064488059
	sim-bpred -bpred bimod -bpred:bimod 2048 cache4_heapsort2064488059
	sim-bpred -bpred 2lev -bpred:2lev 1 512 10 1 cache4_heapsort2064488059
	sim-bpred -bpred 2lev -bpred:2lev 1 1024 10 1 cache4_heapsort2064488059
	sim-bpred -bpred 2lev -bpred:2lev 1 2048 10 1 cache4_heapsort2064488059
	sim-bpred -bpred 2lev -bpred:2lev 1 4096 10 1 cache4_heapsort2064488059
