Thu Aug  4 11:58:05 2005
Run as: "./do_simple -c random.org9 -o 9 cache4_heapsort"
-------------------------------------------------------------------------------------------------
sim-cache                                     4096 |         4096 |         4096 |         4096 |         8192 |         8192 |         8192 |         8192 |        16384 |        16384 |        16384 |        16384 |        32768 |        32768 |        32768 |        32768 |        65536 |        65536 |        65536 |        65536 |       131072 |       131072 |       131072 |       131072 |       262144 |       262144 |       262144 |       262144 |       524288 |       524288 |       524288 |       524288 |      1048576 |      1048576 |      1048576 |      1048576 |      2097152 |      2097152 |      2097152 |      2097152 |      4194304 |      4194304 |      4194304 |      4194304 |
-cache:dl1 dl1:256:32:1:l -cache:dl2 dl2:131072:32:1:l -cache:il1 il1:256:32:1:l -cache:il2 dl2
-cache:dl1 dl1:256:32:1:l -cache:dl2 dl2:65536:32:1:l -cache:il1 il1:256:32:1:l -cache:il2 dl2
-cache:dl1 dl1:1:32:256:l -cache:dl2 dl2:1:32:131072:l -cache:il1 il1:1:32:256:l -cache:il2 dl2
-cache:dl1 dl1:1:32:256:l -cache:dl2 dl2:1:32:65536:l -cache:il1 il1:1:32:256:l -cache:il2 dl2
-------------------------------------------------------------------------------------------------
sim_num_insn                                872433 |       872433 |       872433 |       872433 |      1869505 |      1869505 |      1869505 |      1869505 |      4003800 |      4003800 |      4003800 |      4003800 |      8533676 |      8533676 |      8533676 |      8533676 |     18156355 |     18156355 |     18156355 |     18156355 |     38446050 |     38446050 |     38446050 |     38446050 |     81272594 |     81272594 |     81272594 |     81272594 |    171097841 |    171097841 |    171097841 |    171097841 |    359759953 |    359759953 |    359759953 |    359759953 |    753715410 |    753715410 |    753715410 |    753715410 |   1577760684 |   1577760684 |   1577760684 |   1577760684 |
sim_num_refs                                218395 |       218395 |       218395 |       218395 |       464824 |       464824 |       464824 |       464824 |       991545 |       991545 |       991545 |       991545 |      2108259 |      2108259 |      2108259 |      2108259 |      4477379 |      4477379 |      4477379 |      4477379 |      9469545 |      9469545 |      9469545 |      9469545 |     19993703 |     19993703 |     19993703 |     19993703 |     42057998 |     42057998 |     42057998 |     42057998 |     88357294 |     88357294 |     88357294 |     88357294 |    184998718 |    184998718 |    184998718 |    184998718 |    386963573 |    386963573 |    386963573 |    386963573 |
sim_elapsed_time                                 1 |            1 |           10 |            5 |            1 |            1 |           16 |            7 |            1 |            1 |           26 |           13 |            2 |            2 |           48 |           24 |            6 |            5 |           88 |           44 |           10 |           11 |          163 |           76 |           23 |           23 |          281 |          109 |           49 |           49 |          392 |          138 |          103 |          102 |          455 |          200 |          221 |          215 |          596 |          331 |          455 |          454 |          860 |          612 |
sim_inst_rate                          872433.0000 |  872433.0000 |   87243.3000 |  174486.6000 | 1869505.0000 | 1869505.0000 |  116844.0625 |  267072.1429 | 4003800.0000 | 4003800.0000 |  153992.3077 |  307984.6154 | 4266838.0000 | 4266838.0000 |  177784.9167 |  355569.8333 | 3026059.1667 | 3631271.0000 |  206322.2159 |  412644.4318 | 3844605.0000 | 3495095.4545 |  235865.3374 |  505869.0789 | 3533591.0435 | 3533591.0435 |  289226.3132 |  745620.1284 | 3491792.6735 | 3491792.6735 |  436474.0842 | 1239839.4275 | 3492815.0777 | 3527058.3627 |  790681.2154 | 1798799.7650 | 3410476.9683 | 3505653.0698 | 1264623.1711 | 2277085.8308 | 3467605.8989 | 3475243.7974 | 1834605.4465 | 2578040.3333 |
il1.accesses                                872433 |       872433 |       872433 |       872433 |      1869505 |      1869505 |      1869505 |      1869505 |      4003800 |      4003800 |      4003800 |      4003800 |      8533676 |      8533676 |      8533676 |      8533676 |     18156355 |     18156355 |     18156355 |     18156355 |     38446050 |     38446050 |     38446050 |     38446050 |     81272594 |     81272594 |     81272594 |     81272594 |    171097841 |    171097841 |    171097841 |    171097841 |    359759953 |    359759953 |    359759953 |    359759953 |    753715410 |    753715410 |    753715410 |    753715410 |   1577760684 |   1577760684 |   1577760684 |   1577760684 |
il1.hits                                    871914 |       871914 |       872003 |       872003 |      1868945 |      1868945 |      1869055 |      1869055 |      4003239 |      4003239 |      4003353 |      4003353 |      8533118 |      8533118 |      8533225 |      8533225 |     18155797 |     18155797 |     18155904 |     18155904 |     38445492 |     38445492 |     38445600 |     38445600 |     81272036 |     81272036 |     81272144 |     81272144 |    171097283 |    171097283 |    171097391 |    171097391 |    359759359 |    359759359 |    359759472 |    359759472 |    753714816 |    753714816 |    753714929 |    753714929 |   1577760090 |   1577760090 |   1577760203 |   1577760203 |
il1.misses                                     519 |          519 |          430 |          430 |          560 |          560 |          450 |          450 |          561 |          561 |          447 |          447 |          558 |          558 |          451 |          451 |          558 |          558 |          451 |          451 |          558 |          558 |          450 |          450 |          558 |          558 |          450 |          450 |          558 |          558 |          450 |          450 |          594 |          594 |          481 |          481 |          594 |          594 |          481 |          481 |          594 |          594 |          481 |          481 |
il1.replacements                               306 |          306 |          174 |          174 |          339 |          339 |          194 |          194 |          340 |          340 |          191 |          191 |          337 |          337 |          195 |          195 |          337 |          337 |          195 |          195 |          337 |          337 |          194 |          194 |          337 |          337 |          194 |          194 |          337 |          337 |          194 |          194 |          378 |          378 |          225 |          225 |          378 |          378 |          225 |          225 |          378 |          378 |          225 |          225 |
il1.writebacks                                   0 |            0 |            0 |            0 |            0 |            0 |            0 |            0 |            0 |            0 |            0 |            0 |            0 |            0 |            0 |            0 |            0 |            0 |            0 |            0 |            0 |            0 |            0 |            0 |            0 |            0 |            0 |            0 |            0 |            0 |            0 |            0 |            0 |            0 |            0 |            0 |            0 |            0 |            0 |            0 |            0 |            0 |            0 |            0 |
il1.invalidations                                0 |            0 |            0 |            0 |            0 |            0 |            0 |            0 |            0 |            0 |            0 |            0 |            0 |            0 |            0 |            0 |            0 |            0 |            0 |            0 |            0 |            0 |            0 |            0 |            0 |            0 |            0 |            0 |            0 |            0 |            0 |            0 |            0 |            0 |            0 |            0 |            0 |            0 |            0 |            0 |            0 |            0 |            0 |            0 |
il1.miss_rate                               0.0006 |       0.0006 |       0.0005 |       0.0005 |       0.0003 |       0.0003 |       0.0002 |       0.0002 |       0.0001 |       0.0001 |       0.0001 |       0.0001 |       0.0001 |       0.0001 |       0.0001 |       0.0001 |       0.0000 |       0.0000 |       0.0000 |       0.0000 |       0.0000 |       0.0000 |       0.0000 |       0.0000 |       0.0000 |       0.0000 |       0.0000 |       0.0000 |       0.0000 |       0.0000 |       0.0000 |       0.0000 |       0.0000 |       0.0000 |       0.0000 |       0.0000 |       0.0000 |       0.0000 |       0.0000 |       0.0000 |       0.0000 |       0.0000 |       0.0000 |       0.0000 |
il1.repl_rate                               0.0004 |       0.0004 |       0.0002 |       0.0002 |       0.0002 |       0.0002 |       0.0001 |       0.0001 |       0.0001 |       0.0001 |       0.0000 |       0.0000 |       0.0000 |       0.0000 |       0.0000 |       0.0000 |       0.0000 |       0.0000 |       0.0000 |       0.0000 |       0.0000 |       0.0000 |       0.0000 |       0.0000 |       0.0000 |       0.0000 |       0.0000 |       0.0000 |       0.0000 |       0.0000 |       0.0000 |       0.0000 |       0.0000 |       0.0000 |       0.0000 |       0.0000 |       0.0000 |       0.0000 |       0.0000 |       0.0000 |       0.0000 |       0.0000 |       0.0000 |       0.0000 |
il1.wb_rate                                 0.0000 |       0.0000 |       0.0000 |       0.0000 |       0.0000 |       0.0000 |       0.0000 |       0.0000 |       0.0000 |       0.0000 |       0.0000 |       0.0000 |       0.0000 |       0.0000 |       0.0000 |       0.0000 |       0.0000 |       0.0000 |       0.0000 |       0.0000 |       0.0000 |       0.0000 |       0.0000 |       0.0000 |       0.0000 |       0.0000 |       0.0000 |       0.0000 |       0.0000 |       0.0000 |       0.0000 |       0.0000 |       0.0000 |       0.0000 |       0.0000 |       0.0000 |       0.0000 |       0.0000 |       0.0000 |       0.0000 |       0.0000 |       0.0000 |       0.0000 |       0.0000 |
il1.inv_rate                                0.0000 |       0.0000 |       0.0000 |       0.0000 |       0.0000 |       0.0000 |       0.0000 |       0.0000 |       0.0000 |       0.0000 |       0.0000 |       0.0000 |       0.0000 |       0.0000 |       0.0000 |       0.0000 |       0.0000 |       0.0000 |       0.0000 |       0.0000 |       0.0000 |       0.0000 |       0.0000 |       0.0000 |       0.0000 |       0.0000 |       0.0000 |       0.0000 |       0.0000 |       0.0000 |       0.0000 |       0.0000 |       0.0000 |       0.0000 |       0.0000 |       0.0000 |       0.0000 |       0.0000 |       0.0000 |       0.0000 |       0.0000 |       0.0000 |       0.0000 |       0.0000 |
dl1.accesses                                234861 |       234861 |       234861 |       234861 |       497674 |       497674 |       497674 |       497674 |      1057163 |      1057163 |      1057163 |      1057163 |      2239413 |      2239413 |      2239413 |      2239413 |      4739605 |      4739605 |      4739605 |      4739605 |      9993915 |      9993915 |      9993915 |      9993915 |     21042361 |     21042361 |     21042361 |     21042361 |     44155232 |     44155232 |     44155232 |     44155232 |     92551680 |     92551680 |     92551680 |     92551680 |    193387408 |    193387408 |    193387408 |    193387408 |    403740871 |    403740871 |    403740871 |    403740871 |
dl1.hits                                    229871 |       229871 |       230611 |       230611 |       484144 |       484144 |       485601 |       485601 |      1020303 |      1020303 |      1024306 |      1024306 |      2146548 |      2146548 |      2154629 |      2154629 |      4510756 |      4510756 |      4531219 |      4531219 |      9458071 |      9458071 |      9498856 |      9498856 |     19805638 |     19805638 |     19898839 |     19898839 |     41374643 |     41374643 |     41562404 |     41562404 |     86346455 |     86346455 |     86764301 |     86764301 |    179782497 |    179782497 |    180624610 |    180624610 |    374050475 |    374050475 |    375854551 |    375854551 |
dl1.misses                                    4990 |         4990 |         4250 |         4250 |        13530 |        13530 |        12073 |        12073 |        36860 |        36860 |        32857 |        32857 |        92865 |        92865 |        84784 |        84784 |       228849 |       228849 |       208386 |       208386 |       535844 |       535844 |       495059 |       495059 |      1236723 |      1236723 |      1143522 |      1143522 |      2780589 |      2780589 |      2592828 |      2592828 |      6205225 |      6205225 |      5787379 |      5787379 |     13604911 |     13604911 |     12762798 |     12762798 |     29690396 |     29690396 |     27886320 |     27886320 |
dl1.replacements                              4734 |         4734 |         3994 |         3994 |        13274 |        13274 |        11817 |        11817 |        36604 |        36604 |        32601 |        32601 |        92609 |        92609 |        84528 |        84528 |       228593 |       228593 |       208130 |       208130 |       535588 |       535588 |       494803 |       494803 |      1236467 |      1236467 |      1143266 |      1143266 |      2780333 |      2780333 |      2592572 |      2592572 |      6204969 |      6204969 |      5787123 |      5787123 |     13604655 |     13604655 |     12762542 |     12762542 |     29690140 |     29690140 |     27886064 |     27886064 |
dl1.writebacks                                4090 |         4090 |         3401 |         3401 |        11763 |        11763 |        10468 |        10468 |        33179 |        33179 |        29569 |        29569 |        85227 |        85227 |        78090 |        78090 |       213036 |       213036 |       194689 |       194689 |       503383 |       503383 |       467247 |       467247 |      1170402 |      1170402 |      1087626 |      1087626 |      2645730 |      2645730 |      2480672 |      2480672 |      5927380 |      5927380 |      5561375 |      5561375 |     13044252 |     13044252 |     12310312 |     12310312 |     28554364 |     28554364 |     26981011 |     26981011 |
dl1.invalidations                                0 |            0 |            0 |            0 |            0 |            0 |            0 |            0 |            0 |            0 |            0 |            0 |            0 |            0 |            0 |            0 |            0 |            0 |            0 |            0 |            0 |            0 |            0 |            0 |            0 |            0 |            0 |            0 |            0 |            0 |            0 |            0 |            0 |            0 |            0 |            0 |            0 |            0 |            0 |            0 |            0 |            0 |            0 |            0 |
dl1.miss_rate                               0.0212 |       0.0212 |       0.0181 |       0.0181 |       0.0272 |       0.0272 |       0.0243 |       0.0243 |       0.0349 |       0.0349 |       0.0311 |       0.0311 |       0.0415 |       0.0415 |       0.0379 |       0.0379 |       0.0483 |       0.0483 |       0.0440 |       0.0440 |       0.0536 |       0.0536 |       0.0495 |       0.0495 |       0.0588 |       0.0588 |       0.0543 |       0.0543 |       0.0630 |       0.0630 |       0.0587 |       0.0587 |       0.0670 |       0.0670 |       0.0625 |       0.0625 |       0.0704 |       0.0704 |       0.0660 |       0.0660 |       0.0735 |       0.0735 |       0.0691 |       0.0691 |
dl1.repl_rate                               0.0202 |       0.0202 |       0.0170 |       0.0170 |       0.0267 |       0.0267 |       0.0237 |       0.0237 |       0.0346 |       0.0346 |       0.0308 |       0.0308 |       0.0414 |       0.0414 |       0.0377 |       0.0377 |       0.0482 |       0.0482 |       0.0439 |       0.0439 |       0.0536 |       0.0536 |       0.0495 |       0.0495 |       0.0588 |       0.0588 |       0.0543 |       0.0543 |       0.0630 |       0.0630 |       0.0587 |       0.0587 |       0.0670 |       0.0670 |       0.0625 |       0.0625 |       0.0703 |       0.0703 |       0.0660 |       0.0660 |       0.0735 |       0.0735 |       0.0691 |       0.0691 |
dl1.wb_rate                                 0.0174 |       0.0174 |       0.0145 |       0.0145 |       0.0236 |       0.0236 |       0.0210 |       0.0210 |       0.0314 |       0.0314 |       0.0280 |       0.0280 |       0.0381 |       0.0381 |       0.0349 |       0.0349 |       0.0449 |       0.0449 |       0.0411 |       0.0411 |       0.0504 |       0.0504 |       0.0468 |       0.0468 |       0.0556 |       0.0556 |       0.0517 |       0.0517 |       0.0599 |       0.0599 |       0.0562 |       0.0562 |       0.0640 |       0.0640 |       0.0601 |       0.0601 |       0.0675 |       0.0675 |       0.0637 |       0.0637 |       0.0707 |       0.0707 |       0.0668 |       0.0668 |
dl1.inv_rate                                0.0000 |       0.0000 |       0.0000 |       0.0000 |       0.0000 |       0.0000 |       0.0000 |       0.0000 |       0.0000 |       0.0000 |       0.0000 |       0.0000 |       0.0000 |       0.0000 |       0.0000 |       0.0000 |       0.0000 |       0.0000 |       0.0000 |       0.0000 |       0.0000 |       0.0000 |       0.0000 |       0.0000 |       0.0000 |       0.0000 |       0.0000 |       0.0000 |       0.0000 |       0.0000 |       0.0000 |       0.0000 |       0.0000 |       0.0000 |       0.0000 |       0.0000 |       0.0000 |       0.0000 |       0.0000 |       0.0000 |       0.0000 |       0.0000 |       0.0000 |       0.0000 |
dl2.accesses                                  9599 |         9599 |         8081 |         8081 |        25853 |        25853 |        22991 |        22991 |        70600 |        70600 |        62873 |        62873 |       178650 |       178650 |       163325 |       163325 |       442443 |       442443 |       403526 |       403526 |      1039785 |      1039785 |       962756 |       962756 |      2407683 |      2407683 |      2231598 |      2231598 |      5426877 |      5426877 |      5073950 |      5073950 |     12133199 |     12133199 |     11349235 |     11349235 |     26649757 |     26649757 |     25073591 |     25073591 |     58245354 |     58245354 |     54867812 |     54867812 |
dl2.hits                                      7698 |         7698 |         6222 |         6222 |        22925 |        22925 |        20117 |        20117 |        65621 |        65621 |        57954 |        57954 |       169567 |       169567 |       154306 |       154306 |       425168 |       425168 |       386315 |       386315 |      1006127 |      1006127 |       929162 |       929162 |      2341255 |      2338737 |      2165236 |      2133587 |      5292397 |      5068477 |      4887113 |      4747658 |     11413996 |     11065646 |     10696168 |     10377391 |     24514695 |     23545314 |     23131669 |     22123666 |     52038025 |     49446928 |     48971880 |     46607296 |
dl2.misses                                    1901 |         1901 |         1859 |         1859 |         2928 |         2928 |         2874 |         2874 |         4979 |         4979 |         4919 |         4919 |         9083 |         9083 |         9019 |         9019 |        17275 |        17275 |        17211 |        17211 |        33658 |        33658 |        33594 |        33594 |        66428 |        68946 |        66362 |        98011 |       134480 |       358400 |       186837 |       326292 |       719203 |      1067553 |       653067 |       971844 |      2135062 |      3104443 |      1941922 |      2949925 |      6207329 |      8798426 |      5895932 |      8260516 |
dl2.replacements                               267 |          267 |            0 |            0 |          263 |          263 |            0 |            0 |          291 |          291 |            0 |            0 |          298 |          298 |            0 |            0 |          298 |          298 |            0 |            0 |          298 |          298 |            0 |            0 |          300 |         4492 |            0 |        32475 |         4490 |       292864 |        55765 |       260756 |       588131 |      1002017 |       521995 |       906308 |      2003990 |      3038907 |      1810850 |      2884389 |      6076257 |      8732890 |      5764860 |      8194980 |
dl2.writebacks                                 152 |          152 |            0 |            0 |          144 |          144 |            0 |            0 |          165 |          165 |            0 |            0 |          169 |          169 |            0 |            0 |          169 |          169 |            0 |            0 |          169 |          169 |            0 |            0 |          169 |         4361 |            0 |        31746 |         4361 |       228299 |        55036 |       194377 |       458020 |       854285 |       389326 |       757215 |      1708684 |      2691807 |      1512738 |      2536592 |      5382803 |      7957647 |      5070122 |      7419302 |
dl2.invalidations                                0 |            0 |            0 |            0 |            0 |            0 |            0 |            0 |            0 |            0 |            0 |            0 |            0 |            0 |            0 |            0 |            0 |            0 |            0 |            0 |            0 |            0 |            0 |            0 |            0 |            0 |            0 |            0 |            0 |            0 |            0 |            0 |            0 |            0 |            0 |            0 |            0 |            0 |            0 |            0 |            0 |            0 |            0 |            0 |
dl2.miss_rate                               0.1980 |       0.1980 |       0.2300 |       0.2300 |       0.1133 |       0.1133 |       0.1250 |       0.1250 |       0.0705 |       0.0705 |       0.0782 |       0.0782 |       0.0508 |       0.0508 |       0.0552 |       0.0552 |       0.0390 |       0.0390 |       0.0427 |       0.0427 |       0.0324 |       0.0324 |       0.0349 |       0.0349 |       0.0276 |       0.0286 |       0.0297 |       0.0439 |       0.0248 |       0.0660 |       0.0368 |       0.0643 |       0.0593 |       0.0880 |       0.0575 |       0.0856 |       0.0801 |       0.1165 |       0.0774 |       0.1177 |       0.1066 |       0.1511 |       0.1075 |       0.1506 |
dl2.repl_rate                               0.0278 |       0.0278 |       0.0000 |       0.0000 |       0.0102 |       0.0102 |       0.0000 |       0.0000 |       0.0041 |       0.0041 |       0.0000 |       0.0000 |       0.0017 |       0.0017 |       0.0000 |       0.0000 |       0.0007 |       0.0007 |       0.0000 |       0.0000 |       0.0003 |       0.0003 |       0.0000 |       0.0000 |       0.0001 |       0.0019 |       0.0000 |       0.0146 |       0.0008 |       0.0540 |       0.0110 |       0.0514 |       0.0485 |       0.0826 |       0.0460 |       0.0799 |       0.0752 |       0.1140 |       0.0722 |       0.1150 |       0.1043 |       0.1499 |       0.1051 |       0.1494 |
dl2.wb_rate                                 0.0158 |       0.0158 |       0.0000 |       0.0000 |       0.0056 |       0.0056 |       0.0000 |       0.0000 |       0.0023 |       0.0023 |       0.0000 |       0.0000 |       0.0009 |       0.0009 |       0.0000 |       0.0000 |       0.0004 |       0.0004 |       0.0000 |       0.0000 |       0.0002 |       0.0002 |       0.0000 |       0.0000 |       0.0001 |       0.0018 |       0.0000 |       0.0142 |       0.0008 |       0.0421 |       0.0108 |       0.0383 |       0.0377 |       0.0704 |       0.0343 |       0.0667 |       0.0641 |       0.1010 |       0.0603 |       0.1012 |       0.0924 |       0.1366 |       0.0924 |       0.1352 |
dl2.inv_rate                                0.0000 |       0.0000 |       0.0000 |       0.0000 |       0.0000 |       0.0000 |       0.0000 |       0.0000 |       0.0000 |       0.0000 |       0.0000 |       0.0000 |       0.0000 |       0.0000 |       0.0000 |       0.0000 |       0.0000 |       0.0000 |       0.0000 |       0.0000 |       0.0000 |       0.0000 |       0.0000 |       0.0000 |       0.0000 |       0.0000 |       0.0000 |       0.0000 |       0.0000 |       0.0000 |       0.0000 |       0.0000 |       0.0000 |       0.0000 |       0.0000 |       0.0000 |       0.0000 |       0.0000 |       0.0000 |       0.0000 |       0.0000 |       0.0000 |       0.0000 |       0.0000 |
itlb.accesses                               872433 |       872433 |       872433 |       872433 |      1869505 |      1869505 |      1869505 |      1869505 |      4003800 |      4003800 |      4003800 |      4003800 |      8533676 |      8533676 |      8533676 |      8533676 |     18156355 |     18156355 |     18156355 |     18156355 |     38446050 |     38446050 |     38446050 |     38446050 |     81272594 |     81272594 |     81272594 |     81272594 |    171097841 |    171097841 |    171097841 |    171097841 |    359759953 |    359759953 |    359759953 |    359759953 |    753715410 |    753715410 |    753715410 |    753715410 |   1577760684 |   1577760684 |   1577760684 |   1577760684 |
itlb.hits                                   872424 |       872424 |       872424 |       872424 |      1869496 |      1869496 |      1869496 |      1869496 |      4003791 |      4003791 |      4003791 |      4003791 |      8533667 |      8533667 |      8533667 |      8533667 |     18156346 |     18156346 |     18156346 |     18156346 |     38446041 |     38446041 |     38446041 |     38446041 |     81272585 |     81272585 |     81272585 |     81272585 |    171097832 |    171097832 |    171097832 |    171097832 |    359759944 |    359759944 |    359759944 |    359759944 |    753715401 |    753715401 |    753715401 |    753715401 |   1577760675 |   1577760675 |   1577760675 |   1577760675 |
itlb.misses                                      9 |            9 |            9 |            9 |            9 |            9 |            9 |            9 |            9 |            9 |            9 |            9 |            9 |            9 |            9 |            9 |            9 |            9 |            9 |            9 |            9 |            9 |            9 |            9 |            9 |            9 |            9 |            9 |            9 |            9 |            9 |            9 |            9 |            9 |            9 |            9 |            9 |            9 |            9 |            9 |            9 |            9 |            9 |            9 |
itlb.replacements                                0 |            0 |            0 |            0 |            0 |            0 |            0 |            0 |            0 |            0 |            0 |            0 |            0 |            0 |            0 |            0 |            0 |            0 |            0 |            0 |            0 |            0 |            0 |            0 |            0 |            0 |            0 |            0 |            0 |            0 |            0 |            0 |            0 |            0 |            0 |            0 |            0 |            0 |            0 |            0 |            0 |            0 |            0 |            0 |
itlb.writebacks                                  0 |            0 |            0 |            0 |            0 |            0 |            0 |            0 |            0 |            0 |            0 |            0 |            0 |            0 |            0 |            0 |            0 |            0 |            0 |            0 |            0 |            0 |            0 |            0 |            0 |            0 |            0 |            0 |            0 |            0 |            0 |            0 |            0 |            0 |            0 |            0 |            0 |            0 |            0 |            0 |            0 |            0 |            0 |            0 |
itlb.invalidations                               0 |            0 |            0 |            0 |            0 |            0 |            0 |            0 |            0 |            0 |            0 |            0 |            0 |            0 |            0 |            0 |            0 |            0 |            0 |            0 |            0 |            0 |            0 |            0 |            0 |            0 |            0 |            0 |            0 |            0 |            0 |            0 |            0 |            0 |            0 |            0 |            0 |            0 |            0 |            0 |            0 |            0 |            0 |            0 |
itlb.miss_rate                              0.0000 |       0.0000 |       0.0000 |       0.0000 |       0.0000 |       0.0000 |       0.0000 |       0.0000 |       0.0000 |       0.0000 |       0.0000 |       0.0000 |       0.0000 |       0.0000 |       0.0000 |       0.0000 |       0.0000 |       0.0000 |       0.0000 |       0.0000 |       0.0000 |       0.0000 |       0.0000 |       0.0000 |       0.0000 |       0.0000 |       0.0000 |       0.0000 |       0.0000 |       0.0000 |       0.0000 |       0.0000 |       0.0000 |       0.0000 |       0.0000 |       0.0000 |       0.0000 |       0.0000 |       0.0000 |       0.0000 |       0.0000 |       0.0000 |       0.0000 |       0.0000 |
itlb.repl_rate                              0.0000 |       0.0000 |       0.0000 |       0.0000 |       0.0000 |       0.0000 |       0.0000 |       0.0000 |       0.0000 |       0.0000 |       0.0000 |       0.0000 |       0.0000 |       0.0000 |       0.0000 |       0.0000 |       0.0000 |       0.0000 |       0.0000 |       0.0000 |       0.0000 |       0.0000 |       0.0000 |       0.0000 |       0.0000 |       0.0000 |       0.0000 |       0.0000 |       0.0000 |       0.0000 |       0.0000 |       0.0000 |       0.0000 |       0.0000 |       0.0000 |       0.0000 |       0.0000 |       0.0000 |       0.0000 |       0.0000 |       0.0000 |       0.0000 |       0.0000 |       0.0000 |
itlb.wb_rate                                0.0000 |       0.0000 |       0.0000 |       0.0000 |       0.0000 |       0.0000 |       0.0000 |       0.0000 |       0.0000 |       0.0000 |       0.0000 |       0.0000 |       0.0000 |       0.0000 |       0.0000 |       0.0000 |       0.0000 |       0.0000 |       0.0000 |       0.0000 |       0.0000 |       0.0000 |       0.0000 |       0.0000 |       0.0000 |       0.0000 |       0.0000 |       0.0000 |       0.0000 |       0.0000 |       0.0000 |       0.0000 |       0.0000 |       0.0000 |       0.0000 |       0.0000 |       0.0000 |       0.0000 |       0.0000 |       0.0000 |       0.0000 |       0.0000 |       0.0000 |       0.0000 |
itlb.inv_rate                               0.0000 |       0.0000 |       0.0000 |       0.0000 |       0.0000 |       0.0000 |       0.0000 |       0.0000 |       0.0000 |       0.0000 |       0.0000 |       0.0000 |       0.0000 |       0.0000 |       0.0000 |       0.0000 |       0.0000 |       0.0000 |       0.0000 |       0.0000 |       0.0000 |       0.0000 |       0.0000 |       0.0000 |       0.0000 |       0.0000 |       0.0000 |       0.0000 |       0.0000 |       0.0000 |       0.0000 |       0.0000 |       0.0000 |       0.0000 |       0.0000 |       0.0000 |       0.0000 |       0.0000 |       0.0000 |       0.0000 |       0.0000 |       0.0000 |       0.0000 |       0.0000 |
dtlb.accesses                               234861 |       234861 |       234861 |       234861 |       497674 |       497674 |       497674 |       497674 |      1057163 |      1057163 |      1057163 |      1057163 |      2239413 |      2239413 |      2239413 |      2239413 |      4739605 |      4739605 |      4739605 |      4739605 |      9993915 |      9993915 |      9993915 |      9993915 |     21042361 |     21042361 |     21042361 |     21042361 |     44155232 |     44155232 |     44155232 |     44155232 |     92551680 |     92551680 |     92551680 |     92551680 |    193387408 |    193387408 |    193387408 |    193387408 |    403740871 |    403740871 |    403740871 |    403740871 |
dtlb.hits                                   234845 |       234845 |       234845 |       234845 |       497650 |       497650 |       497650 |       497650 |      1057123 |      1057123 |      1057123 |      1057123 |      2239341 |      2239341 |      2239341 |      2239341 |      4739458 |      4739458 |      4739458 |      4739458 |      9993070 |      9993070 |      9993070 |      9993070 |     20985290 |     20985290 |     20985290 |     20985290 |     43804922 |     43804922 |     43804922 |     43804922 |     91258378 |     91258378 |     91258378 |     91258378 |    189536270 |    189536270 |    189536270 |    189536270 |    393442228 |    393442228 |    393442228 |    393442228 |
dtlb.misses                                     16 |           16 |           16 |           16 |           24 |           24 |           24 |           24 |           40 |           40 |           40 |           40 |           72 |           72 |           72 |           72 |          147 |          147 |          147 |          147 |          845 |          845 |          845 |          845 |        57071 |        57071 |        57071 |        57071 |       350310 |       350310 |       350310 |       350310 |      1293302 |      1293302 |      1293302 |      1293302 |      3851138 |      3851138 |      3851138 |      3851138 |     10298643 |     10298643 |     10298643 |     10298643 |
dtlb.replacements                                0 |            0 |            0 |            0 |            0 |            0 |            0 |            0 |            0 |            0 |            0 |            0 |            0 |            0 |            0 |            0 |           19 |           19 |           19 |           19 |          717 |          717 |          717 |          717 |        56943 |        56943 |        56943 |        56943 |       350182 |       350182 |       350182 |       350182 |      1293174 |      1293174 |      1293174 |      1293174 |      3851010 |      3851010 |      3851010 |      3851010 |     10298515 |     10298515 |     10298515 |     10298515 |
dtlb.writebacks                                  0 |            0 |            0 |            0 |            0 |            0 |            0 |            0 |            0 |            0 |            0 |            0 |            0 |            0 |            0 |            0 |           16 |           16 |           16 |           16 |          590 |          590 |          590 |          590 |        53957 |        53957 |        53957 |        53957 |       331814 |       331814 |       331814 |       331814 |      1234010 |      1234010 |      1234010 |      1234010 |      3701833 |      3701833 |      3701833 |      3701833 |      9962768 |      9962768 |      9962768 |      9962768 |
dtlb.invalidations                               0 |            0 |            0 |            0 |            0 |            0 |            0 |            0 |            0 |            0 |            0 |            0 |            0 |            0 |            0 |            0 |            0 |            0 |            0 |            0 |            0 |            0 |            0 |            0 |            0 |            0 |            0 |            0 |            0 |            0 |            0 |            0 |            0 |            0 |            0 |            0 |            0 |            0 |            0 |            0 |            0 |            0 |            0 |            0 |
dtlb.miss_rate                              0.0001 |       0.0001 |       0.0001 |       0.0001 |       0.0000 |       0.0000 |       0.0000 |       0.0000 |       0.0000 |       0.0000 |       0.0000 |       0.0000 |       0.0000 |       0.0000 |       0.0000 |       0.0000 |       0.0000 |       0.0000 |       0.0000 |       0.0000 |       0.0001 |       0.0001 |       0.0001 |       0.0001 |       0.0027 |       0.0027 |       0.0027 |       0.0027 |       0.0079 |       0.0079 |       0.0079 |       0.0079 |       0.0140 |       0.0140 |       0.0140 |       0.0140 |       0.0199 |       0.0199 |       0.0199 |       0.0199 |       0.0255 |       0.0255 |       0.0255 |       0.0255 |
dtlb.repl_rate                              0.0000 |       0.0000 |       0.0000 |       0.0000 |       0.0000 |       0.0000 |       0.0000 |       0.0000 |       0.0000 |       0.0000 |       0.0000 |       0.0000 |       0.0000 |       0.0000 |       0.0000 |       0.0000 |       0.0000 |       0.0000 |       0.0000 |       0.0000 |       0.0001 |       0.0001 |       0.0001 |       0.0001 |       0.0027 |       0.0027 |       0.0027 |       0.0027 |       0.0079 |       0.0079 |       0.0079 |       0.0079 |       0.0140 |       0.0140 |       0.0140 |       0.0140 |       0.0199 |       0.0199 |       0.0199 |       0.0199 |       0.0255 |       0.0255 |       0.0255 |       0.0255 |
dtlb.wb_rate                                0.0000 |       0.0000 |       0.0000 |       0.0000 |       0.0000 |       0.0000 |       0.0000 |       0.0000 |       0.0000 |       0.0000 |       0.0000 |       0.0000 |       0.0000 |       0.0000 |       0.0000 |       0.0000 |       0.0000 |       0.0000 |       0.0000 |       0.0000 |       0.0001 |       0.0001 |       0.0001 |       0.0001 |       0.0026 |       0.0026 |       0.0026 |       0.0026 |       0.0075 |       0.0075 |       0.0075 |       0.0075 |       0.0133 |       0.0133 |       0.0133 |       0.0133 |       0.0191 |       0.0191 |       0.0191 |       0.0191 |       0.0247 |       0.0247 |       0.0247 |       0.0247 |
dtlb.inv_rate                               0.0000 |       0.0000 |       0.0000 |       0.0000 |       0.0000 |       0.0000 |       0.0000 |       0.0000 |       0.0000 |       0.0000 |       0.0000 |       0.0000 |       0.0000 |       0.0000 |       0.0000 |       0.0000 |       0.0000 |       0.0000 |       0.0000 |       0.0000 |       0.0000 |       0.0000 |       0.0000 |       0.0000 |       0.0000 |       0.0000 |       0.0000 |       0.0000 |       0.0000 |       0.0000 |       0.0000 |       0.0000 |       0.0000 |       0.0000 |       0.0000 |       0.0000 |       0.0000 |       0.0000 |       0.0000 |       0.0000 |       0.0000 |       0.0000 |       0.0000 |       0.0000 |
ld_text_base                            0x00400000 |   0x00400000 |   0x00400000 |   0x00400000 |   0x00400000 |   0x00400000 |   0x00400000 |   0x00400000 |   0x00400000 |   0x00400000 |   0x00400000 |   0x00400000 |   0x00400000 |   0x00400000 |   0x00400000 |   0x00400000 |   0x00400000 |   0x00400000 |   0x00400000 |   0x00400000 |   0x00400000 |   0x00400000 |   0x00400000 |   0x00400000 |   0x00400000 |   0x00400000 |   0x00400000 |   0x00400000 |   0x00400000 |   0x00400000 |   0x00400000 |   0x00400000 |   0x00400000 |   0x00400000 |   0x00400000 |   0x00400000 |   0x00400000 |   0x00400000 |   0x00400000 |   0x00400000 |   0x00400000 |   0x00400000 |   0x00400000 |   0x00400000 |
ld_text_size                                 74304 |        74304 |        74304 |        74304 |        74336 |        74336 |        74336 |        74336 |        74352 |        74352 |        74352 |        74352 |        74368 |        74368 |        74368 |        74368 |        74368 |        74368 |        74368 |        74368 |        74368 |        74368 |        74368 |        74368 |        74368 |        74368 |        74368 |        74368 |        74368 |        74368 |        74368 |        74368 |        74368 |        74368 |        74368 |        74368 |        74368 |        74368 |        74368 |        74368 |        74368 |        74368 |        74368 |        74368 |
ld_data_base                            0x10000000 |   0x10000000 |   0x10000000 |   0x10000000 |   0x10000000 |   0x10000000 |   0x10000000 |   0x10000000 |   0x10000000 |   0x10000000 |   0x10000000 |   0x10000000 |   0x10000000 |   0x10000000 |   0x10000000 |   0x10000000 |   0x10000000 |   0x10000000 |   0x10000000 |   0x10000000 |   0x10000000 |   0x10000000 |   0x10000000 |   0x10000000 |   0x10000000 |   0x10000000 |   0x10000000 |   0x10000000 |   0x10000000 |   0x10000000 |   0x10000000 |   0x10000000 |   0x10000000 |   0x10000000 |   0x10000000 |   0x10000000 |   0x10000000 |   0x10000000 |   0x10000000 |   0x10000000 |   0x10000000 |   0x10000000 |   0x10000000 |   0x10000000 |
ld_data_size                                  8192 |         8192 |         8192 |         8192 |         8192 |         8192 |         8192 |         8192 |         8192 |         8192 |         8192 |         8192 |         8192 |         8192 |         8192 |         8192 |         8192 |         8192 |         8192 |         8192 |         8192 |         8192 |         8192 |         8192 |         8192 |         8192 |         8192 |         8192 |         8192 |         8192 |         8192 |         8192 |         8192 |         8192 |         8192 |         8192 |         8192 |         8192 |         8192 |         8192 |         8192 |         8192 |         8192 |         8192 |
ld_stack_base                           0x7fffc000 |   0x7fffc000 |   0x7fffc000 |   0x7fffc000 |   0x7fffc000 |   0x7fffc000 |   0x7fffc000 |   0x7fffc000 |   0x7fffc000 |   0x7fffc000 |   0x7fffc000 |   0x7fffc000 |   0x7fffc000 |   0x7fffc000 |   0x7fffc000 |   0x7fffc000 |   0x7fffc000 |   0x7fffc000 |   0x7fffc000 |   0x7fffc000 |   0x7fffc000 |   0x7fffc000 |   0x7fffc000 |   0x7fffc000 |   0x7fffc000 |   0x7fffc000 |   0x7fffc000 |   0x7fffc000 |   0x7fffc000 |   0x7fffc000 |   0x7fffc000 |   0x7fffc000 |   0x7fffc000 |   0x7fffc000 |   0x7fffc000 |   0x7fffc000 |   0x7fffc000 |   0x7fffc000 |   0x7fffc000 |   0x7fffc000 |   0x7fffc000 |   0x7fffc000 |   0x7fffc000 |   0x7fffc000 |
ld_stack_size                                16384 |        16384 |        16384 |        16384 |        16384 |        16384 |        16384 |        16384 |        16384 |        16384 |        16384 |        16384 |        16384 |        16384 |        16384 |        16384 |        16384 |        16384 |        16384 |        16384 |        16384 |        16384 |        16384 |        16384 |        16384 |        16384 |        16384 |        16384 |        16384 |        16384 |        16384 |        16384 |        16384 |        16384 |        16384 |        16384 |        16384 |        16384 |        16384 |        16384 |        16384 |        16384 |        16384 |        16384 |
ld_prog_entry                           0x00400140 |   0x00400140 |   0x00400140 |   0x00400140 |   0x00400140 |   0x00400140 |   0x00400140 |   0x00400140 |   0x00400140 |   0x00400140 |   0x00400140 |   0x00400140 |   0x00400140 |   0x00400140 |   0x00400140 |   0x00400140 |   0x00400140 |   0x00400140 |   0x00400140 |   0x00400140 |   0x00400140 |   0x00400140 |   0x00400140 |   0x00400140 |   0x00400140 |   0x00400140 |   0x00400140 |   0x00400140 |   0x00400140 |   0x00400140 |   0x00400140 |   0x00400140 |   0x00400140 |   0x00400140 |   0x00400140 |   0x00400140 |   0x00400140 |   0x00400140 |   0x00400140 |   0x00400140 |   0x00400140 |   0x00400140 |   0x00400140 |   0x00400140 |
ld_environ_base                         0x7fff8000 |   0x7fff8000 |   0x7fff8000 |   0x7fff8000 |   0x7fff8000 |   0x7fff8000 |   0x7fff8000 |   0x7fff8000 |   0x7fff8000 |   0x7fff8000 |   0x7fff8000 |   0x7fff8000 |   0x7fff8000 |   0x7fff8000 |   0x7fff8000 |   0x7fff8000 |   0x7fff8000 |   0x7fff8000 |   0x7fff8000 |   0x7fff8000 |   0x7fff8000 |   0x7fff8000 |   0x7fff8000 |   0x7fff8000 |   0x7fff8000 |   0x7fff8000 |   0x7fff8000 |   0x7fff8000 |   0x7fff8000 |   0x7fff8000 |   0x7fff8000 |   0x7fff8000 |   0x7fff8000 |   0x7fff8000 |   0x7fff8000 |   0x7fff8000 |   0x7fff8000 |   0x7fff8000 |   0x7fff8000 |   0x7fff8000 |   0x7fff8000 |   0x7fff8000 |   0x7fff8000 |   0x7fff8000 |
ld_target_big_endian                             0 |            0 |            0 |            0 |            0 |            0 |            0 |            0 |            0 |            0 |            0 |            0 |            0 |            0 |            0 |            0 |            0 |            0 |            0 |            0 |            0 |            0 |            0 |            0 |            0 |            0 |            0 |            0 |            0 |            0 |            0 |            0 |            0 |            0 |            0 |            0 |            0 |            0 |            0 |            0 |            0 |            0 |            0 |            0 |
mem.page_count                                  35 |           35 |           35 |           35 |           43 |           43 |           43 |           43 |           59 |           59 |           59 |           59 |           91 |           91 |           91 |           91 |          155 |          155 |          155 |          155 |          283 |          283 |          283 |          283 |          539 |          539 |          539 |          539 |         1051 |         1051 |         1051 |         1051 |         2081 |         2081 |         2081 |         2081 |         4135 |         4135 |         4135 |         4135 |         8243 |         8243 |         8243 |         8243 |
mem.page_mem                                  140k |         140k |         140k |         140k |         172k |         172k |         172k |         172k |         236k |         236k |         236k |         236k |         364k |         364k |         364k |         364k |         620k |         620k |         620k |         620k |        1132k |        1132k |        1132k |        1132k |        2156k |        2156k |        2156k |        2156k |        4204k |        4204k |        4204k |        4204k |        8324k |        8324k |        8324k |        8324k |       16540k |       16540k |       16540k |       16540k |       32972k |       32972k |       32972k |       32972k |
mem.ptab_misses                                 35 |           35 |           35 |           35 |           43 |           43 |           43 |           43 |           59 |           59 |           59 |           59 |           91 |           91 |           91 |           91 |          155 |          155 |          155 |          155 |          283 |          283 |          283 |          283 |          539 |          539 |          539 |          539 |         1051 |         1051 |         1051 |         1051 |         9080 |         9080 |         9080 |         9080 |        23586 |        23586 |        23586 |        23586 |        64926 |        64926 |        64926 |        64926 |
mem.ptab_accesses                          4419856 |      4419856 |      4419856 |      4419856 |      8933962 |      8933962 |      8933962 |      8933962 |     18590216 |     18590216 |     18590216 |     18590216 |     39074316 |     39074316 |     39074316 |     39074316 |     82565416 |     82565416 |     82565416 |     82565416 |    174232816 |    174232816 |    174232816 |    174232816 |    367635884 |    367635884 |    367635884 |    367635884 |    773162614 |    773162614 |    773162614 |    773162614 |   1624603958 |   1624603958 |   1624603958 |   1624603958 |   3402097242 |   3402097242 |   3402097242 |   3402097242 |   7118985264 |   7118985264 |   7118985264 |   7118985264 |
mem.ptab_miss_rate                          0.0000 |       0.0000 |       0.0000 |       0.0000 |       0.0000 |       0.0000 |       0.0000 |       0.0000 |       0.0000 |       0.0000 |       0.0000 |       0.0000 |       0.0000 |       0.0000 |       0.0000 |       0.0000 |       0.0000 |       0.0000 |       0.0000 |       0.0000 |       0.0000 |       0.0000 |       0.0000 |       0.0000 |       0.0000 |       0.0000 |       0.0000 |       0.0000 |       0.0000 |       0.0000 |       0.0000 |       0.0000 |       0.0000 |       0.0000 |       0.0000 |       0.0000 |       0.0000 |       0.0000 |       0.0000 |       0.0000 |       0.0000 |       0.0000 |       0.0000 |       0.0000 |
-------------------------------------------------------------------------------------------------
sim-bpred                                     4096 |         4096 |         4096 |         4096 |         4096 |         4096 |         4096 |         8192 |         8192 |         8192 |         8192 |         8192 |         8192 |         8192 |        16384 |        16384 |        16384 |        16384 |        16384 |        16384 |        16384 |        32768 |        32768 |        32768 |        32768 |        32768 |        32768 |        32768 |        65536 |        65536 |        65536 |        65536 |        65536 |        65536 |        65536 |       131072 |       131072 |       131072 |       131072 |       131072 |       131072 |       131072 |       262144 |       262144 |       262144 |       262144 |       262144 |       262144 |       262144 |       524288 |       524288 |       524288 |       524288 |       524288 |       524288 |       524288 |      1048576 |      1048576 |      1048576 |      1048576 |      1048576 |      1048576 |      1048576 |      2097152 |      2097152 |      2097152 |      2097152 |      2097152 |      2097152 |      2097152 |      4194304 |      4194304 |      4194304 |      4194304 |      4194304 |      4194304 |      4194304 |
-bpred bimod -bpred:bimod 512
-bpred bimod -bpred:bimod 1024
-bpred bimod -bpred:bimod 2048
-bpred 2lev -bpred:2lev 1 512 10 1
-bpred 2lev -bpred:2lev 1 1024 10 1
-bpred 2lev -bpred:2lev 1 2048 10 1
-bpred 2lev -bpred:2lev 1 4096 10 1
-------------------------------------------------------------------------------------------------
sim_num_insn                                872433 |       872433 |       872433 |       872433 |       872433 |       872433 |       872433 |      1869505 |      1869505 |      1869505 |      1869505 |      1869505 |      1869505 |      1869505 |      4003800 |      4003800 |      4003800 |      4003800 |      4003800 |      4003800 |      4003800 |      8533676 |      8533676 |      8533676 |      8533676 |      8533676 |      8533676 |      8533676 |     18156355 |     18156355 |     18156355 |     18156355 |     18156355 |     18156355 |     18156355 |     38446050 |     38446050 |     38446050 |     38446050 |     38446050 |     38446050 |     38446050 |     81272594 |     81272594 |     81272594 |     81272594 |     81272594 |     81272594 |     81272594 |    171097841 |    171097841 |    171097841 |    171097841 |    171097841 |    171097841 |    171097841 |    359759953 |    359759953 |    359759953 |    359759953 |    359759953 |    359759953 |    359759953 |    753715410 |    753715410 |    753715410 |    753715410 |    753715410 |    753715410 |    753715410 |   1577760684 |   1577760684 |   1577760684 |   1577760684 |   1577760684 |   1577760684 |   1577760684 |
sim_num_refs                                218395 |       218395 |       218395 |       218395 |       218395 |       218395 |       218395 |       464824 |       464824 |       464824 |       464824 |       464824 |       464824 |       464824 |       991545 |       991545 |       991545 |       991545 |       991545 |       991545 |       991545 |      2108259 |      2108259 |      2108259 |      2108259 |      2108259 |      2108259 |      2108259 |      4477379 |      4477379 |      4477379 |      4477379 |      4477379 |      4477379 |      4477379 |      9469545 |      9469545 |      9469545 |      9469545 |      9469545 |      9469545 |      9469545 |     19993703 |     19993703 |     19993703 |     19993703 |     19993703 |     19993703 |     19993703 |     42057998 |     42057998 |     42057998 |     42057998 |     42057998 |     42057998 |     42057998 |     88357294 |     88357294 |     88357294 |     88357294 |     88357294 |     88357294 |     88357294 |    184998718 |    184998718 |    184998718 |    184998718 |    184998718 |    184998718 |    184998718 |    386963573 |    386963573 |    386963573 |    386963573 |    386963573 |    386963573 |    386963573 |
sim_elapsed_time                                 1 |            1 |            1 |            1 |            1 |            1 |            1 |            1 |            1 |            1 |            1 |            1 |            1 |            1 |            1 |            1 |            1 |            1 |            1 |            1 |            1 |            1 |            2 |            1 |            1 |            1 |            1 |            1 |            3 |            2 |            3 |            2 |            3 |            2 |            2 |            5 |            5 |            5 |            5 |            5 |            5 |            5 |           11 |           10 |           11 |           11 |           10 |           11 |           11 |           22 |           22 |           22 |           23 |           23 |           22 |           23 |           46 |           48 |           46 |           48 |           49 |           48 |           47 |           98 |           98 |           98 |          103 |           99 |          100 |           99 |          204 |          203 |          205 |          205 |          207 |          205 |          206 |
sim_inst_rate                          872433.0000 |  872433.0000 |  872433.0000 |  872433.0000 |  872433.0000 |  872433.0000 |  872433.0000 | 1869505.0000 | 1869505.0000 | 1869505.0000 | 1869505.0000 | 1869505.0000 | 1869505.0000 | 1869505.0000 | 4003800.0000 | 4003800.0000 | 4003800.0000 | 4003800.0000 | 4003800.0000 | 4003800.0000 | 4003800.0000 | 8533676.0000 | 4266838.0000 | 8533676.0000 | 8533676.0000 | 8533676.0000 | 8533676.0000 | 8533676.0000 | 6052118.3333 | 9078177.5000 | 6052118.3333 | 9078177.5000 | 6052118.3333 | 9078177.5000 | 9078177.5000 | 7689210.0000 | 7689210.0000 | 7689210.0000 | 7689210.0000 | 7689210.0000 | 7689210.0000 | 7689210.0000 | 7388417.6364 | 8127259.4000 | 7388417.6364 | 7388417.6364 | 8127259.4000 | 7388417.6364 | 7388417.6364 | 7777174.5909 | 7777174.5909 | 7777174.5909 | 7439036.5652 | 7439036.5652 | 7777174.5909 | 7439036.5652 | 7820868.5435 | 7494999.0208 | 7820868.5435 | 7494999.0208 | 7342039.8571 | 7494999.0208 | 7654467.0851 | 7690973.5714 | 7690973.5714 | 7690973.5714 | 7317625.3398 | 7613286.9697 | 7537154.1000 | 7613286.9697 | 7734121.0000 | 7772220.1182 | 7696393.5805 | 7696393.5805 | 7622032.2899 | 7696393.5805 | 7659032.4466 |
sim_num_branches                            155352 |       155352 |       155352 |       155352 |       155352 |       155352 |       155352 |       333724 |       333724 |       333724 |       333724 |       333724 |       333724 |       333724 |       715786 |       715786 |       715786 |       715786 |       715786 |       715786 |       715786 |      1527470 |      1527470 |      1527470 |      1527470 |      1527470 |      1527470 |      1527470 |      3252609 |      3252609 |      3252609 |      3252609 |      3252609 |      3252609 |      3252609 |      6893363 |      6893363 |      6893363 |      6893363 |      6893363 |      6893363 |      6893363 |     14579769 |     14579769 |     14579769 |     14579769 |     14579769 |     14579769 |     14579769 |     30713986 |     30713986 |     30713986 |     30713986 |     30713986 |     30713986 |     30713986 |     64603797 |     64603797 |     64603797 |     64603797 |     64603797 |     64603797 |     64603797 |    135424110 |    135424110 |    135424110 |    135424110 |    135424110 |    135424110 |    135424110 |    283577229 |    283577229 |    283577229 |    283577229 |    283577229 |    283577229 |    283577229 |
sim_IPB                                     5.6158 |       5.6158 |       5.6158 |       5.6158 |       5.6158 |       5.6158 |       5.6158 |       5.6019 |       5.6019 |       5.6019 |       5.6019 |       5.6019 |       5.6019 |       5.6019 |       5.5936 |       5.5936 |       5.5936 |       5.5936 |       5.5936 |       5.5936 |       5.5936 |       5.5868 |       5.5868 |       5.5868 |       5.5868 |       5.5868 |       5.5868 |       5.5868 |       5.5821 |       5.5821 |       5.5821 |       5.5821 |       5.5821 |       5.5821 |       5.5821 |       5.5773 |       5.5773 |       5.5773 |       5.5773 |       5.5773 |       5.5773 |       5.5773 |       5.5743 |       5.5743 |       5.5743 |       5.5743 |       5.5743 |       5.5743 |       5.5743 |       5.5707 |       5.5707 |       5.5707 |       5.5707 |       5.5707 |       5.5707 |       5.5707 |       5.5687 |       5.5687 |       5.5687 |       5.5687 |       5.5687 |       5.5687 |       5.5687 |       5.5656 |       5.5656 |       5.5656 |       5.5656 |       5.5656 |       5.5656 |       5.5656 |       5.5638 |       5.5638 |       5.5638 |       5.5638 |       5.5638 |       5.5638 |       5.5638 |
bpred_bimod.lookups                         155352 |       155352 |       155352 |xxxxxxxxxxxxx |xxxxxxxxxxxxx |xxxxxxxxxxxxx |xxxxxxxxxxxxx |       333724 |       333724 |       333724 |xxxxxxxxxxxxx |xxxxxxxxxxxxx |xxxxxxxxxxxxx |xxxxxxxxxxxxx |       715786 |       715786 |       715786 |xxxxxxxxxxxxx |xxxxxxxxxxxxx |xxxxxxxxxxxxx |xxxxxxxxxxxxx |      1527470 |      1527470 |      1527470 |xxxxxxxxxxxxx |xxxxxxxxxxxxx |xxxxxxxxxxxxx |xxxxxxxxxxxxx |      3252609 |      3252609 |      3252609 |xxxxxxxxxxxxx |xxxxxxxxxxxxx |xxxxxxxxxxxxx |xxxxxxxxxxxxx |      6893363 |      6893363 |      6893363 |xxxxxxxxxxxxx |xxxxxxxxxxxxx |xxxxxxxxxxxxx |xxxxxxxxxxxxx |     14579769 |     14579769 |     14579769 |xxxxxxxxxxxxx |xxxxxxxxxxxxx |xxxxxxxxxxxxx |xxxxxxxxxxxxx |     30713986 |     30713986 |     30713986 |xxxxxxxxxxxxx |xxxxxxxxxxxxx |xxxxxxxxxxxxx |xxxxxxxxxxxxx |     64603797 |     64603797 |     64603797 |xxxxxxxxxxxxx |xxxxxxxxxxxxx |xxxxxxxxxxxxx |xxxxxxxxxxxxx |    135424110 |    135424110 |    135424110 |xxxxxxxxxxxxx |xxxxxxxxxxxxx |xxxxxxxxxxxxx |xxxxxxxxxxxxx |    283577229 |    283577229 |    283577229 |
bpred_bimod.updates                         155352 |       155352 |       155352 |xxxxxxxxxxxxx |xxxxxxxxxxxxx |xxxxxxxxxxxxx |xxxxxxxxxxxxx |       333724 |       333724 |       333724 |xxxxxxxxxxxxx |xxxxxxxxxxxxx |xxxxxxxxxxxxx |xxxxxxxxxxxxx |       715786 |       715786 |       715786 |xxxxxxxxxxxxx |xxxxxxxxxxxxx |xxxxxxxxxxxxx |xxxxxxxxxxxxx |      1527470 |      1527470 |      1527470 |xxxxxxxxxxxxx |xxxxxxxxxxxxx |xxxxxxxxxxxxx |xxxxxxxxxxxxx |      3252609 |      3252609 |      3252609 |xxxxxxxxxxxxx |xxxxxxxxxxxxx |xxxxxxxxxxxxx |xxxxxxxxxxxxx |      6893363 |      6893363 |      6893363 |xxxxxxxxxxxxx |xxxxxxxxxxxxx |xxxxxxxxxxxxx |xxxxxxxxxxxxx |     14579769 |     14579769 |     14579769 |xxxxxxxxxxxxx |xxxxxxxxxxxxx |xxxxxxxxxxxxx |xxxxxxxxxxxxx |     30713986 |     30713986 |     30713986 |xxxxxxxxxxxxx |xxxxxxxxxxxxx |xxxxxxxxxxxxx |xxxxxxxxxxxxx |     64603797 |     64603797 |     64603797 |xxxxxxxxxxxxx |xxxxxxxxxxxxx |xxxxxxxxxxxxx |xxxxxxxxxxxxx |    135424110 |    135424110 |    135424110 |xxxxxxxxxxxxx |xxxxxxxxxxxxx |xxxxxxxxxxxxx |xxxxxxxxxxxxx |    283577229 |    283577229 |    283577229 |
bpred_bimod.addr_hits                       124273 |       124281 |       124281 |xxxxxxxxxxxxx |xxxxxxxxxxxxx |xxxxxxxxxxxxx |xxxxxxxxxxxxx |       266664 |       266670 |       266670 |xxxxxxxxxxxxx |xxxxxxxxxxxxx |xxxxxxxxxxxxx |xxxxxxxxxxxxx |       573019 |       573025 |       573026 |xxxxxxxxxxxxx |xxxxxxxxxxxxx |xxxxxxxxxxxxx |xxxxxxxxxxxxx |      1222253 |      1222259 |      1222262 |xxxxxxxxxxxxx |xxxxxxxxxxxxx |xxxxxxxxxxxxx |xxxxxxxxxxxxx |      2605548 |      2605554 |      2605557 |xxxxxxxxxxxxx |xxxxxxxxxxxxx |xxxxxxxxxxxxx |xxxxxxxxxxxxx |      5515163 |      5515170 |      5515172 |xxxxxxxxxxxxx |xxxxxxxxxxxxx |xxxxxxxxxxxxx |xxxxxxxxxxxxx |     11674737 |     11674744 |     11674746 |xxxxxxxxxxxxx |xxxxxxxxxxxxx |xxxxxxxxxxxxx |xxxxxxxxxxxxx |     24568344 |     24568351 |     24568353 |xxxxxxxxxxxxx |xxxxxxxxxxxxx |xxxxxxxxxxxxx |xxxxxxxxxxxxx |     51710145 |     51710151 |     51710152 |xxxxxxxxxxxxx |xxxxxxxxxxxxx |xxxxxxxxxxxxx |xxxxxxxxxxxxx |    108320886 |    108320892 |    108320893 |xxxxxxxxxxxxx |xxxxxxxxxxxxx |xxxxxxxxxxxxx |xxxxxxxxxxxxx |    226971540 |    226971546 |    226971547 |
bpred_bimod.dir_hits                        124395 |       124403 |       124404 |xxxxxxxxxxxxx |xxxxxxxxxxxxx |xxxxxxxxxxxxx |xxxxxxxxxxxxx |       266791 |       266797 |       266797 |xxxxxxxxxxxxx |xxxxxxxxxxxxx |xxxxxxxxxxxxx |xxxxxxxxxxxxx |       573145 |       573151 |       573152 |xxxxxxxxxxxxx |xxxxxxxxxxxxx |xxxxxxxxxxxxx |xxxxxxxxxxxxx |      1222379 |      1222385 |      1222388 |xxxxxxxxxxxxx |xxxxxxxxxxxxx |xxxxxxxxxxxxx |xxxxxxxxxxxxx |      2605674 |      2605680 |      2605683 |xxxxxxxxxxxxx |xxxxxxxxxxxxx |xxxxxxxxxxxxx |xxxxxxxxxxxxx |      5515289 |      5515296 |      5515298 |xxxxxxxxxxxxx |xxxxxxxxxxxxx |xxxxxxxxxxxxx |xxxxxxxxxxxxx |     11674863 |     11674870 |     11674872 |xxxxxxxxxxxxx |xxxxxxxxxxxxx |xxxxxxxxxxxxx |xxxxxxxxxxxxx |     24568471 |     24568478 |     24568480 |xxxxxxxxxxxxx |xxxxxxxxxxxxx |xxxxxxxxxxxxx |xxxxxxxxxxxxx |     51710284 |     51710290 |     51710291 |xxxxxxxxxxxxx |xxxxxxxxxxxxx |xxxxxxxxxxxxx |xxxxxxxxxxxxx |    108321024 |    108321030 |    108321031 |xxxxxxxxxxxxx |xxxxxxxxxxxxx |xxxxxxxxxxxxx |xxxxxxxxxxxxx |    226971678 |    226971684 |    226971685 |
bpred_bimod.misses                           30957 |        30949 |        30948 |xxxxxxxxxxxxx |xxxxxxxxxxxxx |xxxxxxxxxxxxx |xxxxxxxxxxxxx |        66933 |        66927 |        66927 |xxxxxxxxxxxxx |xxxxxxxxxxxxx |xxxxxxxxxxxxx |xxxxxxxxxxxxx |       142641 |       142635 |       142634 |xxxxxxxxxxxxx |xxxxxxxxxxxxx |xxxxxxxxxxxxx |xxxxxxxxxxxxx |       305091 |       305085 |       305082 |xxxxxxxxxxxxx |xxxxxxxxxxxxx |xxxxxxxxxxxxx |xxxxxxxxxxxxx |       646935 |       646929 |       646926 |xxxxxxxxxxxxx |xxxxxxxxxxxxx |xxxxxxxxxxxxx |xxxxxxxxxxxxx |      1378074 |      1378067 |      1378065 |xxxxxxxxxxxxx |xxxxxxxxxxxxx |xxxxxxxxxxxxx |xxxxxxxxxxxxx |      2904906 |      2904899 |      2904897 |xxxxxxxxxxxxx |xxxxxxxxxxxxx |xxxxxxxxxxxxx |xxxxxxxxxxxxx |      6145515 |      6145508 |      6145506 |xxxxxxxxxxxxx |xxxxxxxxxxxxx |xxxxxxxxxxxxx |xxxxxxxxxxxxx |     12893513 |     12893507 |     12893506 |xxxxxxxxxxxxx |xxxxxxxxxxxxx |xxxxxxxxxxxxx |xxxxxxxxxxxxx |     27103086 |     27103080 |     27103079 |xxxxxxxxxxxxx |xxxxxxxxxxxxx |xxxxxxxxxxxxx |xxxxxxxxxxxxx |     56605551 |     56605545 |     56605544 |
bpred_bimod.jr_hits                           4157 |         4157 |         4157 |xxxxxxxxxxxxx |xxxxxxxxxxxxx |xxxxxxxxxxxxx |xxxxxxxxxxxxx |         8261 |         8261 |         8261 |xxxxxxxxxxxxx |xxxxxxxxxxxxx |xxxxxxxxxxxxx |xxxxxxxxxxxxx |        16453 |        16453 |        16453 |xxxxxxxxxxxxx |xxxxxxxxxxxxx |xxxxxxxxxxxxx |xxxxxxxxxxxxx |        32837 |        32837 |        32837 |xxxxxxxxxxxxx |xxxxxxxxxxxxx |xxxxxxxxxxxxx |xxxxxxxxxxxxx |        65605 |        65605 |        65605 |xxxxxxxxxxxxx |xxxxxxxxxxxxx |xxxxxxxxxxxxx |xxxxxxxxxxxxx |       131141 |       131141 |       131141 |xxxxxxxxxxxxx |xxxxxxxxxxxxx |xxxxxxxxxxxxx |xxxxxxxxxxxxx |       262213 |       262213 |       262213 |xxxxxxxxxxxxx |xxxxxxxxxxxxx |xxxxxxxxxxxxx |xxxxxxxxxxxxx |       524357 |       524357 |       524357 |xxxxxxxxxxxxx |xxxxxxxxxxxxx |xxxxxxxxxxxxx |xxxxxxxxxxxxx |      1048648 |      1048648 |      1048648 |xxxxxxxxxxxxx |xxxxxxxxxxxxx |xxxxxxxxxxxxx |xxxxxxxxxxxxx |      2097224 |      2097224 |      2097224 |xxxxxxxxxxxxx |xxxxxxxxxxxxx |xxxxxxxxxxxxx |xxxxxxxxxxxxx |      4194376 |      4194376 |      4194376 |
bpred_bimod.jr_seen                           4157 |         4157 |         4157 |xxxxxxxxxxxxx |xxxxxxxxxxxxx |xxxxxxxxxxxxx |xxxxxxxxxxxxx |         8262 |         8262 |         8262 |xxxxxxxxxxxxx |xxxxxxxxxxxxx |xxxxxxxxxxxxx |xxxxxxxxxxxxx |        16454 |        16454 |        16454 |xxxxxxxxxxxxx |xxxxxxxxxxxxx |xxxxxxxxxxxxx |xxxxxxxxxxxxx |        32838 |        32838 |        32838 |xxxxxxxxxxxxx |xxxxxxxxxxxxx |xxxxxxxxxxxxx |xxxxxxxxxxxxx |        65606 |        65606 |        65606 |xxxxxxxxxxxxx |xxxxxxxxxxxxx |xxxxxxxxxxxxx |xxxxxxxxxxxxx |       131142 |       131142 |       131142 |xxxxxxxxxxxxx |xxxxxxxxxxxxx |xxxxxxxxxxxxx |xxxxxxxxxxxxx |       262214 |       262214 |       262214 |xxxxxxxxxxxxx |xxxxxxxxxxxxx |xxxxxxxxxxxxx |xxxxxxxxxxxxx |       524358 |       524358 |       524358 |xxxxxxxxxxxxx |xxxxxxxxxxxxx |xxxxxxxxxxxxx |xxxxxxxxxxxxx |      1048649 |      1048649 |      1048649 |xxxxxxxxxxxxx |xxxxxxxxxxxxx |xxxxxxxxxxxxx |xxxxxxxxxxxxx |      2097225 |      2097225 |      2097225 |xxxxxxxxxxxxx |xxxxxxxxxxxxx |xxxxxxxxxxxxx |xxxxxxxxxxxxx |      4194377 |      4194377 |      4194377 |
bpred_bimod.jr_non_ras_hits.PP                   0 |            0 |            0 |xxxxxxxxxxxxx |xxxxxxxxxxxxx |xxxxxxxxxxxxx |xxxxxxxxxxxxx |            0 |            0 |            0 |xxxxxxxxxxxxx |xxxxxxxxxxxxx |xxxxxxxxxxxxx |xxxxxxxxxxxxx |            0 |            0 |            0 |xxxxxxxxxxxxx |xxxxxxxxxxxxx |xxxxxxxxxxxxx |xxxxxxxxxxxxx |            0 |            0 |            0 |xxxxxxxxxxxxx |xxxxxxxxxxxxx |xxxxxxxxxxxxx |xxxxxxxxxxxxx |            0 |            0 |            0 |xxxxxxxxxxxxx |xxxxxxxxxxxxx |xxxxxxxxxxxxx |xxxxxxxxxxxxx |            0 |            0 |            0 |xxxxxxxxxxxxx |xxxxxxxxxxxxx |xxxxxxxxxxxxx |xxxxxxxxxxxxx |            0 |            0 |            0 |xxxxxxxxxxxxx |xxxxxxxxxxxxx |xxxxxxxxxxxxx |xxxxxxxxxxxxx |            0 |            0 |            0 |xxxxxxxxxxxxx |xxxxxxxxxxxxx |xxxxxxxxxxxxx |xxxxxxxxxxxxx |            0 |            0 |            0 |xxxxxxxxxxxxx |xxxxxxxxxxxxx |xxxxxxxxxxxxx |xxxxxxxxxxxxx |            0 |            0 |            0 |xxxxxxxxxxxxx |xxxxxxxxxxxxx |xxxxxxxxxxxxx |xxxxxxxxxxxxx |            0 |            0 |            0 |
bpred_bimod.jr_non_ras_seen.PP                   0 |            0 |            0 |xxxxxxxxxxxxx |xxxxxxxxxxxxx |xxxxxxxxxxxxx |xxxxxxxxxxxxx |            0 |            0 |            0 |xxxxxxxxxxxxx |xxxxxxxxxxxxx |xxxxxxxxxxxxx |xxxxxxxxxxxxx |            0 |            0 |            0 |xxxxxxxxxxxxx |xxxxxxxxxxxxx |xxxxxxxxxxxxx |xxxxxxxxxxxxx |            0 |            0 |            0 |xxxxxxxxxxxxx |xxxxxxxxxxxxx |xxxxxxxxxxxxx |xxxxxxxxxxxxx |            0 |            0 |            0 |xxxxxxxxxxxxx |xxxxxxxxxxxxx |xxxxxxxxxxxxx |xxxxxxxxxxxxx |            0 |            0 |            0 |xxxxxxxxxxxxx |xxxxxxxxxxxxx |xxxxxxxxxxxxx |xxxxxxxxxxxxx |            0 |            0 |            0 |xxxxxxxxxxxxx |xxxxxxxxxxxxx |xxxxxxxxxxxxx |xxxxxxxxxxxxx |            0 |            0 |            0 |xxxxxxxxxxxxx |xxxxxxxxxxxxx |xxxxxxxxxxxxx |xxxxxxxxxxxxx |            1 |            1 |            1 |xxxxxxxxxxxxx |xxxxxxxxxxxxx |xxxxxxxxxxxxx |xxxxxxxxxxxxx |            1 |            1 |            1 |xxxxxxxxxxxxx |xxxxxxxxxxxxx |xxxxxxxxxxxxx |xxxxxxxxxxxxx |            1 |            1 |            1 |
bpred_bimod.bpred_addr_rate                 0.7999 |       0.8000 |       0.8000 |xxxxxxxxxxxxx |xxxxxxxxxxxxx |xxxxxxxxxxxxx |xxxxxxxxxxxxx |       0.7991 |       0.7991 |       0.7991 |xxxxxxxxxxxxx |xxxxxxxxxxxxx |xxxxxxxxxxxxx |xxxxxxxxxxxxx |       0.8005 |       0.8006 |       0.8006 |xxxxxxxxxxxxx |xxxxxxxxxxxxx |xxxxxxxxxxxxx |xxxxxxxxxxxxx |       0.8002 |       0.8002 |       0.8002 |xxxxxxxxxxxxx |xxxxxxxxxxxxx |xxxxxxxxxxxxx |xxxxxxxxxxxxx |       0.8011 |       0.8011 |       0.8011 |xxxxxxxxxxxxx |xxxxxxxxxxxxx |xxxxxxxxxxxxx |xxxxxxxxxxxxx |       0.8001 |       0.8001 |       0.8001 |xxxxxxxxxxxxx |xxxxxxxxxxxxx |xxxxxxxxxxxxx |xxxxxxxxxxxxx |       0.8007 |       0.8007 |       0.8007 |xxxxxxxxxxxxx |xxxxxxxxxxxxx |xxxxxxxxxxxxx |xxxxxxxxxxxxx |       0.7999 |       0.7999 |       0.7999 |xxxxxxxxxxxxx |xxxxxxxxxxxxx |xxxxxxxxxxxxx |xxxxxxxxxxxxx |       0.8004 |       0.8004 |       0.8004 |xxxxxxxxxxxxx |xxxxxxxxxxxxx |xxxxxxxxxxxxx |xxxxxxxxxxxxx |       0.7999 |       0.7999 |       0.7999 |xxxxxxxxxxxxx |xxxxxxxxxxxxx |xxxxxxxxxxxxx |xxxxxxxxxxxxx |       0.8004 |       0.8004 |       0.8004 |
bpred_bimod.bpred_dir_rate                  0.8007 |       0.8008 |       0.8008 |xxxxxxxxxxxxx |xxxxxxxxxxxxx |xxxxxxxxxxxxx |xxxxxxxxxxxxx |       0.7994 |       0.7995 |       0.7995 |xxxxxxxxxxxxx |xxxxxxxxxxxxx |xxxxxxxxxxxxx |xxxxxxxxxxxxx |       0.8007 |       0.8007 |       0.8007 |xxxxxxxxxxxxx |xxxxxxxxxxxxx |xxxxxxxxxxxxx |xxxxxxxxxxxxx |       0.8003 |       0.8003 |       0.8003 |xxxxxxxxxxxxx |xxxxxxxxxxxxx |xxxxxxxxxxxxx |xxxxxxxxxxxxx |       0.8011 |       0.8011 |       0.8011 |xxxxxxxxxxxxx |xxxxxxxxxxxxx |xxxxxxxxxxxxx |xxxxxxxxxxxxx |       0.8001 |       0.8001 |       0.8001 |xxxxxxxxxxxxx |xxxxxxxxxxxxx |xxxxxxxxxxxxx |xxxxxxxxxxxxx |       0.8008 |       0.8008 |       0.8008 |xxxxxxxxxxxxx |xxxxxxxxxxxxx |xxxxxxxxxxxxx |xxxxxxxxxxxxx |       0.7999 |       0.7999 |       0.7999 |xxxxxxxxxxxxx |xxxxxxxxxxxxx |xxxxxxxxxxxxx |xxxxxxxxxxxxx |       0.8004 |       0.8004 |       0.8004 |xxxxxxxxxxxxx |xxxxxxxxxxxxx |xxxxxxxxxxxxx |xxxxxxxxxxxxx |       0.7999 |       0.7999 |       0.7999 |xxxxxxxxxxxxx |xxxxxxxxxxxxx |xxxxxxxxxxxxx |xxxxxxxxxxxxx |       0.8004 |       0.8004 |       0.8004 |
bpred_bimod.bpred_jr_rate                   1.0000 |       1.0000 |       1.0000 |xxxxxxxxxxxxx |xxxxxxxxxxxxx |xxxxxxxxxxxxx |xxxxxxxxxxxxx |       0.9999 |       0.9999 |       0.9999 |xxxxxxxxxxxxx |xxxxxxxxxxxxx |xxxxxxxxxxxxx |xxxxxxxxxxxxx |       0.9999 |       0.9999 |       0.9999 |xxxxxxxxxxxxx |xxxxxxxxxxxxx |xxxxxxxxxxxxx |xxxxxxxxxxxxx |       1.0000 |       1.0000 |       1.0000 |xxxxxxxxxxxxx |xxxxxxxxxxxxx |xxxxxxxxxxxxx |xxxxxxxxxxxxx |       1.0000 |       1.0000 |       1.0000 |xxxxxxxxxxxxx |xxxxxxxxxxxxx |xxxxxxxxxxxxx |xxxxxxxxxxxxx |       1.0000 |       1.0000 |       1.0000 |xxxxxxxxxxxxx |xxxxxxxxxxxxx |xxxxxxxxxxxxx |xxxxxxxxxxxxx |       1.0000 |       1.0000 |       1.0000 |xxxxxxxxxxxxx |xxxxxxxxxxxxx |xxxxxxxxxxxxx |xxxxxxxxxxxxx |       1.0000 |       1.0000 |       1.0000 |xxxxxxxxxxxxx |xxxxxxxxxxxxx |xxxxxxxxxxxxx |xxxxxxxxxxxxx |       1.0000 |       1.0000 |       1.0000 |xxxxxxxxxxxxx |xxxxxxxxxxxxx |xxxxxxxxxxxxx |xxxxxxxxxxxxx |       1.0000 |       1.0000 |       1.0000 |xxxxxxxxxxxxx |xxxxxxxxxxxxx |xxxxxxxxxxxxx |xxxxxxxxxxxxx |       1.0000 |       1.0000 |       1.0000 |
bpred_bimod.bpred_jr_non_ras_rate.PP       <error: |      <error: |      <error: |xxxxxxxxxxxxx |xxxxxxxxxxxxx |xxxxxxxxxxxxx |xxxxxxxxxxxxx |      <error: |      <error: |      <error: |xxxxxxxxxxxxx |xxxxxxxxxxxxx |xxxxxxxxxxxxx |xxxxxxxxxxxxx |      <error: |      <error: |      <error: |xxxxxxxxxxxxx |xxxxxxxxxxxxx |xxxxxxxxxxxxx |xxxxxxxxxxxxx |      <error: |      <error: |      <error: |xxxxxxxxxxxxx |xxxxxxxxxxxxx |xxxxxxxxxxxxx |xxxxxxxxxxxxx |      <error: |      <error: |      <error: |xxxxxxxxxxxxx |xxxxxxxxxxxxx |xxxxxxxxxxxxx |xxxxxxxxxxxxx |      <error: |      <error: |      <error: |xxxxxxxxxxxxx |xxxxxxxxxxxxx |xxxxxxxxxxxxx |xxxxxxxxxxxxx |      <error: |      <error: |      <error: |xxxxxxxxxxxxx |xxxxxxxxxxxxx |xxxxxxxxxxxxx |xxxxxxxxxxxxx |      <error: |      <error: |      <error: |xxxxxxxxxxxxx |xxxxxxxxxxxxx |xxxxxxxxxxxxx |xxxxxxxxxxxxx |       0.0000 |       0.0000 |       0.0000 |xxxxxxxxxxxxx |xxxxxxxxxxxxx |xxxxxxxxxxxxx |xxxxxxxxxxxxx |       0.0000 |       0.0000 |       0.0000 |xxxxxxxxxxxxx |xxxxxxxxxxxxx |xxxxxxxxxxxxx |xxxxxxxxxxxxx |       0.0000 |       0.0000 |       0.0000 |
bpred_bimod.retstack_pushes                   4159 |         4159 |         4159 |xxxxxxxxxxxxx |xxxxxxxxxxxxx |xxxxxxxxxxxxx |xxxxxxxxxxxxx |         8264 |         8264 |         8264 |xxxxxxxxxxxxx |xxxxxxxxxxxxx |xxxxxxxxxxxxx |xxxxxxxxxxxxx |        16456 |        16456 |        16456 |xxxxxxxxxxxxx |xxxxxxxxxxxxx |xxxxxxxxxxxxx |xxxxxxxxxxxxx |        32840 |        32840 |        32840 |xxxxxxxxxxxxx |xxxxxxxxxxxxx |xxxxxxxxxxxxx |xxxxxxxxxxxxx |        65608 |        65608 |        65608 |xxxxxxxxxxxxx |xxxxxxxxxxxxx |xxxxxxxxxxxxx |xxxxxxxxxxxxx |       131144 |       131144 |       131144 |xxxxxxxxxxxxx |xxxxxxxxxxxxx |xxxxxxxxxxxxx |xxxxxxxxxxxxx |       262216 |       262216 |       262216 |xxxxxxxxxxxxx |xxxxxxxxxxxxx |xxxxxxxxxxxxx |xxxxxxxxxxxxx |       524360 |       524360 |       524360 |xxxxxxxxxxxxx |xxxxxxxxxxxxx |xxxxxxxxxxxxx |xxxxxxxxxxxxx |      1048650 |      1048650 |      1048650 |xxxxxxxxxxxxx |xxxxxxxxxxxxx |xxxxxxxxxxxxx |xxxxxxxxxxxxx |      2097226 |      2097226 |      2097226 |xxxxxxxxxxxxx |xxxxxxxxxxxxx |xxxxxxxxxxxxx |xxxxxxxxxxxxx |      4194378 |      4194378 |      4194378 |
bpred_bimod.retstack_pops                     4157 |         4157 |         4157 |xxxxxxxxxxxxx |xxxxxxxxxxxxx |xxxxxxxxxxxxx |xxxxxxxxxxxxx |         8262 |         8262 |         8262 |xxxxxxxxxxxxx |xxxxxxxxxxxxx |xxxxxxxxxxxxx |xxxxxxxxxxxxx |        16454 |        16454 |        16454 |xxxxxxxxxxxxx |xxxxxxxxxxxxx |xxxxxxxxxxxxx |xxxxxxxxxxxxx |        32838 |        32838 |        32838 |xxxxxxxxxxxxx |xxxxxxxxxxxxx |xxxxxxxxxxxxx |xxxxxxxxxxxxx |        65606 |        65606 |        65606 |xxxxxxxxxxxxx |xxxxxxxxxxxxx |xxxxxxxxxxxxx |xxxxxxxxxxxxx |       131142 |       131142 |       131142 |xxxxxxxxxxxxx |xxxxxxxxxxxxx |xxxxxxxxxxxxx |xxxxxxxxxxxxx |       262214 |       262214 |       262214 |xxxxxxxxxxxxx |xxxxxxxxxxxxx |xxxxxxxxxxxxx |xxxxxxxxxxxxx |       524358 |       524358 |       524358 |xxxxxxxxxxxxx |xxxxxxxxxxxxx |xxxxxxxxxxxxx |xxxxxxxxxxxxx |      1048648 |      1048648 |      1048648 |xxxxxxxxxxxxx |xxxxxxxxxxxxx |xxxxxxxxxxxxx |xxxxxxxxxxxxx |      2097224 |      2097224 |      2097224 |xxxxxxxxxxxxx |xxxxxxxxxxxxx |xxxxxxxxxxxxx |xxxxxxxxxxxxx |      4194376 |      4194376 |      4194376 |
bpred_bimod.used_ras.PP                       4157 |         4157 |         4157 |xxxxxxxxxxxxx |xxxxxxxxxxxxx |xxxxxxxxxxxxx |xxxxxxxxxxxxx |         8262 |         8262 |         8262 |xxxxxxxxxxxxx |xxxxxxxxxxxxx |xxxxxxxxxxxxx |xxxxxxxxxxxxx |        16454 |        16454 |        16454 |xxxxxxxxxxxxx |xxxxxxxxxxxxx |xxxxxxxxxxxxx |xxxxxxxxxxxxx |        32838 |        32838 |        32838 |xxxxxxxxxxxxx |xxxxxxxxxxxxx |xxxxxxxxxxxxx |xxxxxxxxxxxxx |        65606 |        65606 |        65606 |xxxxxxxxxxxxx |xxxxxxxxxxxxx |xxxxxxxxxxxxx |xxxxxxxxxxxxx |       131142 |       131142 |       131142 |xxxxxxxxxxxxx |xxxxxxxxxxxxx |xxxxxxxxxxxxx |xxxxxxxxxxxxx |       262214 |       262214 |       262214 |xxxxxxxxxxxxx |xxxxxxxxxxxxx |xxxxxxxxxxxxx |xxxxxxxxxxxxx |       524358 |       524358 |       524358 |xxxxxxxxxxxxx |xxxxxxxxxxxxx |xxxxxxxxxxxxx |xxxxxxxxxxxxx |      1048648 |      1048648 |      1048648 |xxxxxxxxxxxxx |xxxxxxxxxxxxx |xxxxxxxxxxxxx |xxxxxxxxxxxxx |      2097224 |      2097224 |      2097224 |xxxxxxxxxxxxx |xxxxxxxxxxxxx |xxxxxxxxxxxxx |xxxxxxxxxxxxx |      4194376 |      4194376 |      4194376 |
bpred_bimod.ras_hits.PP                       4157 |         4157 |         4157 |xxxxxxxxxxxxx |xxxxxxxxxxxxx |xxxxxxxxxxxxx |xxxxxxxxxxxxx |         8261 |         8261 |         8261 |xxxxxxxxxxxxx |xxxxxxxxxxxxx |xxxxxxxxxxxxx |xxxxxxxxxxxxx |        16453 |        16453 |        16453 |xxxxxxxxxxxxx |xxxxxxxxxxxxx |xxxxxxxxxxxxx |xxxxxxxxxxxxx |        32837 |        32837 |        32837 |xxxxxxxxxxxxx |xxxxxxxxxxxxx |xxxxxxxxxxxxx |xxxxxxxxxxxxx |        65605 |        65605 |        65605 |xxxxxxxxxxxxx |xxxxxxxxxxxxx |xxxxxxxxxxxxx |xxxxxxxxxxxxx |       131141 |       131141 |       131141 |xxxxxxxxxxxxx |xxxxxxxxxxxxx |xxxxxxxxxxxxx |xxxxxxxxxxxxx |       262213 |       262213 |       262213 |xxxxxxxxxxxxx |xxxxxxxxxxxxx |xxxxxxxxxxxxx |xxxxxxxxxxxxx |       524357 |       524357 |       524357 |xxxxxxxxxxxxx |xxxxxxxxxxxxx |xxxxxxxxxxxxx |xxxxxxxxxxxxx |      1048648 |      1048648 |      1048648 |xxxxxxxxxxxxx |xxxxxxxxxxxxx |xxxxxxxxxxxxx |xxxxxxxxxxxxx |      2097224 |      2097224 |      2097224 |xxxxxxxxxxxxx |xxxxxxxxxxxxx |xxxxxxxxxxxxx |xxxxxxxxxxxxx |      4194376 |      4194376 |      4194376 |
bpred_bimod.ras_rate.PP                     1.0000 |       1.0000 |       1.0000 |xxxxxxxxxxxxx |xxxxxxxxxxxxx |xxxxxxxxxxxxx |xxxxxxxxxxxxx |       0.9999 |       0.9999 |       0.9999 |xxxxxxxxxxxxx |xxxxxxxxxxxxx |xxxxxxxxxxxxx |xxxxxxxxxxxxx |       0.9999 |       0.9999 |       0.9999 |xxxxxxxxxxxxx |xxxxxxxxxxxxx |xxxxxxxxxxxxx |xxxxxxxxxxxxx |       1.0000 |       1.0000 |       1.0000 |xxxxxxxxxxxxx |xxxxxxxxxxxxx |xxxxxxxxxxxxx |xxxxxxxxxxxxx |       1.0000 |       1.0000 |       1.0000 |xxxxxxxxxxxxx |xxxxxxxxxxxxx |xxxxxxxxxxxxx |xxxxxxxxxxxxx |       1.0000 |       1.0000 |       1.0000 |xxxxxxxxxxxxx |xxxxxxxxxxxxx |xxxxxxxxxxxxx |xxxxxxxxxxxxx |       1.0000 |       1.0000 |       1.0000 |xxxxxxxxxxxxx |xxxxxxxxxxxxx |xxxxxxxxxxxxx |xxxxxxxxxxxxx |       1.0000 |       1.0000 |       1.0000 |xxxxxxxxxxxxx |xxxxxxxxxxxxx |xxxxxxxxxxxxx |xxxxxxxxxxxxx |       1.0000 |       1.0000 |       1.0000 |xxxxxxxxxxxxx |xxxxxxxxxxxxx |xxxxxxxxxxxxx |xxxxxxxxxxxxx |       1.0000 |       1.0000 |       1.0000 |xxxxxxxxxxxxx |xxxxxxxxxxxxx |xxxxxxxxxxxxx |xxxxxxxxxxxxx |       1.0000 |       1.0000 |       1.0000 |
bpred_2lev.lookups                   xxxxxxxxxxxxx |xxxxxxxxxxxxx |xxxxxxxxxxxxx |       155352 |       155352 |       155352 |       155352 |xxxxxxxxxxxxx |xxxxxxxxxxxxx |xxxxxxxxxxxxx |       333724 |       333724 |       333724 |       333724 |xxxxxxxxxxxxx |xxxxxxxxxxxxx |xxxxxxxxxxxxx |       715786 |       715786 |       715786 |       715786 |xxxxxxxxxxxxx |xxxxxxxxxxxxx |xxxxxxxxxxxxx |      1527470 |      1527470 |      1527470 |      1527470 |xxxxxxxxxxxxx |xxxxxxxxxxxxx |xxxxxxxxxxxxx |      3252609 |      3252609 |      3252609 |      3252609 |xxxxxxxxxxxxx |xxxxxxxxxxxxx |xxxxxxxxxxxxx |      6893363 |      6893363 |      6893363 |      6893363 |xxxxxxxxxxxxx |xxxxxxxxxxxxx |xxxxxxxxxxxxx |     14579769 |     14579769 |     14579769 |     14579769 |xxxxxxxxxxxxx |xxxxxxxxxxxxx |xxxxxxxxxxxxx |     30713986 |     30713986 |     30713986 |     30713986 |xxxxxxxxxxxxx |xxxxxxxxxxxxx |xxxxxxxxxxxxx |     64603797 |     64603797 |     64603797 |     64603797 |xxxxxxxxxxxxx |xxxxxxxxxxxxx |xxxxxxxxxxxxx |    135424110 |    135424110 |    135424110 |    135424110 |xxxxxxxxxxxxx |xxxxxxxxxxxxx |xxxxxxxxxxxxx |    283577229 |    283577229 |    283577229 |    283577229 |
[...]
bpred_2lev.retstack_pushes           xxxxxxxxxxxxx |xxxxxxxxxxxxx |xxxxxxxxxxxxx |         4159 |         4159 |         4159 |         4159 |xxxxxxxxxxxxx |xxxxxxxxxxxxx |xxxxxxxxxxxxx |         8264 |         8264 |         8264 |         8264 |xxxxxxxxxxxxx |xxxxxxxxxxxxx |xxxxxxxxxxxxx |        16456 |        16456 |        16456 |        16456 |xxxxxxxxxxxxx |xxxxxxxxxxxxx |xxxxxxxxxxxxx |        32840 |        32840 |        32840 |        32840 |xxxxxxxxxxxxx |xxxxxxxxxxxxx |xxxxxxxxxxxxx |        65608 |        65608 |        65608 |        65608 |xxxxxxxxxxxxx |xxxxxxxxxxxxx |xxxxxxxxxxxxx |       131144 |       131144 |       131144 |       131144 |xxxxxxxxxxxxx |xxxxxxxxxxxxx |xxxxxxxxxxxxx |       262216 |       262216 |       262216 |       262216 |xxxxxxxxxxxxx |xxxxxxxxxxxxx |xxxxxxxxxxxxx |       524360 |       524360 |       524360 |       524360 |xxxxxxxxxxxxx |xxxxxxxxxxxxx |xxxxxxxxxxxxx |      1048650 |      1048650 |      1048650 |      1048650 |xxxxxxxxxxxxx |xxxxxxxxxxxxx |xxxxxxxxxxxxx |      2097226 |      2097226 |      2097226 |      2097226 |xxxxxxxxxxxxx |xxxxxxxxxxxxx |xxxxxxxxxxxxx |      4194378 |      4194378 |      4194378 |      4194378 |
bpred_2lev.retstack_pops             xxxxxxxxxxxxx |xxxxxxxxxxxxx |xxxxxxxxxxxxx |         4157 |         4157 |         4157 |         4157 |xxxxxxxxxxxxx |xxxxxxxxxxxxx |xxxxxxxxxxxxx |         8262 |         8262 |         8262 |         8262 |xxxxxxxxxxxxx |xxxxxxxxxxxxx |xxxxxxxxxxxxx |        16454 |        16454 |        16454 |        16454 |xxxxxxxxxxxxx |xxxxxxxxxxxxx |xxxxxxxxxxxxx |        32838 |        32838 |        32838 |        32838 |xxxxxxxxxxxxx |xxxxxxxxxxxxx |xxxxxxxxxxxxx |        65606 |        65606 |        65606 |        65606 |xxxxxxxxxxxxx |xxxxxxxxxxxxx |xxxxxxxxxxxxx |       131142 |       131142 |       131142 |       131142 |xxxxxxxxxxxxx |xxxxxxxxxxxxx |xxxxxxxxxxxxx |       262214 |       262214 |       262214 |       262214 |xxxxxxxxxxxxx |xxxxxxxxxxxxx |xxxxxxxxxxxxx |       524358 |       524358 |       524358 |       524358 |xxxxxxxxxxxxx |xxxxxxxxxxxxx |xxxxxxxxxxxxx |      1048648 |      1048648 |      1048648 |      1048648 |xxxxxxxxxxxxx |xxxxxxxxxxxxx |xxxxxxxxxxxxx |      2097224 |      2097224 |      2097224 |      2097224 |xxxxxxxxxxxxx |xxxxxxxxxxxxx |xxxxxxxxxxxxx |      4194376 |      4194376 |      4194376 |      4194376 |
bpred_2lev.used_ras.PP               xxxxxxxxxxxxx |xxxxxxxxxxxxx |xxxxxxxxxxxxx |         4157 |         4157 |         4157 |         4157 |xxxxxxxxxxxxx |xxxxxxxxxxxxx |xxxxxxxxxxxxx |         8262 |         8262 |         8262 |         8262 |xxxxxxxxxxxxx |xxxxxxxxxxxxx |xxxxxxxxxxxxx |        16454 |        16454 |        16454 |        16454 |xxxxxxxxxxxxx |xxxxxxxxxxxxx |xxxxxxxxxxxxx |        32838 |        32838 |        32838 |        32838 |xxxxxxxxxxxxx |xxxxxxxxxxxxx |xxxxxxxxxxxxx |        65606 |        65606 |        65606 |        65606 |xxxxxxxxxxxxx |xxxxxxxxxxxxx |xxxxxxxxxxxxx |       131142 |       131142 |       131142 |       131142 |xxxxxxxxxxxxx |xxxxxxxxxxxxx |xxxxxxxxxxxxx |       262214 |       262214 |       262214 |       262214 |xxxxxxxxxxxxx |xxxxxxxxxxxxx |xxxxxxxxxxxxx |       524358 |       524358 |       524358 |       524358 |xxxxxxxxxxxxx |xxxxxxxxxxxxx |xxxxxxxxxxxxx |      1048648 |      1048648 |      1048648 |      1048648 |xxxxxxxxxxxxx |xxxxxxxxxxxxx |xxxxxxxxxxxxx |      2097224 |      2097224 |      2097224 |      2097224 |xxxxxxxxxxxxx |xxxxxxxxxxxxx |xxxxxxxxxxxxx |      4194376 |      4194376 |      4194376 |      4194376 |
bpred_2lev.ras_hits.PP               xxxxxxxxxxxxx |xxxxxxxxxxxxx |xxxxxxxxxxxxx |         4157 |         4157 |         4157 |         4157 |xxxxxxxxxxxxx |xxxxxxxxxxxxx |xxxxxxxxxxxxx |         8261 |         8261 |         8261 |         8261 |xxxxxxxxxxxxx |xxxxxxxxxxxxx |xxxxxxxxxxxxx |        16453 |        16453 |        16453 |        16453 |xxxxxxxxxxxxx |xxxxxxxxxxxxx |xxxxxxxxxxxxx |        32837 |        32837 |        32837 |        32837 |xxxxxxxxxxxxx |xxxxxxxxxxxxx |xxxxxxxxxxxxx |        65605 |        65605 |        65605 |        65605 |xxxxxxxxxxxxx |xxxxxxxxxxxxx |xxxxxxxxxxxxx |       131141 |       131141 |       131141 |       131141 |xxxxxxxxxxxxx |xxxxxxxxxxxxx |xxxxxxxxxxxxx |       262213 |       262213 |       262213 |       262213 |xxxxxxxxxxxxx |xxxxxxxxxxxxx |xxxxxxxxxxxxx |       524357 |       524357 |       524357 |       524357 |xxxxxxxxxxxxx |xxxxxxxxxxxxx |xxxxxxxxxxxxx |      1048648 |      1048648 |      1048648 |      1048648 |xxxxxxxxxxxxx |xxxxxxxxxxxxx |xxxxxxxxxxxxx |      2097224 |      2097224 |      2097224 |      2097224 |xxxxxxxxxxxxx |xxxxxxxxxxxxx |xxxxxxxxxxxxx |      4194376 |      4194376 |      4194376 |      4194376 |
bpred_2lev.ras_rate.PP               xxxxxxxxxxxxx |xxxxxxxxxxxxx |xxxxxxxxxxxxx |       1.0000 |       1.0000 |       1.0000 |       1.0000 |xxxxxxxxxxxxx |xxxxxxxxxxxxx |xxxxxxxxxxxxx |       0.9999 |       0.9999 |       0.9999 |       0.9999 |xxxxxxxxxxxxx |xxxxxxxxxxxxx |xxxxxxxxxxxxx |       0.9999 |       0.9999 |       0.9999 |       0.9999 |xxxxxxxxxxxxx |xxxxxxxxxxxxx |xxxxxxxxxxxxx |       1.0000 |       1.0000 |       1.0000 |       1.0000 |xxxxxxxxxxxxx |xxxxxxxxxxxxx |xxxxxxxxxxxxx |       1.0000 |       1.0000 |       1.0000 |       1.0000 |xxxxxxxxxxxxx |xxxxxxxxxxxxx |xxxxxxxxxxxxx |       1.0000 |       1.0000 |       1.0000 |       1.0000 |xxxxxxxxxxxxx |xxxxxxxxxxxxx |xxxxxxxxxxxxx |       1.0000 |       1.0000 |       1.0000 |       1.0000 |xxxxxxxxxxxxx |xxxxxxxxxxxxx |xxxxxxxxxxxxx |       1.0000 |       1.0000 |       1.0000 |       1.0000 |xxxxxxxxxxxxx |xxxxxxxxxxxxx |xxxxxxxxxxxxx |       1.0000 |       1.0000 |       1.0000 |       1.0000 |xxxxxxxxxxxxx |xxxxxxxxxxxxx |xxxxxxxxxxxxx |       1.0000 |       1.0000 |       1.0000 |       1.0000 |xxxxxxxxxxxxx |xxxxxxxxxxxxx |xxxxxxxxxxxxx |       1.0000 |       1.0000 |       1.0000 |       1.0000 |

Command list: 
	sslittle-na-sstrix-gcc -Wall -O3 -funroll-loops -finline-functions  -DRANDOM_SIZE=4096 -DOFFSET=9 -DSORT=cache4_heapsort sorts/cache4_heapsort1582902095.c simpleMain.c -o cache4_heapsort351422404
	sim-cache -cache:dl1 dl1:256:32:1:l -cache:dl2 dl2:131072:32:1:l -cache:il1 il1:256:32:1:l -cache:il2 dl2 cache4_heapsort351422404
	sim-cache -cache:dl1 dl1:256:32:1:l -cache:dl2 dl2:65536:32:1:l -cache:il1 il1:256:32:1:l -cache:il2 dl2 cache4_heapsort351422404
	sim-cache -cache:dl1 dl1:1:32:256:l -cache:dl2 dl2:1:32:131072:l -cache:il1 il1:1:32:256:l -cache:il2 dl2 cache4_heapsort351422404
	sim-cache -cache:dl1 dl1:1:32:256:l -cache:dl2 dl2:1:32:65536:l -cache:il1 il1:1:32:256:l -cache:il2 dl2 cache4_heapsort351422404
	sim-bpred -bpred bimod -bpred:bimod 512 cache4_heapsort351422404
	sim-bpred -bpred bimod -bpred:bimod 1024 cache4_heapsort351422404
	sim-bpred -bpred bimod -bpred:bimod 2048 cache4_heapsort351422404
	sim-bpred -bpred 2lev -bpred:2lev 1 512 10 1 cache4_heapsort351422404
	sim-bpred -bpred 2lev -bpred:2lev 1 1024 10 1 cache4_heapsort351422404
	sim-bpred -bpred 2lev -bpred:2lev 1 2048 10 1 cache4_heapsort351422404
	sim-bpred -bpred 2lev -bpred:2lev 1 4096 10 1 cache4_heapsort351422404
	sslittle-na-sstrix-gcc -Wall -O3 -funroll-loops -finline-functions  -DRANDOM_SIZE=8192 -DOFFSET=9 -DSORT=cache4_heapsort sorts/cache4_heapsort1582902095.c simpleMain.c -o cache4_heapsort351422404
	sim-cache -cache:dl1 dl1:256:32:1:l -cache:dl2 dl2:131072:32:1:l -cache:il1 il1:256:32:1:l -cache:il2 dl2 cache4_heapsort351422404
	sim-cache -cache:dl1 dl1:256:32:1:l -cache:dl2 dl2:65536:32:1:l -cache:il1 il1:256:32:1:l -cache:il2 dl2 cache4_heapsort351422404
	sim-cache -cache:dl1 dl1:1:32:256:l -cache:dl2 dl2:1:32:131072:l -cache:il1 il1:1:32:256:l -cache:il2 dl2 cache4_heapsort351422404
	sim-cache -cache:dl1 dl1:1:32:256:l -cache:dl2 dl2:1:32:65536:l -cache:il1 il1:1:32:256:l -cache:il2 dl2 cache4_heapsort351422404
	sim-bpred -bpred bimod -bpred:bimod 512 cache4_heapsort351422404
	sim-bpred -bpred bimod -bpred:bimod 1024 cache4_heapsort351422404
	sim-bpred -bpred bimod -bpred:bimod 2048 cache4_heapsort351422404
	sim-bpred -bpred 2lev -bpred:2lev 1 512 10 1 cache4_heapsort351422404
	sim-bpred -bpred 2lev -bpred:2lev 1 1024 10 1 cache4_heapsort351422404
	sim-bpred -bpred 2lev -bpred:2lev 1 2048 10 1 cache4_heapsort351422404
	sim-bpred -bpred 2lev -bpred:2lev 1 4096 10 1 cache4_heapsort351422404
	sslittle-na-sstrix-gcc -Wall -O3 -funroll-loops -finline-functions  -DRANDOM_SIZE=16384 -DOFFSET=9 -DSORT=cache4_heapsort sorts/cache4_heapsort1582902095.c simpleMain.c -o cache4_heapsort351422404
	sim-cache -cache:dl1 dl1:256:32:1:l -cache:dl2 dl2:131072:32:1:l -cache:il1 il1:256:32:1:l -cache:il2 dl2 cache4_heapsort351422404
	sim-cache -cache:dl1 dl1:256:32:1:l -cache:dl2 dl2:65536:32:1:l -cache:il1 il1:256:32:1:l -cache:il2 dl2 cache4_heapsort351422404
	sim-cache -cache:dl1 dl1:1:32:256:l -cache:dl2 dl2:1:32:131072:l -cache:il1 il1:1:32:256:l -cache:il2 dl2 cache4_heapsort351422404
	sim-cache -cache:dl1 dl1:1:32:256:l -cache:dl2 dl2:1:32:65536:l -cache:il1 il1:1:32:256:l -cache:il2 dl2 cache4_heapsort351422404
	sim-bpred -bpred bimod -bpred:bimod 512 cache4_heapsort351422404
	sim-bpred -bpred bimod -bpred:bimod 1024 cache4_heapsort351422404
	sim-bpred -bpred bimod -bpred:bimod 2048 cache4_heapsort351422404
	sim-bpred -bpred 2lev -bpred:2lev 1 512 10 1 cache4_heapsort351422404
	sim-bpred -bpred 2lev -bpred:2lev 1 1024 10 1 cache4_heapsort351422404
	sim-bpred -bpred 2lev -bpred:2lev 1 2048 10 1 cache4_heapsort351422404
	sim-bpred -bpred 2lev -bpred:2lev 1 4096 10 1 cache4_heapsort351422404
	sslittle-na-sstrix-gcc -Wall -O3 -funroll-loops -finline-functions  -DRANDOM_SIZE=32768 -DOFFSET=9 -DSORT=cache4_heapsort sorts/cache4_heapsort1582902095.c simpleMain.c -o cache4_heapsort351422404
	sim-cache -cache:dl1 dl1:256:32:1:l -cache:dl2 dl2:131072:32:1:l -cache:il1 il1:256:32:1:l -cache:il2 dl2 cache4_heapsort351422404
	sim-cache -cache:dl1 dl1:256:32:1:l -cache:dl2 dl2:65536:32:1:l -cache:il1 il1:256:32:1:l -cache:il2 dl2 cache4_heapsort351422404
	sim-cache -cache:dl1 dl1:1:32:256:l -cache:dl2 dl2:1:32:131072:l -cache:il1 il1:1:32:256:l -cache:il2 dl2 cache4_heapsort351422404
	sim-cache -cache:dl1 dl1:1:32:256:l -cache:dl2 dl2:1:32:65536:l -cache:il1 il1:1:32:256:l -cache:il2 dl2 cache4_heapsort351422404
	sim-bpred -bpred bimod -bpred:bimod 512 cache4_heapsort351422404
	sim-bpred -bpred bimod -bpred:bimod 1024 cache4_heapsort351422404
	sim-bpred -bpred bimod -bpred:bimod 2048 cache4_heapsort351422404
	sim-bpred -bpred 2lev -bpred:2lev 1 512 10 1 cache4_heapsort351422404
	sim-bpred -bpred 2lev -bpred:2lev 1 1024 10 1 cache4_heapsort351422404
	sim-bpred -bpred 2lev -bpred:2lev 1 2048 10 1 cache4_heapsort351422404
	sim-bpred -bpred 2lev -bpred:2lev 1 4096 10 1 cache4_heapsort351422404
	sslittle-na-sstrix-gcc -Wall -O3 -funroll-loops -finline-functions  -DRANDOM_SIZE=65536 -DOFFSET=9 -DSORT=cache4_heapsort sorts/cache4_heapsort1582902095.c simpleMain.c -o cache4_heapsort351422404
	sim-cache -cache:dl1 dl1:256:32:1:l -cache:dl2 dl2:131072:32:1:l -cache:il1 il1:256:32:1:l -cache:il2 dl2 cache4_heapsort351422404
	sim-cache -cache:dl1 dl1:256:32:1:l -cache:dl2 dl2:65536:32:1:l -cache:il1 il1:256:32:1:l -cache:il2 dl2 cache4_heapsort351422404
	sim-cache -cache:dl1 dl1:1:32:256:l -cache:dl2 dl2:1:32:131072:l -cache:il1 il1:1:32:256:l -cache:il2 dl2 cache4_heapsort351422404
	sim-cache -cache:dl1 dl1:1:32:256:l -cache:dl2 dl2:1:32:65536:l -cache:il1 il1:1:32:256:l -cache:il2 dl2 cache4_heapsort351422404
	sim-bpred -bpred bimod -bpred:bimod 512 cache4_heapsort351422404
	sim-bpred -bpred bimod -bpred:bimod 1024 cache4_heapsort351422404
	sim-bpred -bpred bimod -bpred:bimod 2048 cache4_heapsort351422404
	sim-bpred -bpred 2lev -bpred:2lev 1 512 10 1 cache4_heapsort351422404
	sim-bpred -bpred 2lev -bpred:2lev 1 1024 10 1 cache4_heapsort351422404
	sim-bpred -bpred 2lev -bpred:2lev 1 2048 10 1 cache4_heapsort351422404
	sim-bpred -bpred 2lev -bpred:2lev 1 4096 10 1 cache4_heapsort351422404
	sslittle-na-sstrix-gcc -Wall -O3 -funroll-loops -finline-functions  -DRANDOM_SIZE=131072 -DOFFSET=9 -DSORT=cache4_heapsort sorts/cache4_heapsort1582902095.c simpleMain.c -o cache4_heapsort351422404
	sim-cache -cache:dl1 dl1:256:32:1:l -cache:dl2 dl2:131072:32:1:l -cache:il1 il1:256:32:1:l -cache:il2 dl2 cache4_heapsort351422404
	sim-cache -cache:dl1 dl1:256:32:1:l -cache:dl2 dl2:65536:32:1:l -cache:il1 il1:256:32:1:l -cache:il2 dl2 cache4_heapsort351422404
	sim-cache -cache:dl1 dl1:1:32:256:l -cache:dl2 dl2:1:32:131072:l -cache:il1 il1:1:32:256:l -cache:il2 dl2 cache4_heapsort351422404
	sim-cache -cache:dl1 dl1:1:32:256:l -cache:dl2 dl2:1:32:65536:l -cache:il1 il1:1:32:256:l -cache:il2 dl2 cache4_heapsort351422404
	sim-bpred -bpred bimod -bpred:bimod 512 cache4_heapsort351422404
	sim-bpred -bpred bimod -bpred:bimod 1024 cache4_heapsort351422404
	sim-bpred -bpred bimod -bpred:bimod 2048 cache4_heapsort351422404
	sim-bpred -bpred 2lev -bpred:2lev 1 512 10 1 cache4_heapsort351422404
	sim-bpred -bpred 2lev -bpred:2lev 1 1024 10 1 cache4_heapsort351422404
	sim-bpred -bpred 2lev -bpred:2lev 1 2048 10 1 cache4_heapsort351422404
	sim-bpred -bpred 2lev -bpred:2lev 1 4096 10 1 cache4_heapsort351422404
	sslittle-na-sstrix-gcc -Wall -O3 -funroll-loops -finline-functions  -DRANDOM_SIZE=262144 -DOFFSET=9 -DSORT=cache4_heapsort sorts/cache4_heapsort1582902095.c simpleMain.c -o cache4_heapsort351422404
	sim-cache -cache:dl1 dl1:256:32:1:l -cache:dl2 dl2:131072:32:1:l -cache:il1 il1:256:32:1:l -cache:il2 dl2 cache4_heapsort351422404
	sim-cache -cache:dl1 dl1:256:32:1:l -cache:dl2 dl2:65536:32:1:l -cache:il1 il1:256:32:1:l -cache:il2 dl2 cache4_heapsort351422404
	sim-cache -cache:dl1 dl1:1:32:256:l -cache:dl2 dl2:1:32:131072:l -cache:il1 il1:1:32:256:l -cache:il2 dl2 cache4_heapsort351422404
	sim-cache -cache:dl1 dl1:1:32:256:l -cache:dl2 dl2:1:32:65536:l -cache:il1 il1:1:32:256:l -cache:il2 dl2 cache4_heapsort351422404
	sim-bpred -bpred bimod -bpred:bimod 512 cache4_heapsort351422404
	sim-bpred -bpred bimod -bpred:bimod 1024 cache4_heapsort351422404
	sim-bpred -bpred bimod -bpred:bimod 2048 cache4_heapsort351422404
	sim-bpred -bpred 2lev -bpred:2lev 1 512 10 1 cache4_heapsort351422404
	sim-bpred -bpred 2lev -bpred:2lev 1 1024 10 1 cache4_heapsort351422404
	sim-bpred -bpred 2lev -bpred:2lev 1 2048 10 1 cache4_heapsort351422404
	sim-bpred -bpred 2lev -bpred:2lev 1 4096 10 1 cache4_heapsort351422404
	sslittle-na-sstrix-gcc -Wall -O3 -funroll-loops -finline-functions  -DRANDOM_SIZE=524288 -DOFFSET=9 -DSORT=cache4_heapsort sorts/cache4_heapsort1582902095.c simpleMain.c -o cache4_heapsort351422404
	sim-cache -cache:dl1 dl1:256:32:1:l -cache:dl2 dl2:131072:32:1:l -cache:il1 il1:256:32:1:l -cache:il2 dl2 cache4_heapsort351422404
	sim-cache -cache:dl1 dl1:256:32:1:l -cache:dl2 dl2:65536:32:1:l -cache:il1 il1:256:32:1:l -cache:il2 dl2 cache4_heapsort351422404
	sim-cache -cache:dl1 dl1:1:32:256:l -cache:dl2 dl2:1:32:131072:l -cache:il1 il1:1:32:256:l -cache:il2 dl2 cache4_heapsort351422404
	sim-cache -cache:dl1 dl1:1:32:256:l -cache:dl2 dl2:1:32:65536:l -cache:il1 il1:1:32:256:l -cache:il2 dl2 cache4_heapsort351422404
	sim-bpred -bpred bimod -bpred:bimod 512 cache4_heapsort351422404
	sim-bpred -bpred bimod -bpred:bimod 1024 cache4_heapsort351422404
	sim-bpred -bpred bimod -bpred:bimod 2048 cache4_heapsort351422404
	sim-bpred -bpred 2lev -bpred:2lev 1 512 10 1 cache4_heapsort351422404
	sim-bpred -bpred 2lev -bpred:2lev 1 1024 10 1 cache4_heapsort351422404
	sim-bpred -bpred 2lev -bpred:2lev 1 2048 10 1 cache4_heapsort351422404
	sim-bpred -bpred 2lev -bpred:2lev 1 4096 10 1 cache4_heapsort351422404
	sslittle-na-sstrix-gcc -Wall -O3 -funroll-loops -finline-functions  -DRANDOM_SIZE=1048576 -DOFFSET=9 -DSORT=cache4_heapsort sorts/cache4_heapsort1582902095.c simpleMain.c -o cache4_heapsort351422404
	sim-cache -cache:dl1 dl1:256:32:1:l -cache:dl2 dl2:131072:32:1:l -cache:il1 il1:256:32:1:l -cache:il2 dl2 cache4_heapsort351422404
	sim-cache -cache:dl1 dl1:256:32:1:l -cache:dl2 dl2:65536:32:1:l -cache:il1 il1:256:32:1:l -cache:il2 dl2 cache4_heapsort351422404
	sim-cache -cache:dl1 dl1:1:32:256:l -cache:dl2 dl2:1:32:131072:l -cache:il1 il1:1:32:256:l -cache:il2 dl2 cache4_heapsort351422404
	sim-cache -cache:dl1 dl1:1:32:256:l -cache:dl2 dl2:1:32:65536:l -cache:il1 il1:1:32:256:l -cache:il2 dl2 cache4_heapsort351422404
	sim-bpred -bpred bimod -bpred:bimod 512 cache4_heapsort351422404
	sim-bpred -bpred bimod -bpred:bimod 1024 cache4_heapsort351422404
	sim-bpred -bpred bimod -bpred:bimod 2048 cache4_heapsort351422404
	sim-bpred -bpred 2lev -bpred:2lev 1 512 10 1 cache4_heapsort351422404
	sim-bpred -bpred 2lev -bpred:2lev 1 1024 10 1 cache4_heapsort351422404
	sim-bpred -bpred 2lev -bpred:2lev 1 2048 10 1 cache4_heapsort351422404
	sim-bpred -bpred 2lev -bpred:2lev 1 4096 10 1 cache4_heapsort351422404
	sslittle-na-sstrix-gcc -Wall -O3 -funroll-loops -finline-functions  -DRANDOM_SIZE=2097152 -DOFFSET=9 -DSORT=cache4_heapsort sorts/cache4_heapsort1582902095.c simpleMain.c -o cache4_heapsort351422404
	sim-cache -cache:dl1 dl1:256:32:1:l -cache:dl2 dl2:131072:32:1:l -cache:il1 il1:256:32:1:l -cache:il2 dl2 cache4_heapsort351422404
	sim-cache -cache:dl1 dl1:256:32:1:l -cache:dl2 dl2:65536:32:1:l -cache:il1 il1:256:32:1:l -cache:il2 dl2 cache4_heapsort351422404
	sim-cache -cache:dl1 dl1:1:32:256:l -cache:dl2 dl2:1:32:131072:l -cache:il1 il1:1:32:256:l -cache:il2 dl2 cache4_heapsort351422404
	sim-cache -cache:dl1 dl1:1:32:256:l -cache:dl2 dl2:1:32:65536:l -cache:il1 il1:1:32:256:l -cache:il2 dl2 cache4_heapsort351422404
	sim-bpred -bpred bimod -bpred:bimod 512 cache4_heapsort351422404
	sim-bpred -bpred bimod -bpred:bimod 1024 cache4_heapsort351422404
	sim-bpred -bpred bimod -bpred:bimod 2048 cache4_heapsort351422404
	sim-bpred -bpred 2lev -bpred:2lev 1 512 10 1 cache4_heapsort351422404
	sim-bpred -bpred 2lev -bpred:2lev 1 1024 10 1 cache4_heapsort351422404
	sim-bpred -bpred 2lev -bpred:2lev 1 2048 10 1 cache4_heapsort351422404
	sim-bpred -bpred 2lev -bpred:2lev 1 4096 10 1 cache4_heapsort351422404
	sslittle-na-sstrix-gcc -Wall -O3 -funroll-loops -finline-functions  -DRANDOM_SIZE=4194304 -DOFFSET=9 -DSORT=cache4_heapsort sorts/cache4_heapsort1582902095.c simpleMain.c -o cache4_heapsort351422404
	sim-cache -cache:dl1 dl1:256:32:1:l -cache:dl2 dl2:131072:32:1:l -cache:il1 il1:256:32:1:l -cache:il2 dl2 cache4_heapsort351422404
	sim-cache -cache:dl1 dl1:256:32:1:l -cache:dl2 dl2:65536:32:1:l -cache:il1 il1:256:32:1:l -cache:il2 dl2 cache4_heapsort351422404
	sim-cache -cache:dl1 dl1:1:32:256:l -cache:dl2 dl2:1:32:131072:l -cache:il1 il1:1:32:256:l -cache:il2 dl2 cache4_heapsort351422404
	sim-cache -cache:dl1 dl1:1:32:256:l -cache:dl2 dl2:1:32:65536:l -cache:il1 il1:1:32:256:l -cache:il2 dl2 cache4_heapsort351422404
	sim-bpred -bpred bimod -bpred:bimod 512 cache4_heapsort351422404
	sim-bpred -bpred bimod -bpred:bimod 1024 cache4_heapsort351422404
	sim-bpred -bpred bimod -bpred:bimod 2048 cache4_heapsort351422404
	sim-bpred -bpred 2lev -bpred:2lev 1 512 10 1 cache4_heapsort351422404
	sim-bpred -bpred 2lev -bpred:2lev 1 1024 10 1 cache4_heapsort351422404
	sim-bpred -bpred 2lev -bpred:2lev 1 2048 10 1 cache4_heapsort351422404
	sim-bpred -bpred 2lev -bpred:2lev 1 4096 10 1 cache4_heapsort351422404
