Thu Jul  7 14:01:18 2005
Run as: "./do_simple -c random.org4 -o 4 cache_heapsort"
-------------------------------------------------------------------------------------------------
sim-cache                                     4096 |         4096 |         4096 |         4096 |         8192 |         8192 |         8192 |         8192 |        16384 |        16384 |        16384 |        16384 |        32768 |        32768 |        32768 |        32768 |        65536 |        65536 |        65536 |        65536 |       131072 |       131072 |       131072 |       131072 |       262144 |       262144 |       262144 |       262144 |       524288 |       524288 |       524288 |       524288 |      1048576 |      1048576 |      1048576 |      1048576 |      2097152 |      2097152 |      2097152 |      2097152 |      4194304 |      4194304 |      4194304 |      4194304 |
-cache:dl1 dl1:256:32:1:l -cache:dl2 dl2:131072:32:1:l -cache:il1 il1:256:32:1:l -cache:il2 dl2
-cache:dl1 dl1:256:32:1:l -cache:dl2 dl2:65536:32:1:l -cache:il1 il1:256:32:1:l -cache:il2 dl2
-cache:dl1 dl1:1:32:256:l -cache:dl2 dl2:1:32:131072:l -cache:il1 il1:1:32:256:l -cache:il2 dl2
-cache:dl1 dl1:1:32:256:l -cache:dl2 dl2:1:32:65536:l -cache:il1 il1:1:32:256:l -cache:il2 dl2
-------------------------------------------------------------------------------------------------
sim_num_insn                               1018415 |      1018415 |      1018415 |      1018415 |      2190594 |      2190594 |      2190594 |      2190594 |      4726800 |      4726800 |      4726800 |      4726800 |     10007983 |     10007983 |     10007983 |     10007983 |     21302045 |     21302045 |     21302045 |     21302045 |     45464305 |     45464305 |     45464305 |     45464305 |     95385180 |     95385180 |     95385180 |     95385180 |    201141089 |    201141089 |    201141089 |    201141089 |    425235795 |    425235795 |    425235795 |    425235795 |    886169080 |    886169080 |    886169080 |    886169080 |   1855393419 |   1855393419 |   1855393419 |   1855393419 |
sim_num_refs                                280209 |       280209 |       280209 |       280209 |       600702 |       600702 |       600702 |       600702 |      1294283 |      1294283 |      1294283 |      1294283 |      2735185 |      2735185 |      2735185 |      2735185 |      5822024 |      5822024 |      5822024 |      5822024 |     12423828 |     12423828 |     12423828 |     12423828 |     26040552 |     26040552 |     26040552 |     26040552 |     54931927 |     54931927 |     54931927 |     54931927 |    116146927 |    116146927 |    116146927 |    116146927 |    241864678 |    241864678 |    241864678 |    241864678 |    506576631 |    506576631 |    506576631 |    506576631 |
sim_elapsed_time                                 1 |            1 |           10 |            5 |            1 |            1 |           16 |            8 |            2 |            1 |           27 |           13 |            3 |            3 |           49 |           25 |            7 |            6 |           90 |           46 |           14 |           13 |          172 |           90 |           27 |           36 |          318 |          116 |           58 |           57 |          433 |          182 |          122 |          122 |          478 |          220 |          255 |          259 |          630 |          366 |          532 |          541 |          949 |          683 |
sim_inst_rate                         1018415.0000 | 1018415.0000 |  101841.5000 |  203683.0000 | 2190594.0000 | 2190594.0000 |  136912.1250 |  273824.2500 | 2363400.0000 | 4726800.0000 |  175066.6667 |  363600.0000 | 3335994.3333 | 3335994.3333 |  204244.5510 |  400319.3200 | 3043149.2857 | 3550340.8333 |  236689.3889 |  463087.9348 | 3247450.3571 | 3497254.2308 |  264327.3547 |  505158.9444 | 3532784.4444 | 2649588.3333 |  299953.3962 |  822286.0345 | 3467949.8103 | 3528791.0351 |  464529.0739 | 1105170.8187 | 3485539.3033 | 3485539.3033 |  889614.6339 | 1932889.9773 | 3475172.8627 | 3421502.2394 | 1406617.5873 | 2421226.9945 | 3487581.6147 | 3429562.6969 | 1955103.7081 | 2716535.0205 |
il1.accesses                               1018415 |      1018415 |      1018415 |      1018415 |      2190594 |      2190594 |      2190594 |      2190594 |      4726800 |      4726800 |      4726800 |      4726800 |     10007983 |     10007983 |     10007983 |     10007983 |     21302045 |     21302045 |     21302045 |     21302045 |     45464305 |     45464305 |     45464305 |     45464305 |     95385180 |     95385180 |     95385180 |     95385180 |    201141089 |    201141089 |    201141089 |    201141089 |    425235795 |    425235795 |    425235795 |    425235795 |    886169080 |    886169080 |    886169080 |    886169080 |   1855393419 |   1855393419 |   1855393419 |   1855393419 |
il1.hits                                   1017885 |      1017885 |      1017973 |      1017973 |      2190024 |      2190024 |      2190133 |      2190133 |      4726229 |      4726229 |      4726343 |      4726343 |     10007414 |     10007414 |     10007521 |     10007521 |     21301476 |     21301476 |     21301583 |     21301583 |     45463736 |     45463736 |     45463844 |     45463844 |     95384611 |     95384611 |     95384719 |     95384719 |    201140520 |    201140520 |    201140628 |    201140628 |    425235190 |    425235190 |    425235300 |    425235300 |    886168475 |    886168475 |    886168585 |    886168585 |   1855392814 |   1855392814 |   1855392924 |   1855392924 |
il1.misses                                     530 |          530 |          442 |          442 |          570 |          570 |          461 |          461 |          571 |          571 |          457 |          457 |          569 |          569 |          462 |          462 |          569 |          569 |          462 |          462 |          569 |          569 |          461 |          461 |          569 |          569 |          461 |          461 |          569 |          569 |          461 |          461 |          605 |          605 |          495 |          495 |          605 |          605 |          495 |          495 |          605 |          605 |          495 |          495 |
il1.replacements                               317 |          317 |          186 |          186 |          349 |          349 |          205 |          205 |          350 |          350 |          201 |          201 |          347 |          347 |          206 |          206 |          347 |          347 |          206 |          206 |          347 |          347 |          205 |          205 |          347 |          347 |          205 |          205 |          347 |          347 |          205 |          205 |          388 |          388 |          239 |          239 |          388 |          388 |          239 |          239 |          388 |          388 |          239 |          239 |
il1.writebacks                                   0 |            0 |            0 |            0 |            0 |            0 |            0 |            0 |            0 |            0 |            0 |            0 |            0 |            0 |            0 |            0 |            0 |            0 |            0 |            0 |            0 |            0 |            0 |            0 |            0 |            0 |            0 |            0 |            0 |            0 |            0 |            0 |            0 |            0 |            0 |            0 |            0 |            0 |            0 |            0 |            0 |            0 |            0 |            0 |
il1.invalidations                                0 |            0 |            0 |            0 |            0 |            0 |            0 |            0 |            0 |            0 |            0 |            0 |            0 |            0 |            0 |            0 |            0 |            0 |            0 |            0 |            0 |            0 |            0 |            0 |            0 |            0 |            0 |            0 |            0 |            0 |            0 |            0 |            0 |            0 |            0 |            0 |            0 |            0 |            0 |            0 |            0 |            0 |            0 |            0 |
il1.miss_rate                               0.0005 |       0.0005 |       0.0004 |       0.0004 |       0.0003 |       0.0003 |       0.0002 |       0.0002 |       0.0001 |       0.0001 |       0.0001 |       0.0001 |       0.0001 |       0.0001 |       0.0000 |       0.0000 |       0.0000 |       0.0000 |       0.0000 |       0.0000 |       0.0000 |       0.0000 |       0.0000 |       0.0000 |       0.0000 |       0.0000 |       0.0000 |       0.0000 |       0.0000 |       0.0000 |       0.0000 |       0.0000 |       0.0000 |       0.0000 |       0.0000 |       0.0000 |       0.0000 |       0.0000 |       0.0000 |       0.0000 |       0.0000 |       0.0000 |       0.0000 |       0.0000 |
il1.repl_rate                               0.0003 |       0.0003 |       0.0002 |       0.0002 |       0.0002 |       0.0002 |       0.0001 |       0.0001 |       0.0001 |       0.0001 |       0.0000 |       0.0000 |       0.0000 |       0.0000 |       0.0000 |       0.0000 |       0.0000 |       0.0000 |       0.0000 |       0.0000 |       0.0000 |       0.0000 |       0.0000 |       0.0000 |       0.0000 |       0.0000 |       0.0000 |       0.0000 |       0.0000 |       0.0000 |       0.0000 |       0.0000 |       0.0000 |       0.0000 |       0.0000 |       0.0000 |       0.0000 |       0.0000 |       0.0000 |       0.0000 |       0.0000 |       0.0000 |       0.0000 |       0.0000 |
il1.wb_rate                                 0.0000 |       0.0000 |       0.0000 |       0.0000 |       0.0000 |       0.0000 |       0.0000 |       0.0000 |       0.0000 |       0.0000 |       0.0000 |       0.0000 |       0.0000 |       0.0000 |       0.0000 |       0.0000 |       0.0000 |       0.0000 |       0.0000 |       0.0000 |       0.0000 |       0.0000 |       0.0000 |       0.0000 |       0.0000 |       0.0000 |       0.0000 |       0.0000 |       0.0000 |       0.0000 |       0.0000 |       0.0000 |       0.0000 |       0.0000 |       0.0000 |       0.0000 |       0.0000 |       0.0000 |       0.0000 |       0.0000 |       0.0000 |       0.0000 |       0.0000 |       0.0000 |
il1.inv_rate                                0.0000 |       0.0000 |       0.0000 |       0.0000 |       0.0000 |       0.0000 |       0.0000 |       0.0000 |       0.0000 |       0.0000 |       0.0000 |       0.0000 |       0.0000 |       0.0000 |       0.0000 |       0.0000 |       0.0000 |       0.0000 |       0.0000 |       0.0000 |       0.0000 |       0.0000 |       0.0000 |       0.0000 |       0.0000 |       0.0000 |       0.0000 |       0.0000 |       0.0000 |       0.0000 |       0.0000 |       0.0000 |       0.0000 |       0.0000 |       0.0000 |       0.0000 |       0.0000 |       0.0000 |       0.0000 |       0.0000 |       0.0000 |       0.0000 |       0.0000 |       0.0000 |
dl1.accesses                                296675 |       296675 |       296675 |       296675 |       633552 |       633552 |       633552 |       633552 |      1359901 |      1359901 |      1359901 |      1359901 |      2866339 |      2866339 |      2866339 |      2866339 |      6084250 |      6084250 |      6084250 |      6084250 |     12948198 |     12948198 |     12948198 |     12948198 |     27089210 |     27089210 |     27089210 |     27089210 |     57029161 |     57029161 |     57029161 |     57029161 |    120341313 |    120341313 |    120341313 |    120341313 |    250253368 |    250253368 |    250253368 |    250253368 |    523353929 |    523353929 |    523353929 |    523353929 |
dl1.hits                                    292068 |       292068 |       292683 |       292683 |       621650 |       621650 |       623236 |       623236 |      1330398 |      1330398 |      1333338 |      1333338 |      2793480 |      2793480 |      2800822 |      2800822 |      5910876 |      5910876 |      5927031 |      5927031 |     12551238 |     12551238 |     12582907 |     12582907 |     26184759 |     26184759 |     26256249 |     26256249 |     55009283 |     55009283 |     55159664 |     55159664 |    115902309 |    115902309 |    116208409 |    116208409 |    240532873 |    240532873 |    241187873 |    241187873 |    502305314 |    502305314 |    503663693 |    503663693 |
dl1.misses                                    4607 |         4607 |         3992 |         3992 |        11902 |        11902 |        10316 |        10316 |        29503 |        29503 |        26563 |        26563 |        72859 |        72859 |        65517 |        65517 |       173374 |       173374 |       157219 |       157219 |       396960 |       396960 |       365291 |       365291 |       904451 |       904451 |       832961 |       832961 |      2019878 |      2019878 |      1869497 |      1869497 |      4439004 |      4439004 |      4132904 |      4132904 |      9720495 |      9720495 |      9065495 |      9065495 |     21048615 |     21048615 |     19690236 |     19690236 |
dl1.replacements                              4351 |         4351 |         3736 |         3736 |        11646 |        11646 |        10060 |        10060 |        29247 |        29247 |        26307 |        26307 |        72603 |        72603 |        65261 |        65261 |       173118 |       173118 |       156963 |       156963 |       396704 |       396704 |       365035 |       365035 |       904195 |       904195 |       832705 |       832705 |      2019622 |      2019622 |      1869241 |      1869241 |      4438748 |      4438748 |      4132648 |      4132648 |      9720239 |      9720239 |      9065239 |      9065239 |     21048359 |     21048359 |     19689980 |     19689980 |
dl1.writebacks                                3708 |         3708 |         3171 |         3171 |        10268 |        10268 |         8833 |         8833 |        26267 |        26267 |        23654 |        23654 |        66359 |        66359 |        59772 |        59772 |       159996 |       159996 |       145587 |       145587 |       369857 |       369857 |       342096 |       342096 |       849398 |       849398 |       786464 |       786464 |      1908425 |      1908425 |      1776778 |      1776778 |      4211157 |      4211157 |      3946537 |      3946537 |      9261545 |      9261545 |      8692819 |      8692819 |     20119902 |     20119902 |     18944857 |     18944857 |
dl1.invalidations                                0 |            0 |            0 |            0 |            0 |            0 |            0 |            0 |            0 |            0 |            0 |            0 |            0 |            0 |            0 |            0 |            0 |            0 |            0 |            0 |            0 |            0 |            0 |            0 |            0 |            0 |            0 |            0 |            0 |            0 |            0 |            0 |            0 |            0 |            0 |            0 |            0 |            0 |            0 |            0 |            0 |            0 |            0 |            0 |
dl1.miss_rate                               0.0155 |       0.0155 |       0.0135 |       0.0135 |       0.0188 |       0.0188 |       0.0163 |       0.0163 |       0.0217 |       0.0217 |       0.0195 |       0.0195 |       0.0254 |       0.0254 |       0.0229 |       0.0229 |       0.0285 |       0.0285 |       0.0258 |       0.0258 |       0.0307 |       0.0307 |       0.0282 |       0.0282 |       0.0334 |       0.0334 |       0.0307 |       0.0307 |       0.0354 |       0.0354 |       0.0328 |       0.0328 |       0.0369 |       0.0369 |       0.0343 |       0.0343 |       0.0388 |       0.0388 |       0.0362 |       0.0362 |       0.0402 |       0.0402 |       0.0376 |       0.0376 |
dl1.repl_rate                               0.0147 |       0.0147 |       0.0126 |       0.0126 |       0.0184 |       0.0184 |       0.0159 |       0.0159 |       0.0215 |       0.0215 |       0.0193 |       0.0193 |       0.0253 |       0.0253 |       0.0228 |       0.0228 |       0.0285 |       0.0285 |       0.0258 |       0.0258 |       0.0306 |       0.0306 |       0.0282 |       0.0282 |       0.0334 |       0.0334 |       0.0307 |       0.0307 |       0.0354 |       0.0354 |       0.0328 |       0.0328 |       0.0369 |       0.0369 |       0.0343 |       0.0343 |       0.0388 |       0.0388 |       0.0362 |       0.0362 |       0.0402 |       0.0402 |       0.0376 |       0.0376 |
dl1.wb_rate                                 0.0125 |       0.0125 |       0.0107 |       0.0107 |       0.0162 |       0.0162 |       0.0139 |       0.0139 |       0.0193 |       0.0193 |       0.0174 |       0.0174 |       0.0232 |       0.0232 |       0.0209 |       0.0209 |       0.0263 |       0.0263 |       0.0239 |       0.0239 |       0.0286 |       0.0286 |       0.0264 |       0.0264 |       0.0314 |       0.0314 |       0.0290 |       0.0290 |       0.0335 |       0.0335 |       0.0312 |       0.0312 |       0.0350 |       0.0350 |       0.0328 |       0.0328 |       0.0370 |       0.0370 |       0.0347 |       0.0347 |       0.0384 |       0.0384 |       0.0362 |       0.0362 |
dl1.inv_rate                                0.0000 |       0.0000 |       0.0000 |       0.0000 |       0.0000 |       0.0000 |       0.0000 |       0.0000 |       0.0000 |       0.0000 |       0.0000 |       0.0000 |       0.0000 |       0.0000 |       0.0000 |       0.0000 |       0.0000 |       0.0000 |       0.0000 |       0.0000 |       0.0000 |       0.0000 |       0.0000 |       0.0000 |       0.0000 |       0.0000 |       0.0000 |       0.0000 |       0.0000 |       0.0000 |       0.0000 |       0.0000 |       0.0000 |       0.0000 |       0.0000 |       0.0000 |       0.0000 |       0.0000 |       0.0000 |       0.0000 |       0.0000 |       0.0000 |       0.0000 |       0.0000 |
dl2.accesses                                  8845 |         8845 |         7605 |         7605 |        22740 |        22740 |        19610 |        19610 |        56341 |        56341 |        50674 |        50674 |       139787 |       139787 |       125751 |       125751 |       333939 |       333939 |       303268 |       303268 |       767386 |       767386 |       707848 |       707848 |      1754418 |      1754418 |      1619886 |      1619886 |      3928872 |      3928872 |      3646736 |      3646736 |      8650766 |      8650766 |      8079936 |      8079936 |     18982645 |     18982645 |     17758809 |     17758809 |     41169122 |     41169122 |     38635588 |     38635588 |
dl2.hits                                      6930 |         6930 |         5735 |         5735 |        19799 |        19799 |        16725 |        16725 |        51350 |        51350 |        45744 |        45744 |       130693 |       130693 |       116721 |       116721 |       316653 |       316653 |       286046 |       286046 |       733713 |       733713 |       674243 |       674243 |      1687979 |      1685468 |      1553513 |      1529672 |      3794388 |      3572660 |      3472372 |      3321887 |      7936579 |      7664851 |      7430410 |      7178048 |     17009716 |     16249740 |     15955545 |     15241894 |     35703151 |     34180610 |     33605340 |     31974793 |
dl2.misses                                    1915 |         1915 |         1870 |         1870 |         2941 |         2941 |         2885 |         2885 |         4991 |         4991 |         4930 |         4930 |         9094 |         9094 |         9030 |         9030 |        17286 |        17286 |        17222 |        17222 |        33673 |        33673 |        33605 |        33605 |        66439 |        68950 |        66373 |        90214 |       134484 |       356212 |       174364 |       324849 |       714187 |       985915 |       649526 |       901888 |      1972929 |      2732905 |      1803264 |      2516915 |      5465971 |      6988512 |      5030248 |      6660795 |
dl2.replacements                               275 |          275 |            0 |            0 |          272 |          272 |            0 |            0 |          298 |          298 |            0 |            0 |          304 |          304 |            0 |            0 |          304 |          304 |            0 |            0 |          308 |          308 |            0 |            0 |          306 |         4492 |            0 |        24678 |         4490 |       290676 |        43292 |       259313 |       583115 |       920379 |       518454 |       836352 |      1841857 |      2667369 |      1672192 |      2451379 |      5334899 |      6922976 |      4899176 |      6595259 |
dl2.writebacks                                 150 |          150 |            0 |            0 |          145 |          145 |            0 |            0 |          165 |          165 |            0 |            0 |          170 |          170 |            0 |            0 |          170 |          170 |            0 |            0 |          170 |          170 |            0 |            0 |          170 |         4356 |            0 |        23937 |         4356 |       227047 |        42551 |       192994 |       455185 |       779802 |       386085 |       694081 |      1561066 |      2357939 |      1387900 |      2137883 |      4716814 |      6254064 |      4272737 |      5922332 |
dl2.invalidations                                0 |            0 |            0 |            0 |            0 |            0 |            0 |            0 |            0 |            0 |            0 |            0 |            0 |            0 |            0 |            0 |            0 |            0 |            0 |            0 |            0 |            0 |            0 |            0 |            0 |            0 |            0 |            0 |            0 |            0 |            0 |            0 |            0 |            0 |            0 |            0 |            0 |            0 |            0 |            0 |            0 |            0 |            0 |            0 |
dl2.miss_rate                               0.2165 |       0.2165 |       0.2459 |       0.2459 |       0.1293 |       0.1293 |       0.1471 |       0.1471 |       0.0886 |       0.0886 |       0.0973 |       0.0973 |       0.0651 |       0.0651 |       0.0718 |       0.0718 |       0.0518 |       0.0518 |       0.0568 |       0.0568 |       0.0439 |       0.0439 |       0.0475 |       0.0475 |       0.0379 |       0.0393 |       0.0410 |       0.0557 |       0.0342 |       0.0907 |       0.0478 |       0.0891 |       0.0826 |       0.1140 |       0.0804 |       0.1116 |       0.1039 |       0.1440 |       0.1015 |       0.1417 |       0.1328 |       0.1698 |       0.1302 |       0.1724 |
dl2.repl_rate                               0.0311 |       0.0311 |       0.0000 |       0.0000 |       0.0120 |       0.0120 |       0.0000 |       0.0000 |       0.0053 |       0.0053 |       0.0000 |       0.0000 |       0.0022 |       0.0022 |       0.0000 |       0.0000 |       0.0009 |       0.0009 |       0.0000 |       0.0000 |       0.0004 |       0.0004 |       0.0000 |       0.0000 |       0.0002 |       0.0026 |       0.0000 |       0.0152 |       0.0011 |       0.0740 |       0.0119 |       0.0711 |       0.0674 |       0.1064 |       0.0642 |       0.1035 |       0.0970 |       0.1405 |       0.0942 |       0.1380 |       0.1296 |       0.1682 |       0.1268 |       0.1707 |
dl2.wb_rate                                 0.0170 |       0.0170 |       0.0000 |       0.0000 |       0.0064 |       0.0064 |       0.0000 |       0.0000 |       0.0029 |       0.0029 |       0.0000 |       0.0000 |       0.0012 |       0.0012 |       0.0000 |       0.0000 |       0.0005 |       0.0005 |       0.0000 |       0.0000 |       0.0002 |       0.0002 |       0.0000 |       0.0000 |       0.0001 |       0.0025 |       0.0000 |       0.0148 |       0.0011 |       0.0578 |       0.0117 |       0.0529 |       0.0526 |       0.0901 |       0.0478 |       0.0859 |       0.0822 |       0.1242 |       0.0782 |       0.1204 |       0.1146 |       0.1519 |       0.1106 |       0.1533 |
dl2.inv_rate                                0.0000 |       0.0000 |       0.0000 |       0.0000 |       0.0000 |       0.0000 |       0.0000 |       0.0000 |       0.0000 |       0.0000 |       0.0000 |       0.0000 |       0.0000 |       0.0000 |       0.0000 |       0.0000 |       0.0000 |       0.0000 |       0.0000 |       0.0000 |       0.0000 |       0.0000 |       0.0000 |       0.0000 |       0.0000 |       0.0000 |       0.0000 |       0.0000 |       0.0000 |       0.0000 |       0.0000 |       0.0000 |       0.0000 |       0.0000 |       0.0000 |       0.0000 |       0.0000 |       0.0000 |       0.0000 |       0.0000 |       0.0000 |       0.0000 |       0.0000 |       0.0000 |
itlb.accesses                              1018415 |      1018415 |      1018415 |      1018415 |      2190594 |      2190594 |      2190594 |      2190594 |      4726800 |      4726800 |      4726800 |      4726800 |     10007983 |     10007983 |     10007983 |     10007983 |     21302045 |     21302045 |     21302045 |     21302045 |     45464305 |     45464305 |     45464305 |     45464305 |     95385180 |     95385180 |     95385180 |     95385180 |    201141089 |    201141089 |    201141089 |    201141089 |    425235795 |    425235795 |    425235795 |    425235795 |    886169080 |    886169080 |    886169080 |    886169080 |   1855393419 |   1855393419 |   1855393419 |   1855393419 |
itlb.hits                                  1018405 |      1018405 |      1018405 |      1018405 |      2190584 |      2190584 |      2190584 |      2190584 |      4726790 |      4726790 |      4726790 |      4726790 |     10007973 |     10007973 |     10007973 |     10007973 |     21302035 |     21302035 |     21302035 |     21302035 |     45464295 |     45464295 |     45464295 |     45464295 |     95385170 |     95385170 |     95385170 |     95385170 |    201141079 |    201141079 |    201141079 |    201141079 |    425235785 |    425235785 |    425235785 |    425235785 |    886169070 |    886169070 |    886169070 |    886169070 |   1855393409 |   1855393409 |   1855393409 |   1855393409 |
itlb.misses                                     10 |           10 |           10 |           10 |           10 |           10 |           10 |           10 |           10 |           10 |           10 |           10 |           10 |           10 |           10 |           10 |           10 |           10 |           10 |           10 |           10 |           10 |           10 |           10 |           10 |           10 |           10 |           10 |           10 |           10 |           10 |           10 |           10 |           10 |           10 |           10 |           10 |           10 |           10 |           10 |           10 |           10 |           10 |           10 |
itlb.replacements                                0 |            0 |            0 |            0 |            0 |            0 |            0 |            0 |            0 |            0 |            0 |            0 |            0 |            0 |            0 |            0 |            0 |            0 |            0 |            0 |            0 |            0 |            0 |            0 |            0 |            0 |            0 |            0 |            0 |            0 |            0 |            0 |            0 |            0 |            0 |            0 |            0 |            0 |            0 |            0 |            0 |            0 |            0 |            0 |
itlb.writebacks                                  0 |            0 |            0 |            0 |            0 |            0 |            0 |            0 |            0 |            0 |            0 |            0 |            0 |            0 |            0 |            0 |            0 |            0 |            0 |            0 |            0 |            0 |            0 |            0 |            0 |            0 |            0 |            0 |            0 |            0 |            0 |            0 |            0 |            0 |            0 |            0 |            0 |            0 |            0 |            0 |            0 |            0 |            0 |            0 |
itlb.invalidations                               0 |            0 |            0 |            0 |            0 |            0 |            0 |            0 |            0 |            0 |            0 |            0 |            0 |            0 |            0 |            0 |            0 |            0 |            0 |            0 |            0 |            0 |            0 |            0 |            0 |            0 |            0 |            0 |            0 |            0 |            0 |            0 |            0 |            0 |            0 |            0 |            0 |            0 |            0 |            0 |            0 |            0 |            0 |            0 |
itlb.miss_rate                              0.0000 |       0.0000 |       0.0000 |       0.0000 |       0.0000 |       0.0000 |       0.0000 |       0.0000 |       0.0000 |       0.0000 |       0.0000 |       0.0000 |       0.0000 |       0.0000 |       0.0000 |       0.0000 |       0.0000 |       0.0000 |       0.0000 |       0.0000 |       0.0000 |       0.0000 |       0.0000 |       0.0000 |       0.0000 |       0.0000 |       0.0000 |       0.0000 |       0.0000 |       0.0000 |       0.0000 |       0.0000 |       0.0000 |       0.0000 |       0.0000 |       0.0000 |       0.0000 |       0.0000 |       0.0000 |       0.0000 |       0.0000 |       0.0000 |       0.0000 |       0.0000 |
itlb.repl_rate                              0.0000 |       0.0000 |       0.0000 |       0.0000 |       0.0000 |       0.0000 |       0.0000 |       0.0000 |       0.0000 |       0.0000 |       0.0000 |       0.0000 |       0.0000 |       0.0000 |       0.0000 |       0.0000 |       0.0000 |       0.0000 |       0.0000 |       0.0000 |       0.0000 |       0.0000 |       0.0000 |       0.0000 |       0.0000 |       0.0000 |       0.0000 |       0.0000 |       0.0000 |       0.0000 |       0.0000 |       0.0000 |       0.0000 |       0.0000 |       0.0000 |       0.0000 |       0.0000 |       0.0000 |       0.0000 |       0.0000 |       0.0000 |       0.0000 |       0.0000 |       0.0000 |
itlb.wb_rate                                0.0000 |       0.0000 |       0.0000 |       0.0000 |       0.0000 |       0.0000 |       0.0000 |       0.0000 |       0.0000 |       0.0000 |       0.0000 |       0.0000 |       0.0000 |       0.0000 |       0.0000 |       0.0000 |       0.0000 |       0.0000 |       0.0000 |       0.0000 |       0.0000 |       0.0000 |       0.0000 |       0.0000 |       0.0000 |       0.0000 |       0.0000 |       0.0000 |       0.0000 |       0.0000 |       0.0000 |       0.0000 |       0.0000 |       0.0000 |       0.0000 |       0.0000 |       0.0000 |       0.0000 |       0.0000 |       0.0000 |       0.0000 |       0.0000 |       0.0000 |       0.0000 |
itlb.inv_rate                               0.0000 |       0.0000 |       0.0000 |       0.0000 |       0.0000 |       0.0000 |       0.0000 |       0.0000 |       0.0000 |       0.0000 |       0.0000 |       0.0000 |       0.0000 |       0.0000 |       0.0000 |       0.0000 |       0.0000 |       0.0000 |       0.0000 |       0.0000 |       0.0000 |       0.0000 |       0.0000 |       0.0000 |       0.0000 |       0.0000 |       0.0000 |       0.0000 |       0.0000 |       0.0000 |       0.0000 |       0.0000 |       0.0000 |       0.0000 |       0.0000 |       0.0000 |       0.0000 |       0.0000 |       0.0000 |       0.0000 |       0.0000 |       0.0000 |       0.0000 |       0.0000 |
dtlb.accesses                               296675 |       296675 |       296675 |       296675 |       633552 |       633552 |       633552 |       633552 |      1359901 |      1359901 |      1359901 |      1359901 |      2866339 |      2866339 |      2866339 |      2866339 |      6084250 |      6084250 |      6084250 |      6084250 |     12948198 |     12948198 |     12948198 |     12948198 |     27089210 |     27089210 |     27089210 |     27089210 |     57029161 |     57029161 |     57029161 |     57029161 |    120341313 |    120341313 |    120341313 |    120341313 |    250253368 |    250253368 |    250253368 |    250253368 |    523353929 |    523353929 |    523353929 |    523353929 |
dtlb.hits                                   296659 |       296659 |       296659 |       296659 |       633528 |       633528 |       633528 |       633528 |      1359861 |      1359861 |      1359861 |      1359861 |      2866267 |      2866267 |      2866267 |      2866267 |      6084103 |      6084103 |      6084103 |      6084103 |     12947443 |     12947443 |     12947443 |     12947443 |     27043139 |     27043139 |     27043139 |     27043139 |     56771812 |     56771812 |     56771812 |     56771812 |    119418345 |    119418345 |    119418345 |    119418345 |    247562694 |    247562694 |    247562694 |    247562694 |    516248678 |    516248678 |    516248678 |    516248678 |
dtlb.misses                                     16 |           16 |           16 |           16 |           24 |           24 |           24 |           24 |           40 |           40 |           40 |           40 |           72 |           72 |           72 |           72 |          147 |          147 |          147 |          147 |          755 |          755 |          755 |          755 |        46071 |        46071 |        46071 |        46071 |       257349 |       257349 |       257349 |       257349 |       922968 |       922968 |       922968 |       922968 |      2690674 |      2690674 |      2690674 |      2690674 |      7105251 |      7105251 |      7105251 |      7105251 |
dtlb.replacements                                0 |            0 |            0 |            0 |            0 |            0 |            0 |            0 |            0 |            0 |            0 |            0 |            0 |            0 |            0 |            0 |           19 |           19 |           19 |           19 |          627 |          627 |          627 |          627 |        45943 |        45943 |        45943 |        45943 |       257221 |       257221 |       257221 |       257221 |       922840 |       922840 |       922840 |       922840 |      2690546 |      2690546 |      2690546 |      2690546 |      7105123 |      7105123 |      7105123 |      7105123 |
dtlb.writebacks                                  0 |            0 |            0 |            0 |            0 |            0 |            0 |            0 |            0 |            0 |            0 |            0 |            0 |            0 |            0 |            0 |           16 |           16 |           16 |           16 |          501 |          501 |          501 |          501 |        44446 |        44446 |        44446 |        44446 |       247710 |       247710 |       247710 |       247710 |       890519 |       890519 |       890519 |       890519 |      2606933 |      2606933 |      2606933 |      2606933 |      6913533 |      6913533 |      6913533 |      6913533 |
dtlb.invalidations                               0 |            0 |            0 |            0 |            0 |            0 |            0 |            0 |            0 |            0 |            0 |            0 |            0 |            0 |            0 |            0 |            0 |            0 |            0 |            0 |            0 |            0 |            0 |            0 |            0 |            0 |            0 |            0 |            0 |            0 |            0 |            0 |            0 |            0 |            0 |            0 |            0 |            0 |            0 |            0 |            0 |            0 |            0 |            0 |
dtlb.miss_rate                              0.0001 |       0.0001 |       0.0001 |       0.0001 |       0.0000 |       0.0000 |       0.0000 |       0.0000 |       0.0000 |       0.0000 |       0.0000 |       0.0000 |       0.0000 |       0.0000 |       0.0000 |       0.0000 |       0.0000 |       0.0000 |       0.0000 |       0.0000 |       0.0001 |       0.0001 |       0.0001 |       0.0001 |       0.0017 |       0.0017 |       0.0017 |       0.0017 |       0.0045 |       0.0045 |       0.0045 |       0.0045 |       0.0077 |       0.0077 |       0.0077 |       0.0077 |       0.0108 |       0.0108 |       0.0108 |       0.0108 |       0.0136 |       0.0136 |       0.0136 |       0.0136 |
dtlb.repl_rate                              0.0000 |       0.0000 |       0.0000 |       0.0000 |       0.0000 |       0.0000 |       0.0000 |       0.0000 |       0.0000 |       0.0000 |       0.0000 |       0.0000 |       0.0000 |       0.0000 |       0.0000 |       0.0000 |       0.0000 |       0.0000 |       0.0000 |       0.0000 |       0.0000 |       0.0000 |       0.0000 |       0.0000 |       0.0017 |       0.0017 |       0.0017 |       0.0017 |       0.0045 |       0.0045 |       0.0045 |       0.0045 |       0.0077 |       0.0077 |       0.0077 |       0.0077 |       0.0108 |       0.0108 |       0.0108 |       0.0108 |       0.0136 |       0.0136 |       0.0136 |       0.0136 |
dtlb.wb_rate                                0.0000 |       0.0000 |       0.0000 |       0.0000 |       0.0000 |       0.0000 |       0.0000 |       0.0000 |       0.0000 |       0.0000 |       0.0000 |       0.0000 |       0.0000 |       0.0000 |       0.0000 |       0.0000 |       0.0000 |       0.0000 |       0.0000 |       0.0000 |       0.0000 |       0.0000 |       0.0000 |       0.0000 |       0.0016 |       0.0016 |       0.0016 |       0.0016 |       0.0043 |       0.0043 |       0.0043 |       0.0043 |       0.0074 |       0.0074 |       0.0074 |       0.0074 |       0.0104 |       0.0104 |       0.0104 |       0.0104 |       0.0132 |       0.0132 |       0.0132 |       0.0132 |
dtlb.inv_rate                               0.0000 |       0.0000 |       0.0000 |       0.0000 |       0.0000 |       0.0000 |       0.0000 |       0.0000 |       0.0000 |       0.0000 |       0.0000 |       0.0000 |       0.0000 |       0.0000 |       0.0000 |       0.0000 |       0.0000 |       0.0000 |       0.0000 |       0.0000 |       0.0000 |       0.0000 |       0.0000 |       0.0000 |       0.0000 |       0.0000 |       0.0000 |       0.0000 |       0.0000 |       0.0000 |       0.0000 |       0.0000 |       0.0000 |       0.0000 |       0.0000 |       0.0000 |       0.0000 |       0.0000 |       0.0000 |       0.0000 |       0.0000 |       0.0000 |       0.0000 |       0.0000 |
ld_text_base                            0x00400000 |   0x00400000 |   0x00400000 |   0x00400000 |   0x00400000 |   0x00400000 |   0x00400000 |   0x00400000 |   0x00400000 |   0x00400000 |   0x00400000 |   0x00400000 |   0x00400000 |   0x00400000 |   0x00400000 |   0x00400000 |   0x00400000 |   0x00400000 |   0x00400000 |   0x00400000 |   0x00400000 |   0x00400000 |   0x00400000 |   0x00400000 |   0x00400000 |   0x00400000 |   0x00400000 |   0x00400000 |   0x00400000 |   0x00400000 |   0x00400000 |   0x00400000 |   0x00400000 |   0x00400000 |   0x00400000 |   0x00400000 |   0x00400000 |   0x00400000 |   0x00400000 |   0x00400000 |   0x00400000 |   0x00400000 |   0x00400000 |   0x00400000 |
ld_text_size                                 74528 |        74528 |        74528 |        74528 |        74560 |        74560 |        74560 |        74560 |        74576 |        74576 |        74576 |        74576 |        74592 |        74592 |        74592 |        74592 |        74592 |        74592 |        74592 |        74592 |        74592 |        74592 |        74592 |        74592 |        74592 |        74592 |        74592 |        74592 |        74592 |        74592 |        74592 |        74592 |        74592 |        74592 |        74592 |        74592 |        74592 |        74592 |        74592 |        74592 |        74592 |        74592 |        74592 |        74592 |
ld_data_base                            0x10000000 |   0x10000000 |   0x10000000 |   0x10000000 |   0x10000000 |   0x10000000 |   0x10000000 |   0x10000000 |   0x10000000 |   0x10000000 |   0x10000000 |   0x10000000 |   0x10000000 |   0x10000000 |   0x10000000 |   0x10000000 |   0x10000000 |   0x10000000 |   0x10000000 |   0x10000000 |   0x10000000 |   0x10000000 |   0x10000000 |   0x10000000 |   0x10000000 |   0x10000000 |   0x10000000 |   0x10000000 |   0x10000000 |   0x10000000 |   0x10000000 |   0x10000000 |   0x10000000 |   0x10000000 |   0x10000000 |   0x10000000 |   0x10000000 |   0x10000000 |   0x10000000 |   0x10000000 |   0x10000000 |   0x10000000 |   0x10000000 |   0x10000000 |
ld_data_size                                  8192 |         8192 |         8192 |         8192 |         8192 |         8192 |         8192 |         8192 |         8192 |         8192 |         8192 |         8192 |         8192 |         8192 |         8192 |         8192 |         8192 |         8192 |         8192 |         8192 |         8192 |         8192 |         8192 |         8192 |         8192 |         8192 |         8192 |         8192 |         8192 |         8192 |         8192 |         8192 |         8192 |         8192 |         8192 |         8192 |         8192 |         8192 |         8192 |         8192 |         8192 |         8192 |         8192 |         8192 |
ld_stack_base                           0x7fffc000 |   0x7fffc000 |   0x7fffc000 |   0x7fffc000 |   0x7fffc000 |   0x7fffc000 |   0x7fffc000 |   0x7fffc000 |   0x7fffc000 |   0x7fffc000 |   0x7fffc000 |   0x7fffc000 |   0x7fffc000 |   0x7fffc000 |   0x7fffc000 |   0x7fffc000 |   0x7fffc000 |   0x7fffc000 |   0x7fffc000 |   0x7fffc000 |   0x7fffc000 |   0x7fffc000 |   0x7fffc000 |   0x7fffc000 |   0x7fffc000 |   0x7fffc000 |   0x7fffc000 |   0x7fffc000 |   0x7fffc000 |   0x7fffc000 |   0x7fffc000 |   0x7fffc000 |   0x7fffc000 |   0x7fffc000 |   0x7fffc000 |   0x7fffc000 |   0x7fffc000 |   0x7fffc000 |   0x7fffc000 |   0x7fffc000 |   0x7fffc000 |   0x7fffc000 |   0x7fffc000 |   0x7fffc000 |
ld_stack_size                                16384 |        16384 |        16384 |        16384 |        16384 |        16384 |        16384 |        16384 |        16384 |        16384 |        16384 |        16384 |        16384 |        16384 |        16384 |        16384 |        16384 |        16384 |        16384 |        16384 |        16384 |        16384 |        16384 |        16384 |        16384 |        16384 |        16384 |        16384 |        16384 |        16384 |        16384 |        16384 |        16384 |        16384 |        16384 |        16384 |        16384 |        16384 |        16384 |        16384 |        16384 |        16384 |        16384 |        16384 |
ld_prog_entry                           0x00400140 |   0x00400140 |   0x00400140 |   0x00400140 |   0x00400140 |   0x00400140 |   0x00400140 |   0x00400140 |   0x00400140 |   0x00400140 |   0x00400140 |   0x00400140 |   0x00400140 |   0x00400140 |   0x00400140 |   0x00400140 |   0x00400140 |   0x00400140 |   0x00400140 |   0x00400140 |   0x00400140 |   0x00400140 |   0x00400140 |   0x00400140 |   0x00400140 |   0x00400140 |   0x00400140 |   0x00400140 |   0x00400140 |   0x00400140 |   0x00400140 |   0x00400140 |   0x00400140 |   0x00400140 |   0x00400140 |   0x00400140 |   0x00400140 |   0x00400140 |   0x00400140 |   0x00400140 |   0x00400140 |   0x00400140 |   0x00400140 |   0x00400140 |
ld_environ_base                         0x7fff8000 |   0x7fff8000 |   0x7fff8000 |   0x7fff8000 |   0x7fff8000 |   0x7fff8000 |   0x7fff8000 |   0x7fff8000 |   0x7fff8000 |   0x7fff8000 |   0x7fff8000 |   0x7fff8000 |   0x7fff8000 |   0x7fff8000 |   0x7fff8000 |   0x7fff8000 |   0x7fff8000 |   0x7fff8000 |   0x7fff8000 |   0x7fff8000 |   0x7fff8000 |   0x7fff8000 |   0x7fff8000 |   0x7fff8000 |   0x7fff8000 |   0x7fff8000 |   0x7fff8000 |   0x7fff8000 |   0x7fff8000 |   0x7fff8000 |   0x7fff8000 |   0x7fff8000 |   0x7fff8000 |   0x7fff8000 |   0x7fff8000 |   0x7fff8000 |   0x7fff8000 |   0x7fff8000 |   0x7fff8000 |   0x7fff8000 |   0x7fff8000 |   0x7fff8000 |   0x7fff8000 |   0x7fff8000 |
ld_target_big_endian                             0 |            0 |            0 |            0 |            0 |            0 |            0 |            0 |            0 |            0 |            0 |            0 |            0 |            0 |            0 |            0 |            0 |            0 |            0 |            0 |            0 |            0 |            0 |            0 |            0 |            0 |            0 |            0 |            0 |            0 |            0 |            0 |            0 |            0 |            0 |            0 |            0 |            0 |            0 |            0 |            0 |            0 |            0 |            0 |
mem.page_count                                  35 |           35 |           35 |           35 |           43 |           43 |           43 |           43 |           59 |           59 |           59 |           59 |           91 |           91 |           91 |           91 |          155 |          155 |          155 |          155 |          283 |          283 |          283 |          283 |          539 |          539 |          539 |          539 |         1051 |         1051 |         1051 |         1051 |         2081 |         2081 |         2081 |         2081 |         4135 |         4135 |         4135 |         4135 |         8243 |         8243 |         8243 |         8243 |
mem.page_mem                                  140k |         140k |         140k |         140k |         172k |         172k |         172k |         172k |         236k |         236k |         236k |         236k |         364k |         364k |         364k |         364k |         620k |         620k |         620k |         620k |        1132k |        1132k |        1132k |        1132k |        2156k |        2156k |        2156k |        2156k |        4204k |        4204k |        4204k |        4204k |        8324k |        8324k |        8324k |        8324k |       16540k |       16540k |       16540k |       16540k |       32972k |       32972k |       32972k |       32972k |
mem.ptab_misses                                 35 |           35 |           35 |           35 |           43 |           43 |           43 |           43 |           59 |           59 |           59 |           59 |           91 |           91 |           91 |           91 |          155 |          155 |          155 |          155 |          283 |          283 |          283 |          283 |          539 |          539 |          539 |          539 |         1051 |         1051 |         1051 |         1051 |         8978 |         8978 |         8978 |         8978 |        34016 |        34016 |        34016 |        34016 |        60118 |        60118 |        60118 |        60118 |
mem.ptab_accesses                          5128764 |      5128764 |      5128764 |      5128764 |     10491426 |     10491426 |     10491426 |     10491426 |     22089044 |     22089044 |     22089044 |     22089044 |     46226748 |     46226748 |     46226748 |     46226748 |     97838818 |     97838818 |     97838818 |     97838818 |    208215754 |    208215754 |    208215754 |    208215754 |    436181278 |    436181278 |    436181278 |    436181278 |    919084816 |    919084816 |    919084816 |    919084816 |   1942087944 |   1942087944 |   1942087944 |   1942087944 |   4045645194 |   4045645194 |   4045645194 |   4045645194 |   8468743672 |   8468743672 |   8468743672 |   8468743672 |
mem.ptab_miss_rate                          0.0000 |       0.0000 |       0.0000 |       0.0000 |       0.0000 |       0.0000 |       0.0000 |       0.0000 |       0.0000 |       0.0000 |       0.0000 |       0.0000 |       0.0000 |       0.0000 |       0.0000 |       0.0000 |       0.0000 |       0.0000 |       0.0000 |       0.0000 |       0.0000 |       0.0000 |       0.0000 |       0.0000 |       0.0000 |       0.0000 |       0.0000 |       0.0000 |       0.0000 |       0.0000 |       0.0000 |       0.0000 |       0.0000 |       0.0000 |       0.0000 |       0.0000 |       0.0000 |       0.0000 |       0.0000 |       0.0000 |       0.0000 |       0.0000 |       0.0000 |       0.0000 |
-------------------------------------------------------------------------------------------------
sim-bpred                                     4096 |         4096 |         4096 |         4096 |         4096 |         4096 |         4096 |         8192 |         8192 |         8192 |         8192 |         8192 |         8192 |         8192 |        16384 |        16384 |        16384 |        16384 |        16384 |        16384 |        16384 |        32768 |        32768 |        32768 |        32768 |        32768 |        32768 |        32768 |        65536 |        65536 |        65536 |        65536 |        65536 |        65536 |        65536 |       131072 |       131072 |       131072 |       131072 |       131072 |       131072 |       131072 |       262144 |       262144 |       262144 |       262144 |       262144 |       262144 |       262144 |       524288 |       524288 |       524288 |       524288 |       524288 |       524288 |       524288 |      1048576 |      1048576 |      1048576 |      1048576 |      1048576 |      1048576 |      1048576 |      2097152 |      2097152 |      2097152 |      2097152 |      2097152 |      2097152 |      2097152 |      4194304 |      4194304 |      4194304 |      4194304 |      4194304 |      4194304 |      4194304 |
-bpred bimod -bpred:bimod 512
-bpred bimod -bpred:bimod 1024
-bpred bimod -bpred:bimod 2048
-bpred 2lev -bpred:2lev 1 512 10 1
-bpred 2lev -bpred:2lev 1 1024 10 1
-bpred 2lev -bpred:2lev 1 2048 10 1
-bpred 2lev -bpred:2lev 1 4096 10 1
-------------------------------------------------------------------------------------------------
sim_num_insn                               1018415 |      1018415 |      1018415 |      1018415 |      1018415 |      1018415 |      1018415 |      2190594 |      2190594 |      2190594 |      2190594 |      2190594 |      2190594 |      2190594 |      4726800 |      4726800 |      4726800 |      4726800 |      4726800 |      4726800 |      4726800 |     10007983 |     10007983 |     10007983 |     10007983 |     10007983 |     10007983 |     10007983 |     21302045 |     21302045 |     21302045 |     21302045 |     21302045 |     21302045 |     21302045 |     45464305 |     45464305 |     45464305 |     45464305 |     45464305 |     45464305 |     45464305 |     95385180 |     95385180 |     95385180 |     95385180 |     95385180 |     95385180 |     95385180 |    201141089 |    201141089 |    201141089 |    201141089 |    201141089 |    201141089 |    201141089 |    425235795 |    425235795 |    425235795 |    425235795 |    425235795 |    425235795 |    425235795 |    886169080 |    886169080 |    886169080 |    886169080 |    886169080 |    886169080 |    886169080 |   1855393419 |   1855393419 |   1855393419 |   1855393419 |   1855393419 |   1855393419 |   1855393419 |
sim_num_refs                                280209 |       280209 |       280209 |       280209 |       280209 |       280209 |       280209 |       600702 |       600702 |       600702 |       600702 |       600702 |       600702 |       600702 |      1294283 |      1294283 |      1294283 |      1294283 |      1294283 |      1294283 |      1294283 |      2735185 |      2735185 |      2735185 |      2735185 |      2735185 |      2735185 |      2735185 |      5822024 |      5822024 |      5822024 |      5822024 |      5822024 |      5822024 |      5822024 |     12423828 |     12423828 |     12423828 |     12423828 |     12423828 |     12423828 |     12423828 |     26040552 |     26040552 |     26040552 |     26040552 |     26040552 |     26040552 |     26040552 |     54931927 |     54931927 |     54931927 |     54931927 |     54931927 |     54931927 |     54931927 |    116146927 |    116146927 |    116146927 |    116146927 |    116146927 |    116146927 |    116146927 |    241864678 |    241864678 |    241864678 |    241864678 |    241864678 |    241864678 |    241864678 |    506576631 |    506576631 |    506576631 |    506576631 |    506576631 |    506576631 |    506576631 |
sim_elapsed_time                                 1 |            1 |            1 |            1 |            1 |            1 |            1 |            1 |            1 |            1 |            1 |            1 |            1 |            1 |            1 |            1 |            1 |            1 |            1 |            1 |            1 |            1 |            1 |            2 |            1 |            1 |            2 |            1 |            3 |            3 |            2 |            3 |            3 |            3 |            3 |            7 |            7 |            7 |            7 |            6 |            8 |            6 |           13 |           13 |           12 |           13 |           13 |           13 |           13 |           27 |           27 |           28 |           28 |           28 |           28 |           27 |           57 |           57 |           56 |           58 |           59 |           57 |           58 |          117 |          116 |          117 |          120 |          119 |          120 |          121 |          246 |          244 |          245 |          251 |          250 |          248 |          260 |
sim_inst_rate                         1018415.0000 | 1018415.0000 | 1018415.0000 | 1018415.0000 | 1018415.0000 | 1018415.0000 | 1018415.0000 | 2190594.0000 | 2190594.0000 | 2190594.0000 | 2190594.0000 | 2190594.0000 | 2190594.0000 | 2190594.0000 | 4726800.0000 | 4726800.0000 | 4726800.0000 | 4726800.0000 | 4726800.0000 | 4726800.0000 | 4726800.0000 |10007983.0000 |10007983.0000 | 5003991.5000 |10007983.0000 |10007983.0000 | 5003991.5000 |10007983.0000 | 7100681.6667 | 7100681.6667 |10651022.5000 | 7100681.6667 | 7100681.6667 | 7100681.6667 | 7100681.6667 | 6494900.7143 | 6494900.7143 | 6494900.7143 | 6494900.7143 | 7577384.1667 | 5683038.1250 | 7577384.1667 | 7337321.5385 | 7337321.5385 | 7948765.0000 | 7337321.5385 | 7337321.5385 | 7337321.5385 | 7337321.5385 | 7449669.9630 | 7449669.9630 | 7183610.3214 | 7183610.3214 | 7183610.3214 | 7183610.3214 | 7449669.9630 | 7460277.1053 | 7460277.1053 | 7593496.3393 | 7331651.6379 | 7207386.3559 | 7460277.1053 | 7331651.6379 | 7574094.7009 | 7639388.6207 | 7574094.7009 | 7384742.3333 | 7446798.9916 | 7384742.3333 | 7323711.4050 | 7542249.6707 | 7604071.3893 | 7573034.3633 | 7392005.6534 | 7421573.6760 | 7481425.0766 | 7136128.5346 |
sim_num_branches                            172058 |       172058 |       172058 |       172058 |       172058 |       172058 |       172058 |       370986 |       370986 |       370986 |       370986 |       370986 |       370986 |       370986 |       801419 |       801419 |       801419 |       801419 |       801419 |       801419 |       801419 |      1696023 |      1696023 |      1696023 |      1696023 |      1696023 |      1696023 |      1696023 |      3613339 |      3613339 |      3613339 |      3613339 |      3613339 |      3613339 |      3613339 |      7715835 |      7715835 |      7715835 |      7715835 |      7715835 |      7715835 |      7715835 |     16178572 |     16178572 |     16178572 |     16178572 |     16178572 |     16178572 |     16178572 |     34140768 |     34140768 |     34140768 |     34140768 |     34140768 |     34140768 |     34140768 |     72204505 |     72204505 |     72204505 |     72204505 |     72204505 |     72204505 |     72204505 |    150394342 |    150394342 |    150394342 |    150394342 |    150394342 |    150394342 |    150394342 |    315071350 |    315071350 |    315071350 |    315071350 |    315071350 |    315071350 |    315071350 |
sim_IPB                                     5.9190 |       5.9190 |       5.9190 |       5.9190 |       5.9190 |       5.9190 |       5.9190 |       5.9048 |       5.9048 |       5.9048 |       5.9048 |       5.9048 |       5.9048 |       5.9048 |       5.8980 |       5.8980 |       5.8980 |       5.8980 |       5.8980 |       5.8980 |       5.8980 |       5.9009 |       5.9009 |       5.9009 |       5.9009 |       5.9009 |       5.9009 |       5.9009 |       5.8954 |       5.8954 |       5.8954 |       5.8954 |       5.8954 |       5.8954 |       5.8954 |       5.8923 |       5.8923 |       5.8923 |       5.8923 |       5.8923 |       5.8923 |       5.8923 |       5.8958 |       5.8958 |       5.8958 |       5.8958 |       5.8958 |       5.8958 |       5.8958 |       5.8915 |       5.8915 |       5.8915 |       5.8915 |       5.8915 |       5.8915 |       5.8915 |       5.8893 |       5.8893 |       5.8893 |       5.8893 |       5.8893 |       5.8893 |       5.8893 |       5.8923 |       5.8923 |       5.8923 |       5.8923 |       5.8923 |       5.8923 |       5.8923 |       5.8888 |       5.8888 |       5.8888 |       5.8888 |       5.8888 |       5.8888 |       5.8888 |
bpred_bimod.lookups                         172058 |       172058 |       172058 |xxxxxxxxxxxxx |xxxxxxxxxxxxx |xxxxxxxxxxxxx |xxxxxxxxxxxxx |       370986 |       370986 |       370986 |xxxxxxxxxxxxx |xxxxxxxxxxxxx |xxxxxxxxxxxxx |xxxxxxxxxxxxx |       801419 |       801419 |       801419 |xxxxxxxxxxxxx |xxxxxxxxxxxxx |xxxxxxxxxxxxx |xxxxxxxxxxxxx |      1696023 |      1696023 |      1696023 |xxxxxxxxxxxxx |xxxxxxxxxxxxx |xxxxxxxxxxxxx |xxxxxxxxxxxxx |      3613339 |      3613339 |      3613339 |xxxxxxxxxxxxx |xxxxxxxxxxxxx |xxxxxxxxxxxxx |xxxxxxxxxxxxx |      7715835 |      7715835 |      7715835 |xxxxxxxxxxxxx |xxxxxxxxxxxxx |xxxxxxxxxxxxx |xxxxxxxxxxxxx |     16178572 |     16178572 |     16178572 |xxxxxxxxxxxxx |xxxxxxxxxxxxx |xxxxxxxxxxxxx |xxxxxxxxxxxxx |     34140768 |     34140768 |     34140768 |xxxxxxxxxxxxx |xxxxxxxxxxxxx |xxxxxxxxxxxxx |xxxxxxxxxxxxx |     72204505 |     72204505 |     72204505 |xxxxxxxxxxxxx |xxxxxxxxxxxxx |xxxxxxxxxxxxx |xxxxxxxxxxxxx |    150394342 |    150394342 |    150394342 |xxxxxxxxxxxxx |xxxxxxxxxxxxx |xxxxxxxxxxxxx |xxxxxxxxxxxxx |    315071350 |    315071350 |    315071350 |
bpred_bimod.updates                         172058 |       172058 |       172058 |xxxxxxxxxxxxx |xxxxxxxxxxxxx |xxxxxxxxxxxxx |xxxxxxxxxxxxx |       370986 |       370986 |       370986 |xxxxxxxxxxxxx |xxxxxxxxxxxxx |xxxxxxxxxxxxx |xxxxxxxxxxxxx |       801419 |       801419 |       801419 |xxxxxxxxxxxxx |xxxxxxxxxxxxx |xxxxxxxxxxxxx |xxxxxxxxxxxxx |      1696023 |      1696023 |      1696023 |xxxxxxxxxxxxx |xxxxxxxxxxxxx |xxxxxxxxxxxxx |xxxxxxxxxxxxx |      3613339 |      3613339 |      3613339 |xxxxxxxxxxxxx |xxxxxxxxxxxxx |xxxxxxxxxxxxx |xxxxxxxxxxxxx |      7715835 |      7715835 |      7715835 |xxxxxxxxxxxxx |xxxxxxxxxxxxx |xxxxxxxxxxxxx |xxxxxxxxxxxxx |     16178572 |     16178572 |     16178572 |xxxxxxxxxxxxx |xxxxxxxxxxxxx |xxxxxxxxxxxxx |xxxxxxxxxxxxx |     34140768 |     34140768 |     34140768 |xxxxxxxxxxxxx |xxxxxxxxxxxxx |xxxxxxxxxxxxx |xxxxxxxxxxxxx |     72204505 |     72204505 |     72204505 |xxxxxxxxxxxxx |xxxxxxxxxxxxx |xxxxxxxxxxxxx |xxxxxxxxxxxxx |    150394342 |    150394342 |    150394342 |xxxxxxxxxxxxx |xxxxxxxxxxxxx |xxxxxxxxxxxxx |xxxxxxxxxxxxx |    315071350 |    315071350 |    315071350 |
bpred_bimod.addr_hits                       140750 |       140757 |       140758 |xxxxxxxxxxxxx |xxxxxxxxxxxxx |xxxxxxxxxxxxx |xxxxxxxxxxxxx |       303582 |       303589 |       303592 |xxxxxxxxxxxxx |xxxxxxxxxxxxx |xxxxxxxxxxxxx |xxxxxxxxxxxxx |       658581 |       658587 |       658588 |xxxxxxxxxxxxx |xxxxxxxxxxxxx |xxxxxxxxxxxxx |xxxxxxxxxxxxx |      1384506 |      1384514 |      1384515 |xxxxxxxxxxxxx |xxxxxxxxxxxxx |xxxxxxxxxxxxx |xxxxxxxxxxxxx |      2946213 |      2946221 |      2946222 |xxxxxxxxxxxxx |xxxxxxxxxxxxx |xxxxxxxxxxxxx |xxxxxxxxxxxxx |      6313629 |      6313638 |      6313638 |xxxxxxxxxxxxx |xxxxxxxxxxxxx |xxxxxxxxxxxxx |xxxxxxxxxxxxx |     13161337 |     13161346 |     13161346 |xxxxxxxxxxxxx |xxxxxxxxxxxxx |xxxxxxxxxxxxx |xxxxxxxxxxxxx |     27784938 |     27784947 |     27784947 |xxxxxxxxxxxxx |xxxxxxxxxxxxx |xxxxxxxxxxxxx |xxxxxxxxxxxxx |     58940203 |     58940211 |     58940211 |xxxxxxxxxxxxx |xxxxxxxxxxxxx |xxxxxxxxxxxxx |xxxxxxxxxxxxx |    122176616 |    122176624 |    122176624 |xxxxxxxxxxxxx |xxxxxxxxxxxxx |xxxxxxxxxxxxx |xxxxxxxxxxxxx |    256036283 |    256036291 |    256036291 |
bpred_bimod.dir_hits                        140870 |       140877 |       140877 |xxxxxxxxxxxxx |xxxxxxxxxxxxx |xxxxxxxxxxxxx |xxxxxxxxxxxxx |       303707 |       303714 |       303716 |xxxxxxxxxxxxx |xxxxxxxxxxxxx |xxxxxxxxxxxxx |xxxxxxxxxxxxx |       658710 |       658712 |       658711 |xxxxxxxxxxxxx |xxxxxxxxxxxxx |xxxxxxxxxxxxx |xxxxxxxxxxxxx |      1384629 |      1384636 |      1384636 |xxxxxxxxxxxxx |xxxxxxxxxxxxx |xxxxxxxxxxxxx |xxxxxxxxxxxxx |      2946338 |      2946345 |      2946345 |xxxxxxxxxxxxx |xxxxxxxxxxxxx |xxxxxxxxxxxxx |xxxxxxxxxxxxx |      6313754 |      6313762 |      6313761 |xxxxxxxxxxxxx |xxxxxxxxxxxxx |xxxxxxxxxxxxx |xxxxxxxxxxxxx |     13161462 |     13161470 |     13161469 |xxxxxxxxxxxxx |xxxxxxxxxxxxx |xxxxxxxxxxxxx |xxxxxxxxxxxxx |     27785063 |     27785071 |     27785070 |xxxxxxxxxxxxx |xxxxxxxxxxxxx |xxxxxxxxxxxxx |xxxxxxxxxxxxx |     58940341 |     58940347 |     58940346 |xxxxxxxxxxxxx |xxxxxxxxxxxxx |xxxxxxxxxxxxx |xxxxxxxxxxxxx |    122176754 |    122176760 |    122176759 |xxxxxxxxxxxxx |xxxxxxxxxxxxx |xxxxxxxxxxxxx |xxxxxxxxxxxxx |    256036422 |    256036428 |    256036427 |
bpred_bimod.misses                           31188 |        31181 |        31181 |xxxxxxxxxxxxx |xxxxxxxxxxxxx |xxxxxxxxxxxxx |xxxxxxxxxxxxx |        67279 |        67272 |        67270 |xxxxxxxxxxxxx |xxxxxxxxxxxxx |xxxxxxxxxxxxx |xxxxxxxxxxxxx |       142709 |       142707 |       142708 |xxxxxxxxxxxxx |xxxxxxxxxxxxx |xxxxxxxxxxxxx |xxxxxxxxxxxxx |       311394 |       311387 |       311387 |xxxxxxxxxxxxx |xxxxxxxxxxxxx |xxxxxxxxxxxxx |xxxxxxxxxxxxx |       667001 |       666994 |       666994 |xxxxxxxxxxxxx |xxxxxxxxxxxxx |xxxxxxxxxxxxx |xxxxxxxxxxxxx |      1402081 |      1402073 |      1402074 |xxxxxxxxxxxxx |xxxxxxxxxxxxx |xxxxxxxxxxxxx |xxxxxxxxxxxxx |      3017110 |      3017102 |      3017103 |xxxxxxxxxxxxx |xxxxxxxxxxxxx |xxxxxxxxxxxxx |xxxxxxxxxxxxx |      6355705 |      6355697 |      6355698 |xxxxxxxxxxxxx |xxxxxxxxxxxxx |xxxxxxxxxxxxx |xxxxxxxxxxxxx |     13264164 |     13264158 |     13264159 |xxxxxxxxxxxxx |xxxxxxxxxxxxx |xxxxxxxxxxxxx |xxxxxxxxxxxxx |     28217588 |     28217582 |     28217583 |xxxxxxxxxxxxx |xxxxxxxxxxxxx |xxxxxxxxxxxxx |xxxxxxxxxxxxx |     59034928 |     59034922 |     59034923 |
bpred_bimod.jr_hits                           4157 |         4157 |         4157 |xxxxxxxxxxxxx |xxxxxxxxxxxxx |xxxxxxxxxxxxx |xxxxxxxxxxxxx |         8261 |         8261 |         8261 |xxxxxxxxxxxxx |xxxxxxxxxxxxx |xxxxxxxxxxxxx |xxxxxxxxxxxxx |        16453 |        16453 |        16453 |xxxxxxxxxxxxx |xxxxxxxxxxxxx |xxxxxxxxxxxxx |xxxxxxxxxxxxx |        32837 |        32837 |        32837 |xxxxxxxxxxxxx |xxxxxxxxxxxxx |xxxxxxxxxxxxx |xxxxxxxxxxxxx |        65605 |        65605 |        65605 |xxxxxxxxxxxxx |xxxxxxxxxxxxx |xxxxxxxxxxxxx |xxxxxxxxxxxxx |       131141 |       131141 |       131141 |xxxxxxxxxxxxx |xxxxxxxxxxxxx |xxxxxxxxxxxxx |xxxxxxxxxxxxx |       262213 |       262213 |       262213 |xxxxxxxxxxxxx |xxxxxxxxxxxxx |xxxxxxxxxxxxx |xxxxxxxxxxxxx |       524357 |       524357 |       524357 |xxxxxxxxxxxxx |xxxxxxxxxxxxx |xxxxxxxxxxxxx |xxxxxxxxxxxxx |      1048648 |      1048648 |      1048648 |xxxxxxxxxxxxx |xxxxxxxxxxxxx |xxxxxxxxxxxxx |xxxxxxxxxxxxx |      2097224 |      2097224 |      2097224 |xxxxxxxxxxxxx |xxxxxxxxxxxxx |xxxxxxxxxxxxx |xxxxxxxxxxxxx |      4194376 |      4194376 |      4194376 |
bpred_bimod.jr_seen                           4157 |         4157 |         4157 |xxxxxxxxxxxxx |xxxxxxxxxxxxx |xxxxxxxxxxxxx |xxxxxxxxxxxxx |         8262 |         8262 |         8262 |xxxxxxxxxxxxx |xxxxxxxxxxxxx |xxxxxxxxxxxxx |xxxxxxxxxxxxx |        16454 |        16454 |        16454 |xxxxxxxxxxxxx |xxxxxxxxxxxxx |xxxxxxxxxxxxx |xxxxxxxxxxxxx |        32838 |        32838 |        32838 |xxxxxxxxxxxxx |xxxxxxxxxxxxx |xxxxxxxxxxxxx |xxxxxxxxxxxxx |        65606 |        65606 |        65606 |xxxxxxxxxxxxx |xxxxxxxxxxxxx |xxxxxxxxxxxxx |xxxxxxxxxxxxx |       131142 |       131142 |       131142 |xxxxxxxxxxxxx |xxxxxxxxxxxxx |xxxxxxxxxxxxx |xxxxxxxxxxxxx |       262214 |       262214 |       262214 |xxxxxxxxxxxxx |xxxxxxxxxxxxx |xxxxxxxxxxxxx |xxxxxxxxxxxxx |       524358 |       524358 |       524358 |xxxxxxxxxxxxx |xxxxxxxxxxxxx |xxxxxxxxxxxxx |xxxxxxxxxxxxx |      1048649 |      1048649 |      1048649 |xxxxxxxxxxxxx |xxxxxxxxxxxxx |xxxxxxxxxxxxx |xxxxxxxxxxxxx |      2097225 |      2097225 |      2097225 |xxxxxxxxxxxxx |xxxxxxxxxxxxx |xxxxxxxxxxxxx |xxxxxxxxxxxxx |      4194377 |      4194377 |      4194377 |
bpred_bimod.jr_non_ras_hits.PP                   0 |            0 |            0 |xxxxxxxxxxxxx |xxxxxxxxxxxxx |xxxxxxxxxxxxx |xxxxxxxxxxxxx |            0 |            0 |            0 |xxxxxxxxxxxxx |xxxxxxxxxxxxx |xxxxxxxxxxxxx |xxxxxxxxxxxxx |            0 |            0 |            0 |xxxxxxxxxxxxx |xxxxxxxxxxxxx |xxxxxxxxxxxxx |xxxxxxxxxxxxx |            0 |            0 |            0 |xxxxxxxxxxxxx |xxxxxxxxxxxxx |xxxxxxxxxxxxx |xxxxxxxxxxxxx |            0 |            0 |            0 |xxxxxxxxxxxxx |xxxxxxxxxxxxx |xxxxxxxxxxxxx |xxxxxxxxxxxxx |            0 |            0 |            0 |xxxxxxxxxxxxx |xxxxxxxxxxxxx |xxxxxxxxxxxxx |xxxxxxxxxxxxx |            0 |            0 |            0 |xxxxxxxxxxxxx |xxxxxxxxxxxxx |xxxxxxxxxxxxx |xxxxxxxxxxxxx |            0 |            0 |            0 |xxxxxxxxxxxxx |xxxxxxxxxxxxx |xxxxxxxxxxxxx |xxxxxxxxxxxxx |            0 |            0 |            0 |xxxxxxxxxxxxx |xxxxxxxxxxxxx |xxxxxxxxxxxxx |xxxxxxxxxxxxx |            0 |            0 |            0 |xxxxxxxxxxxxx |xxxxxxxxxxxxx |xxxxxxxxxxxxx |xxxxxxxxxxxxx |            0 |            0 |            0 |
bpred_bimod.jr_non_ras_seen.PP                   0 |            0 |            0 |xxxxxxxxxxxxx |xxxxxxxxxxxxx |xxxxxxxxxxxxx |xxxxxxxxxxxxx |            0 |            0 |            0 |xxxxxxxxxxxxx |xxxxxxxxxxxxx |xxxxxxxxxxxxx |xxxxxxxxxxxxx |            0 |            0 |            0 |xxxxxxxxxxxxx |xxxxxxxxxxxxx |xxxxxxxxxxxxx |xxxxxxxxxxxxx |            0 |            0 |            0 |xxxxxxxxxxxxx |xxxxxxxxxxxxx |xxxxxxxxxxxxx |xxxxxxxxxxxxx |            0 |            0 |            0 |xxxxxxxxxxxxx |xxxxxxxxxxxxx |xxxxxxxxxxxxx |xxxxxxxxxxxxx |            0 |            0 |            0 |xxxxxxxxxxxxx |xxxxxxxxxxxxx |xxxxxxxxxxxxx |xxxxxxxxxxxxx |            0 |            0 |            0 |xxxxxxxxxxxxx |xxxxxxxxxxxxx |xxxxxxxxxxxxx |xxxxxxxxxxxxx |            0 |            0 |            0 |xxxxxxxxxxxxx |xxxxxxxxxxxxx |xxxxxxxxxxxxx |xxxxxxxxxxxxx |            1 |            1 |            1 |xxxxxxxxxxxxx |xxxxxxxxxxxxx |xxxxxxxxxxxxx |xxxxxxxxxxxxx |            1 |            1 |            1 |xxxxxxxxxxxxx |xxxxxxxxxxxxx |xxxxxxxxxxxxx |xxxxxxxxxxxxx |            1 |            1 |            1 |
bpred_bimod.bpred_addr_rate                 0.8180 |       0.8181 |       0.8181 |xxxxxxxxxxxxx |xxxxxxxxxxxxx |xxxxxxxxxxxxx |xxxxxxxxxxxxx |       0.8183 |       0.8183 |       0.8183 |xxxxxxxxxxxxx |xxxxxxxxxxxxx |xxxxxxxxxxxxx |xxxxxxxxxxxxx |       0.8218 |       0.8218 |       0.8218 |xxxxxxxxxxxxx |xxxxxxxxxxxxx |xxxxxxxxxxxxx |xxxxxxxxxxxxx |       0.8163 |       0.8163 |       0.8163 |xxxxxxxxxxxxx |xxxxxxxxxxxxx |xxxxxxxxxxxxx |xxxxxxxxxxxxx |       0.8154 |       0.8154 |       0.8154 |xxxxxxxxxxxxx |xxxxxxxxxxxxx |xxxxxxxxxxxxx |xxxxxxxxxxxxx |       0.8183 |       0.8183 |       0.8183 |xxxxxxxxxxxxx |xxxxxxxxxxxxx |xxxxxxxxxxxxx |xxxxxxxxxxxxx |       0.8135 |       0.8135 |       0.8135 |xxxxxxxxxxxxx |xxxxxxxxxxxxx |xxxxxxxxxxxxx |xxxxxxxxxxxxx |       0.8138 |       0.8138 |       0.8138 |xxxxxxxxxxxxx |xxxxxxxxxxxxx |xxxxxxxxxxxxx |xxxxxxxxxxxxx |       0.8163 |       0.8163 |       0.8163 |xxxxxxxxxxxxx |xxxxxxxxxxxxx |xxxxxxxxxxxxx |xxxxxxxxxxxxx |       0.8124 |       0.8124 |       0.8124 |xxxxxxxxxxxxx |xxxxxxxxxxxxx |xxxxxxxxxxxxx |xxxxxxxxxxxxx |       0.8126 |       0.8126 |       0.8126 |
bpred_bimod.bpred_dir_rate                  0.8187 |       0.8188 |       0.8188 |xxxxxxxxxxxxx |xxxxxxxxxxxxx |xxxxxxxxxxxxx |xxxxxxxxxxxxx |       0.8186 |       0.8187 |       0.8187 |xxxxxxxxxxxxx |xxxxxxxxxxxxx |xxxxxxxxxxxxx |xxxxxxxxxxxxx |       0.8219 |       0.8219 |       0.8219 |xxxxxxxxxxxxx |xxxxxxxxxxxxx |xxxxxxxxxxxxx |xxxxxxxxxxxxx |       0.8164 |       0.8164 |       0.8164 |xxxxxxxxxxxxx |xxxxxxxxxxxxx |xxxxxxxxxxxxx |xxxxxxxxxxxxx |       0.8154 |       0.8154 |       0.8154 |xxxxxxxxxxxxx |xxxxxxxxxxxxx |xxxxxxxxxxxxx |xxxxxxxxxxxxx |       0.8183 |       0.8183 |       0.8183 |xxxxxxxxxxxxx |xxxxxxxxxxxxx |xxxxxxxxxxxxx |xxxxxxxxxxxxx |       0.8135 |       0.8135 |       0.8135 |xxxxxxxxxxxxx |xxxxxxxxxxxxx |xxxxxxxxxxxxx |xxxxxxxxxxxxx |       0.8138 |       0.8138 |       0.8138 |xxxxxxxxxxxxx |xxxxxxxxxxxxx |xxxxxxxxxxxxx |xxxxxxxxxxxxx |       0.8163 |       0.8163 |       0.8163 |xxxxxxxxxxxxx |xxxxxxxxxxxxx |xxxxxxxxxxxxx |xxxxxxxxxxxxx |       0.8124 |       0.8124 |       0.8124 |xxxxxxxxxxxxx |xxxxxxxxxxxxx |xxxxxxxxxxxxx |xxxxxxxxxxxxx |       0.8126 |       0.8126 |       0.8126 |
bpred_bimod.bpred_jr_rate                   1.0000 |       1.0000 |       1.0000 |xxxxxxxxxxxxx |xxxxxxxxxxxxx |xxxxxxxxxxxxx |xxxxxxxxxxxxx |       0.9999 |       0.9999 |       0.9999 |xxxxxxxxxxxxx |xxxxxxxxxxxxx |xxxxxxxxxxxxx |xxxxxxxxxxxxx |       0.9999 |       0.9999 |       0.9999 |xxxxxxxxxxxxx |xxxxxxxxxxxxx |xxxxxxxxxxxxx |xxxxxxxxxxxxx |       1.0000 |       1.0000 |       1.0000 |xxxxxxxxxxxxx |xxxxxxxxxxxxx |xxxxxxxxxxxxx |xxxxxxxxxxxxx |       1.0000 |       1.0000 |       1.0000 |xxxxxxxxxxxxx |xxxxxxxxxxxxx |xxxxxxxxxxxxx |xxxxxxxxxxxxx |       1.0000 |       1.0000 |       1.0000 |xxxxxxxxxxxxx |xxxxxxxxxxxxx |xxxxxxxxxxxxx |xxxxxxxxxxxxx |       1.0000 |       1.0000 |       1.0000 |xxxxxxxxxxxxx |xxxxxxxxxxxxx |xxxxxxxxxxxxx |xxxxxxxxxxxxx |       1.0000 |       1.0000 |       1.0000 |xxxxxxxxxxxxx |xxxxxxxxxxxxx |xxxxxxxxxxxxx |xxxxxxxxxxxxx |       1.0000 |       1.0000 |       1.0000 |xxxxxxxxxxxxx |xxxxxxxxxxxxx |xxxxxxxxxxxxx |xxxxxxxxxxxxx |       1.0000 |       1.0000 |       1.0000 |xxxxxxxxxxxxx |xxxxxxxxxxxxx |xxxxxxxxxxxxx |xxxxxxxxxxxxx |       1.0000 |       1.0000 |       1.0000 |
bpred_bimod.bpred_jr_non_ras_rate.PP       <error: |      <error: |      <error: |xxxxxxxxxxxxx |xxxxxxxxxxxxx |xxxxxxxxxxxxx |xxxxxxxxxxxxx |      <error: |      <error: |      <error: |xxxxxxxxxxxxx |xxxxxxxxxxxxx |xxxxxxxxxxxxx |xxxxxxxxxxxxx |      <error: |      <error: |      <error: |xxxxxxxxxxxxx |xxxxxxxxxxxxx |xxxxxxxxxxxxx |xxxxxxxxxxxxx |      <error: |      <error: |      <error: |xxxxxxxxxxxxx |xxxxxxxxxxxxx |xxxxxxxxxxxxx |xxxxxxxxxxxxx |      <error: |      <error: |      <error: |xxxxxxxxxxxxx |xxxxxxxxxxxxx |xxxxxxxxxxxxx |xxxxxxxxxxxxx |      <error: |      <error: |      <error: |xxxxxxxxxxxxx |xxxxxxxxxxxxx |xxxxxxxxxxxxx |xxxxxxxxxxxxx |      <error: |      <error: |      <error: |xxxxxxxxxxxxx |xxxxxxxxxxxxx |xxxxxxxxxxxxx |xxxxxxxxxxxxx |      <error: |      <error: |      <error: |xxxxxxxxxxxxx |xxxxxxxxxxxxx |xxxxxxxxxxxxx |xxxxxxxxxxxxx |       0.0000 |       0.0000 |       0.0000 |xxxxxxxxxxxxx |xxxxxxxxxxxxx |xxxxxxxxxxxxx |xxxxxxxxxxxxx |       0.0000 |       0.0000 |       0.0000 |xxxxxxxxxxxxx |xxxxxxxxxxxxx |xxxxxxxxxxxxx |xxxxxxxxxxxxx |       0.0000 |       0.0000 |       0.0000 |
bpred_bimod.retstack_pushes                   4159 |         4159 |         4159 |xxxxxxxxxxxxx |xxxxxxxxxxxxx |xxxxxxxxxxxxx |xxxxxxxxxxxxx |         8264 |         8264 |         8264 |xxxxxxxxxxxxx |xxxxxxxxxxxxx |xxxxxxxxxxxxx |xxxxxxxxxxxxx |        16456 |        16456 |        16456 |xxxxxxxxxxxxx |xxxxxxxxxxxxx |xxxxxxxxxxxxx |xxxxxxxxxxxxx |        32840 |        32840 |        32840 |xxxxxxxxxxxxx |xxxxxxxxxxxxx |xxxxxxxxxxxxx |xxxxxxxxxxxxx |        65608 |        65608 |        65608 |xxxxxxxxxxxxx |xxxxxxxxxxxxx |xxxxxxxxxxxxx |xxxxxxxxxxxxx |       131144 |       131144 |       131144 |xxxxxxxxxxxxx |xxxxxxxxxxxxx |xxxxxxxxxxxxx |xxxxxxxxxxxxx |       262216 |       262216 |       262216 |xxxxxxxxxxxxx |xxxxxxxxxxxxx |xxxxxxxxxxxxx |xxxxxxxxxxxxx |       524360 |       524360 |       524360 |xxxxxxxxxxxxx |xxxxxxxxxxxxx |xxxxxxxxxxxxx |xxxxxxxxxxxxx |      1048650 |      1048650 |      1048650 |xxxxxxxxxxxxx |xxxxxxxxxxxxx |xxxxxxxxxxxxx |xxxxxxxxxxxxx |      2097226 |      2097226 |      2097226 |xxxxxxxxxxxxx |xxxxxxxxxxxxx |xxxxxxxxxxxxx |xxxxxxxxxxxxx |      4194378 |      4194378 |      4194378 |
bpred_bimod.retstack_pops                     4157 |         4157 |         4157 |xxxxxxxxxxxxx |xxxxxxxxxxxxx |xxxxxxxxxxxxx |xxxxxxxxxxxxx |         8262 |         8262 |         8262 |xxxxxxxxxxxxx |xxxxxxxxxxxxx |xxxxxxxxxxxxx |xxxxxxxxxxxxx |        16454 |        16454 |        16454 |xxxxxxxxxxxxx |xxxxxxxxxxxxx |xxxxxxxxxxxxx |xxxxxxxxxxxxx |        32838 |        32838 |        32838 |xxxxxxxxxxxxx |xxxxxxxxxxxxx |xxxxxxxxxxxxx |xxxxxxxxxxxxx |        65606 |        65606 |        65606 |xxxxxxxxxxxxx |xxxxxxxxxxxxx |xxxxxxxxxxxxx |xxxxxxxxxxxxx |       131142 |       131142 |       131142 |xxxxxxxxxxxxx |xxxxxxxxxxxxx |xxxxxxxxxxxxx |xxxxxxxxxxxxx |       262214 |       262214 |       262214 |xxxxxxxxxxxxx |xxxxxxxxxxxxx |xxxxxxxxxxxxx |xxxxxxxxxxxxx |       524358 |       524358 |       524358 |xxxxxxxxxxxxx |xxxxxxxxxxxxx |xxxxxxxxxxxxx |xxxxxxxxxxxxx |      1048648 |      1048648 |      1048648 |xxxxxxxxxxxxx |xxxxxxxxxxxxx |xxxxxxxxxxxxx |xxxxxxxxxxxxx |      2097224 |      2097224 |      2097224 |xxxxxxxxxxxxx |xxxxxxxxxxxxx |xxxxxxxxxxxxx |xxxxxxxxxxxxx |      4194376 |      4194376 |      4194376 |
bpred_bimod.used_ras.PP                       4157 |         4157 |         4157 |xxxxxxxxxxxxx |xxxxxxxxxxxxx |xxxxxxxxxxxxx |xxxxxxxxxxxxx |         8262 |         8262 |         8262 |xxxxxxxxxxxxx |xxxxxxxxxxxxx |xxxxxxxxxxxxx |xxxxxxxxxxxxx |        16454 |        16454 |        16454 |xxxxxxxxxxxxx |xxxxxxxxxxxxx |xxxxxxxxxxxxx |xxxxxxxxxxxxx |        32838 |        32838 |        32838 |xxxxxxxxxxxxx |xxxxxxxxxxxxx |xxxxxxxxxxxxx |xxxxxxxxxxxxx |        65606 |        65606 |        65606 |xxxxxxxxxxxxx |xxxxxxxxxxxxx |xxxxxxxxxxxxx |xxxxxxxxxxxxx |       131142 |       131142 |       131142 |xxxxxxxxxxxxx |xxxxxxxxxxxxx |xxxxxxxxxxxxx |xxxxxxxxxxxxx |       262214 |       262214 |       262214 |xxxxxxxxxxxxx |xxxxxxxxxxxxx |xxxxxxxxxxxxx |xxxxxxxxxxxxx |       524358 |       524358 |       524358 |xxxxxxxxxxxxx |xxxxxxxxxxxxx |xxxxxxxxxxxxx |xxxxxxxxxxxxx |      1048648 |      1048648 |      1048648 |xxxxxxxxxxxxx |xxxxxxxxxxxxx |xxxxxxxxxxxxx |xxxxxxxxxxxxx |      2097224 |      2097224 |      2097224 |xxxxxxxxxxxxx |xxxxxxxxxxxxx |xxxxxxxxxxxxx |xxxxxxxxxxxxx |      4194376 |      4194376 |      4194376 |
bpred_bimod.ras_hits.PP                       4157 |         4157 |         4157 |xxxxxxxxxxxxx |xxxxxxxxxxxxx |xxxxxxxxxxxxx |xxxxxxxxxxxxx |         8261 |         8261 |         8261 |xxxxxxxxxxxxx |xxxxxxxxxxxxx |xxxxxxxxxxxxx |xxxxxxxxxxxxx |        16453 |        16453 |        16453 |xxxxxxxxxxxxx |xxxxxxxxxxxxx |xxxxxxxxxxxxx |xxxxxxxxxxxxx |        32837 |        32837 |        32837 |xxxxxxxxxxxxx |xxxxxxxxxxxxx |xxxxxxxxxxxxx |xxxxxxxxxxxxx |        65605 |        65605 |        65605 |xxxxxxxxxxxxx |xxxxxxxxxxxxx |xxxxxxxxxxxxx |xxxxxxxxxxxxx |       131141 |       131141 |       131141 |xxxxxxxxxxxxx |xxxxxxxxxxxxx |xxxxxxxxxxxxx |xxxxxxxxxxxxx |       262213 |       262213 |       262213 |xxxxxxxxxxxxx |xxxxxxxxxxxxx |xxxxxxxxxxxxx |xxxxxxxxxxxxx |       524357 |       524357 |       524357 |xxxxxxxxxxxxx |xxxxxxxxxxxxx |xxxxxxxxxxxxx |xxxxxxxxxxxxx |      1048648 |      1048648 |      1048648 |xxxxxxxxxxxxx |xxxxxxxxxxxxx |xxxxxxxxxxxxx |xxxxxxxxxxxxx |      2097224 |      2097224 |      2097224 |xxxxxxxxxxxxx |xxxxxxxxxxxxx |xxxxxxxxxxxxx |xxxxxxxxxxxxx |      4194376 |      4194376 |      4194376 |
bpred_bimod.ras_rate.PP                     1.0000 |       1.0000 |       1.0000 |xxxxxxxxxxxxx |xxxxxxxxxxxxx |xxxxxxxxxxxxx |xxxxxxxxxxxxx |       0.9999 |       0.9999 |       0.9999 |xxxxxxxxxxxxx |xxxxxxxxxxxxx |xxxxxxxxxxxxx |xxxxxxxxxxxxx |       0.9999 |       0.9999 |       0.9999 |xxxxxxxxxxxxx |xxxxxxxxxxxxx |xxxxxxxxxxxxx |xxxxxxxxxxxxx |       1.0000 |       1.0000 |       1.0000 |xxxxxxxxxxxxx |xxxxxxxxxxxxx |xxxxxxxxxxxxx |xxxxxxxxxxxxx |       1.0000 |       1.0000 |       1.0000 |xxxxxxxxxxxxx |xxxxxxxxxxxxx |xxxxxxxxxxxxx |xxxxxxxxxxxxx |       1.0000 |       1.0000 |       1.0000 |xxxxxxxxxxxxx |xxxxxxxxxxxxx |xxxxxxxxxxxxx |xxxxxxxxxxxxx |       1.0000 |       1.0000 |       1.0000 |xxxxxxxxxxxxx |xxxxxxxxxxxxx |xxxxxxxxxxxxx |xxxxxxxxxxxxx |       1.0000 |       1.0000 |       1.0000 |xxxxxxxxxxxxx |xxxxxxxxxxxxx |xxxxxxxxxxxxx |xxxxxxxxxxxxx |       1.0000 |       1.0000 |       1.0000 |xxxxxxxxxxxxx |xxxxxxxxxxxxx |xxxxxxxxxxxxx |xxxxxxxxxxxxx |       1.0000 |       1.0000 |       1.0000 |xxxxxxxxxxxxx |xxxxxxxxxxxxx |xxxxxxxxxxxxx |xxxxxxxxxxxxx |       1.0000 |       1.0000 |       1.0000 |
bpred_2lev.lookups                   xxxxxxxxxxxxx |xxxxxxxxxxxxx |xxxxxxxxxxxxx |       172058 |       172058 |       172058 |       172058 |xxxxxxxxxxxxx |xxxxxxxxxxxxx |xxxxxxxxxxxxx |       370986 |       370986 |       370986 |       370986 |xxxxxxxxxxxxx |xxxxxxxxxxxxx |xxxxxxxxxxxxx |       801419 |       801419 |       801419 |       801419 |xxxxxxxxxxxxx |xxxxxxxxxxxxx |xxxxxxxxxxxxx |      1696023 |      1696023 |      1696023 |      1696023 |xxxxxxxxxxxxx |xxxxxxxxxxxxx |xxxxxxxxxxxxx |      3613339 |      3613339 |      3613339 |      3613339 |xxxxxxxxxxxxx |xxxxxxxxxxxxx |xxxxxxxxxxxxx |      7715835 |      7715835 |      7715835 |      7715835 |xxxxxxxxxxxxx |xxxxxxxxxxxxx |xxxxxxxxxxxxx |     16178572 |     16178572 |     16178572 |     16178572 |xxxxxxxxxxxxx |xxxxxxxxxxxxx |xxxxxxxxxxxxx |     34140768 |     34140768 |     34140768 |     34140768 |xxxxxxxxxxxxx |xxxxxxxxxxxxx |xxxxxxxxxxxxx |     72204505 |     72204505 |     72204505 |     72204505 |xxxxxxxxxxxxx |xxxxxxxxxxxxx |xxxxxxxxxxxxx |    150394342 |    150394342 |    150394342 |    150394342 |xxxxxxxxxxxxx |xxxxxxxxxxxxx |xxxxxxxxxxxxx |    315071350 |    315071350 |    315071350 |    315071350 |
[...]
bpred_2lev.retstack_pushes           xxxxxxxxxxxxx |xxxxxxxxxxxxx |xxxxxxxxxxxxx |         4159 |         4159 |         4159 |         4159 |xxxxxxxxxxxxx |xxxxxxxxxxxxx |xxxxxxxxxxxxx |         8264 |         8264 |         8264 |         8264 |xxxxxxxxxxxxx |xxxxxxxxxxxxx |xxxxxxxxxxxxx |        16456 |        16456 |        16456 |        16456 |xxxxxxxxxxxxx |xxxxxxxxxxxxx |xxxxxxxxxxxxx |        32840 |        32840 |        32840 |        32840 |xxxxxxxxxxxxx |xxxxxxxxxxxxx |xxxxxxxxxxxxx |        65608 |        65608 |        65608 |        65608 |xxxxxxxxxxxxx |xxxxxxxxxxxxx |xxxxxxxxxxxxx |       131144 |       131144 |       131144 |       131144 |xxxxxxxxxxxxx |xxxxxxxxxxxxx |xxxxxxxxxxxxx |       262216 |       262216 |       262216 |       262216 |xxxxxxxxxxxxx |xxxxxxxxxxxxx |xxxxxxxxxxxxx |       524360 |       524360 |       524360 |       524360 |xxxxxxxxxxxxx |xxxxxxxxxxxxx |xxxxxxxxxxxxx |      1048650 |      1048650 |      1048650 |      1048650 |xxxxxxxxxxxxx |xxxxxxxxxxxxx |xxxxxxxxxxxxx |      2097226 |      2097226 |      2097226 |      2097226 |xxxxxxxxxxxxx |xxxxxxxxxxxxx |xxxxxxxxxxxxx |      4194378 |      4194378 |      4194378 |      4194378 |
bpred_2lev.retstack_pops             xxxxxxxxxxxxx |xxxxxxxxxxxxx |xxxxxxxxxxxxx |         4157 |         4157 |         4157 |         4157 |xxxxxxxxxxxxx |xxxxxxxxxxxxx |xxxxxxxxxxxxx |         8262 |         8262 |         8262 |         8262 |xxxxxxxxxxxxx |xxxxxxxxxxxxx |xxxxxxxxxxxxx |        16454 |        16454 |        16454 |        16454 |xxxxxxxxxxxxx |xxxxxxxxxxxxx |xxxxxxxxxxxxx |        32838 |        32838 |        32838 |        32838 |xxxxxxxxxxxxx |xxxxxxxxxxxxx |xxxxxxxxxxxxx |        65606 |        65606 |        65606 |        65606 |xxxxxxxxxxxxx |xxxxxxxxxxxxx |xxxxxxxxxxxxx |       131142 |       131142 |       131142 |       131142 |xxxxxxxxxxxxx |xxxxxxxxxxxxx |xxxxxxxxxxxxx |       262214 |       262214 |       262214 |       262214 |xxxxxxxxxxxxx |xxxxxxxxxxxxx |xxxxxxxxxxxxx |       524358 |       524358 |       524358 |       524358 |xxxxxxxxxxxxx |xxxxxxxxxxxxx |xxxxxxxxxxxxx |      1048648 |      1048648 |      1048648 |      1048648 |xxxxxxxxxxxxx |xxxxxxxxxxxxx |xxxxxxxxxxxxx |      2097224 |      2097224 |      2097224 |      2097224 |xxxxxxxxxxxxx |xxxxxxxxxxxxx |xxxxxxxxxxxxx |      4194376 |      4194376 |      4194376 |      4194376 |
bpred_2lev.used_ras.PP               xxxxxxxxxxxxx |xxxxxxxxxxxxx |xxxxxxxxxxxxx |         4157 |         4157 |         4157 |         4157 |xxxxxxxxxxxxx |xxxxxxxxxxxxx |xxxxxxxxxxxxx |         8262 |         8262 |         8262 |         8262 |xxxxxxxxxxxxx |xxxxxxxxxxxxx |xxxxxxxxxxxxx |        16454 |        16454 |        16454 |        16454 |xxxxxxxxxxxxx |xxxxxxxxxxxxx |xxxxxxxxxxxxx |        32838 |        32838 |        32838 |        32838 |xxxxxxxxxxxxx |xxxxxxxxxxxxx |xxxxxxxxxxxxx |        65606 |        65606 |        65606 |        65606 |xxxxxxxxxxxxx |xxxxxxxxxxxxx |xxxxxxxxxxxxx |       131142 |       131142 |       131142 |       131142 |xxxxxxxxxxxxx |xxxxxxxxxxxxx |xxxxxxxxxxxxx |       262214 |       262214 |       262214 |       262214 |xxxxxxxxxxxxx |xxxxxxxxxxxxx |xxxxxxxxxxxxx |       524358 |       524358 |       524358 |       524358 |xxxxxxxxxxxxx |xxxxxxxxxxxxx |xxxxxxxxxxxxx |      1048648 |      1048648 |      1048648 |      1048648 |xxxxxxxxxxxxx |xxxxxxxxxxxxx |xxxxxxxxxxxxx |      2097224 |      2097224 |      2097224 |      2097224 |xxxxxxxxxxxxx |xxxxxxxxxxxxx |xxxxxxxxxxxxx |      4194376 |      4194376 |      4194376 |      4194376 |
bpred_2lev.ras_hits.PP               xxxxxxxxxxxxx |xxxxxxxxxxxxx |xxxxxxxxxxxxx |         4157 |         4157 |         4157 |         4157 |xxxxxxxxxxxxx |xxxxxxxxxxxxx |xxxxxxxxxxxxx |         8261 |         8261 |         8261 |         8261 |xxxxxxxxxxxxx |xxxxxxxxxxxxx |xxxxxxxxxxxxx |        16453 |        16453 |        16453 |        16453 |xxxxxxxxxxxxx |xxxxxxxxxxxxx |xxxxxxxxxxxxx |        32837 |        32837 |        32837 |        32837 |xxxxxxxxxxxxx |xxxxxxxxxxxxx |xxxxxxxxxxxxx |        65605 |        65605 |        65605 |        65605 |xxxxxxxxxxxxx |xxxxxxxxxxxxx |xxxxxxxxxxxxx |       131141 |       131141 |       131141 |       131141 |xxxxxxxxxxxxx |xxxxxxxxxxxxx |xxxxxxxxxxxxx |       262213 |       262213 |       262213 |       262213 |xxxxxxxxxxxxx |xxxxxxxxxxxxx |xxxxxxxxxxxxx |       524357 |       524357 |       524357 |       524357 |xxxxxxxxxxxxx |xxxxxxxxxxxxx |xxxxxxxxxxxxx |      1048648 |      1048648 |      1048648 |      1048648 |xxxxxxxxxxxxx |xxxxxxxxxxxxx |xxxxxxxxxxxxx |      2097224 |      2097224 |      2097224 |      2097224 |xxxxxxxxxxxxx |xxxxxxxxxxxxx |xxxxxxxxxxxxx |      4194376 |      4194376 |      4194376 |      4194376 |
bpred_2lev.ras_rate.PP               xxxxxxxxxxxxx |xxxxxxxxxxxxx |xxxxxxxxxxxxx |       1.0000 |       1.0000 |       1.0000 |       1.0000 |xxxxxxxxxxxxx |xxxxxxxxxxxxx |xxxxxxxxxxxxx |       0.9999 |       0.9999 |       0.9999 |       0.9999 |xxxxxxxxxxxxx |xxxxxxxxxxxxx |xxxxxxxxxxxxx |       0.9999 |       0.9999 |       0.9999 |       0.9999 |xxxxxxxxxxxxx |xxxxxxxxxxxxx |xxxxxxxxxxxxx |       1.0000 |       1.0000 |       1.0000 |       1.0000 |xxxxxxxxxxxxx |xxxxxxxxxxxxx |xxxxxxxxxxxxx |       1.0000 |       1.0000 |       1.0000 |       1.0000 |xxxxxxxxxxxxx |xxxxxxxxxxxxx |xxxxxxxxxxxxx |       1.0000 |       1.0000 |       1.0000 |       1.0000 |xxxxxxxxxxxxx |xxxxxxxxxxxxx |xxxxxxxxxxxxx |       1.0000 |       1.0000 |       1.0000 |       1.0000 |xxxxxxxxxxxxx |xxxxxxxxxxxxx |xxxxxxxxxxxxx |       1.0000 |       1.0000 |       1.0000 |       1.0000 |xxxxxxxxxxxxx |xxxxxxxxxxxxx |xxxxxxxxxxxxx |       1.0000 |       1.0000 |       1.0000 |       1.0000 |xxxxxxxxxxxxx |xxxxxxxxxxxxx |xxxxxxxxxxxxx |       1.0000 |       1.0000 |       1.0000 |       1.0000 |xxxxxxxxxxxxx |xxxxxxxxxxxxx |xxxxxxxxxxxxx |       1.0000 |       1.0000 |       1.0000 |       1.0000 |

Command list: 
	sslittle-na-sstrix-gcc -Wall -O3 -funroll-loops -finline-functions  -DRANDOM_SIZE=4096 -DOFFSET=4 -DSORT=cache_heapsort sorts/cache_heapsort649514330.c simpleMain.c -o cache_heapsort18068796
	sim-cache -cache:dl1 dl1:256:32:1:l -cache:dl2 dl2:131072:32:1:l -cache:il1 il1:256:32:1:l -cache:il2 dl2 cache_heapsort18068796
	sim-cache -cache:dl1 dl1:256:32:1:l -cache:dl2 dl2:65536:32:1:l -cache:il1 il1:256:32:1:l -cache:il2 dl2 cache_heapsort18068796
	sim-cache -cache:dl1 dl1:1:32:256:l -cache:dl2 dl2:1:32:131072:l -cache:il1 il1:1:32:256:l -cache:il2 dl2 cache_heapsort18068796
	sim-cache -cache:dl1 dl1:1:32:256:l -cache:dl2 dl2:1:32:65536:l -cache:il1 il1:1:32:256:l -cache:il2 dl2 cache_heapsort18068796
	sim-bpred -bpred bimod -bpred:bimod 512 cache_heapsort18068796
	sim-bpred -bpred bimod -bpred:bimod 1024 cache_heapsort18068796
	sim-bpred -bpred bimod -bpred:bimod 2048 cache_heapsort18068796
	sim-bpred -bpred 2lev -bpred:2lev 1 512 10 1 cache_heapsort18068796
	sim-bpred -bpred 2lev -bpred:2lev 1 1024 10 1 cache_heapsort18068796
	sim-bpred -bpred 2lev -bpred:2lev 1 2048 10 1 cache_heapsort18068796
	sim-bpred -bpred 2lev -bpred:2lev 1 4096 10 1 cache_heapsort18068796
	sslittle-na-sstrix-gcc -Wall -O3 -funroll-loops -finline-functions  -DRANDOM_SIZE=8192 -DOFFSET=4 -DSORT=cache_heapsort sorts/cache_heapsort649514330.c simpleMain.c -o cache_heapsort18068796
	sim-cache -cache:dl1 dl1:256:32:1:l -cache:dl2 dl2:131072:32:1:l -cache:il1 il1:256:32:1:l -cache:il2 dl2 cache_heapsort18068796
	sim-cache -cache:dl1 dl1:256:32:1:l -cache:dl2 dl2:65536:32:1:l -cache:il1 il1:256:32:1:l -cache:il2 dl2 cache_heapsort18068796
	sim-cache -cache:dl1 dl1:1:32:256:l -cache:dl2 dl2:1:32:131072:l -cache:il1 il1:1:32:256:l -cache:il2 dl2 cache_heapsort18068796
	sim-cache -cache:dl1 dl1:1:32:256:l -cache:dl2 dl2:1:32:65536:l -cache:il1 il1:1:32:256:l -cache:il2 dl2 cache_heapsort18068796
	sim-bpred -bpred bimod -bpred:bimod 512 cache_heapsort18068796
	sim-bpred -bpred bimod -bpred:bimod 1024 cache_heapsort18068796
	sim-bpred -bpred bimod -bpred:bimod 2048 cache_heapsort18068796
	sim-bpred -bpred 2lev -bpred:2lev 1 512 10 1 cache_heapsort18068796
	sim-bpred -bpred 2lev -bpred:2lev 1 1024 10 1 cache_heapsort18068796
	sim-bpred -bpred 2lev -bpred:2lev 1 2048 10 1 cache_heapsort18068796
	sim-bpred -bpred 2lev -bpred:2lev 1 4096 10 1 cache_heapsort18068796
	sslittle-na-sstrix-gcc -Wall -O3 -funroll-loops -finline-functions  -DRANDOM_SIZE=16384 -DOFFSET=4 -DSORT=cache_heapsort sorts/cache_heapsort649514330.c simpleMain.c -o cache_heapsort18068796
	sim-cache -cache:dl1 dl1:256:32:1:l -cache:dl2 dl2:131072:32:1:l -cache:il1 il1:256:32:1:l -cache:il2 dl2 cache_heapsort18068796
	sim-cache -cache:dl1 dl1:256:32:1:l -cache:dl2 dl2:65536:32:1:l -cache:il1 il1:256:32:1:l -cache:il2 dl2 cache_heapsort18068796
	sim-cache -cache:dl1 dl1:1:32:256:l -cache:dl2 dl2:1:32:131072:l -cache:il1 il1:1:32:256:l -cache:il2 dl2 cache_heapsort18068796
	sim-cache -cache:dl1 dl1:1:32:256:l -cache:dl2 dl2:1:32:65536:l -cache:il1 il1:1:32:256:l -cache:il2 dl2 cache_heapsort18068796
	sim-bpred -bpred bimod -bpred:bimod 512 cache_heapsort18068796
	sim-bpred -bpred bimod -bpred:bimod 1024 cache_heapsort18068796
	sim-bpred -bpred bimod -bpred:bimod 2048 cache_heapsort18068796
	sim-bpred -bpred 2lev -bpred:2lev 1 512 10 1 cache_heapsort18068796
	sim-bpred -bpred 2lev -bpred:2lev 1 1024 10 1 cache_heapsort18068796
	sim-bpred -bpred 2lev -bpred:2lev 1 2048 10 1 cache_heapsort18068796
	sim-bpred -bpred 2lev -bpred:2lev 1 4096 10 1 cache_heapsort18068796
	sslittle-na-sstrix-gcc -Wall -O3 -funroll-loops -finline-functions  -DRANDOM_SIZE=32768 -DOFFSET=4 -DSORT=cache_heapsort sorts/cache_heapsort649514330.c simpleMain.c -o cache_heapsort18068796
	sim-cache -cache:dl1 dl1:256:32:1:l -cache:dl2 dl2:131072:32:1:l -cache:il1 il1:256:32:1:l -cache:il2 dl2 cache_heapsort18068796
	sim-cache -cache:dl1 dl1:256:32:1:l -cache:dl2 dl2:65536:32:1:l -cache:il1 il1:256:32:1:l -cache:il2 dl2 cache_heapsort18068796
	sim-cache -cache:dl1 dl1:1:32:256:l -cache:dl2 dl2:1:32:131072:l -cache:il1 il1:1:32:256:l -cache:il2 dl2 cache_heapsort18068796
	sim-cache -cache:dl1 dl1:1:32:256:l -cache:dl2 dl2:1:32:65536:l -cache:il1 il1:1:32:256:l -cache:il2 dl2 cache_heapsort18068796
	sim-bpred -bpred bimod -bpred:bimod 512 cache_heapsort18068796
	sim-bpred -bpred bimod -bpred:bimod 1024 cache_heapsort18068796
	sim-bpred -bpred bimod -bpred:bimod 2048 cache_heapsort18068796
	sim-bpred -bpred 2lev -bpred:2lev 1 512 10 1 cache_heapsort18068796
	sim-bpred -bpred 2lev -bpred:2lev 1 1024 10 1 cache_heapsort18068796
	sim-bpred -bpred 2lev -bpred:2lev 1 2048 10 1 cache_heapsort18068796
	sim-bpred -bpred 2lev -bpred:2lev 1 4096 10 1 cache_heapsort18068796
	sslittle-na-sstrix-gcc -Wall -O3 -funroll-loops -finline-functions  -DRANDOM_SIZE=65536 -DOFFSET=4 -DSORT=cache_heapsort sorts/cache_heapsort649514330.c simpleMain.c -o cache_heapsort18068796
	sim-cache -cache:dl1 dl1:256:32:1:l -cache:dl2 dl2:131072:32:1:l -cache:il1 il1:256:32:1:l -cache:il2 dl2 cache_heapsort18068796
	sim-cache -cache:dl1 dl1:256:32:1:l -cache:dl2 dl2:65536:32:1:l -cache:il1 il1:256:32:1:l -cache:il2 dl2 cache_heapsort18068796
	sim-cache -cache:dl1 dl1:1:32:256:l -cache:dl2 dl2:1:32:131072:l -cache:il1 il1:1:32:256:l -cache:il2 dl2 cache_heapsort18068796
	sim-cache -cache:dl1 dl1:1:32:256:l -cache:dl2 dl2:1:32:65536:l -cache:il1 il1:1:32:256:l -cache:il2 dl2 cache_heapsort18068796
	sim-bpred -bpred bimod -bpred:bimod 512 cache_heapsort18068796
	sim-bpred -bpred bimod -bpred:bimod 1024 cache_heapsort18068796
	sim-bpred -bpred bimod -bpred:bimod 2048 cache_heapsort18068796
	sim-bpred -bpred 2lev -bpred:2lev 1 512 10 1 cache_heapsort18068796
	sim-bpred -bpred 2lev -bpred:2lev 1 1024 10 1 cache_heapsort18068796
	sim-bpred -bpred 2lev -bpred:2lev 1 2048 10 1 cache_heapsort18068796
	sim-bpred -bpred 2lev -bpred:2lev 1 4096 10 1 cache_heapsort18068796
	sslittle-na-sstrix-gcc -Wall -O3 -funroll-loops -finline-functions  -DRANDOM_SIZE=131072 -DOFFSET=4 -DSORT=cache_heapsort sorts/cache_heapsort649514330.c simpleMain.c -o cache_heapsort18068796
	sim-cache -cache:dl1 dl1:256:32:1:l -cache:dl2 dl2:131072:32:1:l -cache:il1 il1:256:32:1:l -cache:il2 dl2 cache_heapsort18068796
	sim-cache -cache:dl1 dl1:256:32:1:l -cache:dl2 dl2:65536:32:1:l -cache:il1 il1:256:32:1:l -cache:il2 dl2 cache_heapsort18068796
	sim-cache -cache:dl1 dl1:1:32:256:l -cache:dl2 dl2:1:32:131072:l -cache:il1 il1:1:32:256:l -cache:il2 dl2 cache_heapsort18068796
	sim-cache -cache:dl1 dl1:1:32:256:l -cache:dl2 dl2:1:32:65536:l -cache:il1 il1:1:32:256:l -cache:il2 dl2 cache_heapsort18068796
	sim-bpred -bpred bimod -bpred:bimod 512 cache_heapsort18068796
	sim-bpred -bpred bimod -bpred:bimod 1024 cache_heapsort18068796
	sim-bpred -bpred bimod -bpred:bimod 2048 cache_heapsort18068796
	sim-bpred -bpred 2lev -bpred:2lev 1 512 10 1 cache_heapsort18068796
	sim-bpred -bpred 2lev -bpred:2lev 1 1024 10 1 cache_heapsort18068796
	sim-bpred -bpred 2lev -bpred:2lev 1 2048 10 1 cache_heapsort18068796
	sim-bpred -bpred 2lev -bpred:2lev 1 4096 10 1 cache_heapsort18068796
	sslittle-na-sstrix-gcc -Wall -O3 -funroll-loops -finline-functions  -DRANDOM_SIZE=262144 -DOFFSET=4 -DSORT=cache_heapsort sorts/cache_heapsort649514330.c simpleMain.c -o cache_heapsort18068796
	sim-cache -cache:dl1 dl1:256:32:1:l -cache:dl2 dl2:131072:32:1:l -cache:il1 il1:256:32:1:l -cache:il2 dl2 cache_heapsort18068796
	sim-cache -cache:dl1 dl1:256:32:1:l -cache:dl2 dl2:65536:32:1:l -cache:il1 il1:256:32:1:l -cache:il2 dl2 cache_heapsort18068796
	sim-cache -cache:dl1 dl1:1:32:256:l -cache:dl2 dl2:1:32:131072:l -cache:il1 il1:1:32:256:l -cache:il2 dl2 cache_heapsort18068796
	sim-cache -cache:dl1 dl1:1:32:256:l -cache:dl2 dl2:1:32:65536:l -cache:il1 il1:1:32:256:l -cache:il2 dl2 cache_heapsort18068796
	sim-bpred -bpred bimod -bpred:bimod 512 cache_heapsort18068796
	sim-bpred -bpred bimod -bpred:bimod 1024 cache_heapsort18068796
	sim-bpred -bpred bimod -bpred:bimod 2048 cache_heapsort18068796
	sim-bpred -bpred 2lev -bpred:2lev 1 512 10 1 cache_heapsort18068796
	sim-bpred -bpred 2lev -bpred:2lev 1 1024 10 1 cache_heapsort18068796
	sim-bpred -bpred 2lev -bpred:2lev 1 2048 10 1 cache_heapsort18068796
	sim-bpred -bpred 2lev -bpred:2lev 1 4096 10 1 cache_heapsort18068796
	sslittle-na-sstrix-gcc -Wall -O3 -funroll-loops -finline-functions  -DRANDOM_SIZE=524288 -DOFFSET=4 -DSORT=cache_heapsort sorts/cache_heapsort649514330.c simpleMain.c -o cache_heapsort18068796
	sim-cache -cache:dl1 dl1:256:32:1:l -cache:dl2 dl2:131072:32:1:l -cache:il1 il1:256:32:1:l -cache:il2 dl2 cache_heapsort18068796
	sim-cache -cache:dl1 dl1:256:32:1:l -cache:dl2 dl2:65536:32:1:l -cache:il1 il1:256:32:1:l -cache:il2 dl2 cache_heapsort18068796
	sim-cache -cache:dl1 dl1:1:32:256:l -cache:dl2 dl2:1:32:131072:l -cache:il1 il1:1:32:256:l -cache:il2 dl2 cache_heapsort18068796
	sim-cache -cache:dl1 dl1:1:32:256:l -cache:dl2 dl2:1:32:65536:l -cache:il1 il1:1:32:256:l -cache:il2 dl2 cache_heapsort18068796
	sim-bpred -bpred bimod -bpred:bimod 512 cache_heapsort18068796
	sim-bpred -bpred bimod -bpred:bimod 1024 cache_heapsort18068796
	sim-bpred -bpred bimod -bpred:bimod 2048 cache_heapsort18068796
	sim-bpred -bpred 2lev -bpred:2lev 1 512 10 1 cache_heapsort18068796
	sim-bpred -bpred 2lev -bpred:2lev 1 1024 10 1 cache_heapsort18068796
	sim-bpred -bpred 2lev -bpred:2lev 1 2048 10 1 cache_heapsort18068796
	sim-bpred -bpred 2lev -bpred:2lev 1 4096 10 1 cache_heapsort18068796
	sslittle-na-sstrix-gcc -Wall -O3 -funroll-loops -finline-functions  -DRANDOM_SIZE=1048576 -DOFFSET=4 -DSORT=cache_heapsort sorts/cache_heapsort649514330.c simpleMain.c -o cache_heapsort18068796
	sim-cache -cache:dl1 dl1:256:32:1:l -cache:dl2 dl2:131072:32:1:l -cache:il1 il1:256:32:1:l -cache:il2 dl2 cache_heapsort18068796
	sim-cache -cache:dl1 dl1:256:32:1:l -cache:dl2 dl2:65536:32:1:l -cache:il1 il1:256:32:1:l -cache:il2 dl2 cache_heapsort18068796
	sim-cache -cache:dl1 dl1:1:32:256:l -cache:dl2 dl2:1:32:131072:l -cache:il1 il1:1:32:256:l -cache:il2 dl2 cache_heapsort18068796
	sim-cache -cache:dl1 dl1:1:32:256:l -cache:dl2 dl2:1:32:65536:l -cache:il1 il1:1:32:256:l -cache:il2 dl2 cache_heapsort18068796
	sim-bpred -bpred bimod -bpred:bimod 512 cache_heapsort18068796
	sim-bpred -bpred bimod -bpred:bimod 1024 cache_heapsort18068796
	sim-bpred -bpred bimod -bpred:bimod 2048 cache_heapsort18068796
	sim-bpred -bpred 2lev -bpred:2lev 1 512 10 1 cache_heapsort18068796
	sim-bpred -bpred 2lev -bpred:2lev 1 1024 10 1 cache_heapsort18068796
	sim-bpred -bpred 2lev -bpred:2lev 1 2048 10 1 cache_heapsort18068796
	sim-bpred -bpred 2lev -bpred:2lev 1 4096 10 1 cache_heapsort18068796
	sslittle-na-sstrix-gcc -Wall -O3 -funroll-loops -finline-functions  -DRANDOM_SIZE=2097152 -DOFFSET=4 -DSORT=cache_heapsort sorts/cache_heapsort649514330.c simpleMain.c -o cache_heapsort18068796
	sim-cache -cache:dl1 dl1:256:32:1:l -cache:dl2 dl2:131072:32:1:l -cache:il1 il1:256:32:1:l -cache:il2 dl2 cache_heapsort18068796
	sim-cache -cache:dl1 dl1:256:32:1:l -cache:dl2 dl2:65536:32:1:l -cache:il1 il1:256:32:1:l -cache:il2 dl2 cache_heapsort18068796
	sim-cache -cache:dl1 dl1:1:32:256:l -cache:dl2 dl2:1:32:131072:l -cache:il1 il1:1:32:256:l -cache:il2 dl2 cache_heapsort18068796
	sim-cache -cache:dl1 dl1:1:32:256:l -cache:dl2 dl2:1:32:65536:l -cache:il1 il1:1:32:256:l -cache:il2 dl2 cache_heapsort18068796
	sim-bpred -bpred bimod -bpred:bimod 512 cache_heapsort18068796
	sim-bpred -bpred bimod -bpred:bimod 1024 cache_heapsort18068796
	sim-bpred -bpred bimod -bpred:bimod 2048 cache_heapsort18068796
	sim-bpred -bpred 2lev -bpred:2lev 1 512 10 1 cache_heapsort18068796
	sim-bpred -bpred 2lev -bpred:2lev 1 1024 10 1 cache_heapsort18068796
	sim-bpred -bpred 2lev -bpred:2lev 1 2048 10 1 cache_heapsort18068796
	sim-bpred -bpred 2lev -bpred:2lev 1 4096 10 1 cache_heapsort18068796
	sslittle-na-sstrix-gcc -Wall -O3 -funroll-loops -finline-functions  -DRANDOM_SIZE=4194304 -DOFFSET=4 -DSORT=cache_heapsort sorts/cache_heapsort649514330.c simpleMain.c -o cache_heapsort18068796
	sim-cache -cache:dl1 dl1:256:32:1:l -cache:dl2 dl2:131072:32:1:l -cache:il1 il1:256:32:1:l -cache:il2 dl2 cache_heapsort18068796
	sim-cache -cache:dl1 dl1:256:32:1:l -cache:dl2 dl2:65536:32:1:l -cache:il1 il1:256:32:1:l -cache:il2 dl2 cache_heapsort18068796
	sim-cache -cache:dl1 dl1:1:32:256:l -cache:dl2 dl2:1:32:131072:l -cache:il1 il1:1:32:256:l -cache:il2 dl2 cache_heapsort18068796
	sim-cache -cache:dl1 dl1:1:32:256:l -cache:dl2 dl2:1:32:65536:l -cache:il1 il1:1:32:256:l -cache:il2 dl2 cache_heapsort18068796
	sim-bpred -bpred bimod -bpred:bimod 512 cache_heapsort18068796
	sim-bpred -bpred bimod -bpred:bimod 1024 cache_heapsort18068796
	sim-bpred -bpred bimod -bpred:bimod 2048 cache_heapsort18068796
	sim-bpred -bpred 2lev -bpred:2lev 1 512 10 1 cache_heapsort18068796
	sim-bpred -bpred 2lev -bpred:2lev 1 1024 10 1 cache_heapsort18068796
	sim-bpred -bpred 2lev -bpred:2lev 1 2048 10 1 cache_heapsort18068796
	sim-bpred -bpred 2lev -bpred:2lev 1 4096 10 1 cache_heapsort18068796
