Tue Jul 26 22:58:58 2005
Run as: "./do_simple -c 16_byte_cache_line_random.org7 -o 7 -L 16 cache4_heapsort"
-------------------------------------------------------------------------------------------------
sim-cache                                     4096 |         4096 |         4096 |         4096 |         8192 |         8192 |         8192 |         8192 |        16384 |        16384 |        16384 |        16384 |        32768 |        32768 |        32768 |        32768 |        65536 |        65536 |        65536 |        65536 |       131072 |       131072 |       131072 |       131072 |       262144 |       262144 |       262144 |       262144 |       524288 |       524288 |       524288 |       524288 |      1048576 |      1048576 |      1048576 |      1048576 |      2097152 |      2097152 |      2097152 |      2097152 |      4194304 |      4194304 |      4194304 |      4194304 |
-cache:dl1 dl1:512:16:1:l -cache:dl2 dl2:262144:16:1:l -cache:il1 il1:512:16:1:l -cache:il2 dl2
-cache:dl1 dl1:512:16:1:l -cache:dl2 dl2:131072:16:1:l -cache:il1 il1:512:16:1:l -cache:il2 dl2
-cache:dl1 dl1:1:16:512:l -cache:dl2 dl2:1:16:262144:l -cache:il1 il1:1:16:512:l -cache:il2 dl2
-cache:dl1 dl1:1:16:512:l -cache:dl2 dl2:1:16:131072:l -cache:il1 il1:1:16:512:l -cache:il2 dl2
-------------------------------------------------------------------------------------------------
sim_num_insn                                870764 |       870764 |       870764 |       870764 |      1869488 |      1869488 |      1869488 |      1869488 |      3999585 |      3999585 |      3999585 |      3999585 |      8533332 |      8533332 |      8533332 |      8533332 |     18157482 |     18157482 |     18157482 |     18157482 |     38428123 |     38428123 |     38428123 |     38428123 |     81261740 |     81261740 |     81261740 |     81261740 |    171086493 |    171086493 |    171086493 |    171086493 |    359750237 |    359750237 |    359750237 |    359750237 |    753719677 |    753719677 |    753719677 |    753719677 |   1577785449 |   1577785449 |   1577785449 |   1577785449 |
sim_num_refs                                218022 |       218022 |       218022 |       218022 |       464966 |       464966 |       464966 |       464966 |       990632 |       990632 |       990632 |       990632 |      2108328 |      2108328 |      2108328 |      2108328 |      4477775 |      4477775 |      4477775 |      4477775 |      9465605 |      9465605 |      9465605 |      9465605 |     19991079 |     19991079 |     19991079 |     19991079 |     42054523 |     42054523 |     42054523 |     42054523 |     88356142 |     88356142 |     88356142 |     88356142 |    184998093 |    184998093 |    184998093 |    184998093 |    386966423 |    386966423 |    386966423 |    386966423 |
sim_elapsed_time                                 1 |            1 |           37 |           18 |            1 |            1 |           58 |           30 |            1 |            1 |           99 |           50 |            2 |            2 |          179 |           88 |            5 |            5 |          336 |          161 |           11 |           11 |          621 |          273 |           23 |           24 |         1042 |          366 |           48 |           48 |         1409 |          399 |          104 |          103 |         1488 |          467 |          219 |          219 |         1629 |          608 |          457 |          725 |         5128 |          905 |
sim_inst_rate                          870764.0000 |  870764.0000 |   23534.1622 |   48375.7778 | 1869488.0000 | 1869488.0000 |   32232.5517 |   62316.2667 | 3999585.0000 | 3999585.0000 |   40399.8485 |   79991.7000 | 4266666.0000 | 4266666.0000 |   47672.2458 |   96969.6818 | 3631496.4000 | 3631496.4000 |   54040.1250 |  112779.3913 | 3493465.7273 | 3493465.7273 |   61881.0354 |  140762.3553 | 3533119.1304 | 3385905.8333 |   77986.3148 |  222026.6120 | 3564301.9375 | 3564301.9375 |  121424.0546 |  428788.2030 | 3459136.8942 | 3492720.7476 |  241767.6324 |  770343.1199 | 3441642.3607 | 3441642.3607 |  462688.5678 | 1239670.5214 | 3452484.5711 | 2176255.7917 |  307680.4698 | 1743409.3359 |
il1.accesses                                870764 |       870764 |       870764 |       870764 |      1869488 |      1869488 |      1869488 |      1869488 |      3999585 |      3999585 |      3999585 |      3999585 |      8533332 |      8533332 |      8533332 |      8533332 |     18157482 |     18157482 |     18157482 |     18157482 |     38428123 |     38428123 |     38428123 |     38428123 |     81261740 |     81261740 |     81261740 |     81261740 |    171086493 |    171086493 |    171086493 |    171086493 |    359750237 |    359750237 |    359750237 |    359750237 |    753719677 |    753719677 |    753719677 |    753719677 |   1577785449 |   1577785449 |   1577785449 |   1577785449 |
il1.hits                                    869838 |       869838 |       869992 |       869992 |      1868508 |      1868508 |      1868727 |      1868727 |      3998603 |      3998603 |      3998823 |      3998823 |      8532351 |      8532351 |      8532568 |      8532568 |     18156501 |     18156501 |     18156718 |     18156718 |     38427142 |     38427142 |     38427360 |     38427360 |     81260759 |     81260759 |     81260977 |     81260977 |    171085512 |    171085512 |    171085730 |    171085730 |    359749183 |    359749183 |    359749350 |    359749350 |    753718623 |    753718623 |    753718790 |    753718790 |   1577784395 |   1577784395 |   1577784562 |   1577784562 |
il1.misses                                     926 |          926 |          772 |          772 |          980 |          980 |          761 |          761 |          982 |          982 |          762 |          762 |          981 |          981 |          764 |          764 |          981 |          981 |          764 |          764 |          981 |          981 |          763 |          763 |          981 |          981 |          763 |          763 |          981 |          981 |          763 |          763 |         1054 |         1054 |          887 |          887 |         1054 |         1054 |          887 |          887 |         1054 |         1054 |          887 |          887 |
il1.replacements                               509 |          509 |          260 |          260 |          551 |          551 |          249 |          249 |          553 |          553 |          250 |          250 |          552 |          552 |          252 |          252 |          552 |          552 |          252 |          252 |          552 |          552 |          251 |          251 |          552 |          552 |          251 |          251 |          552 |          552 |          251 |          251 |          629 |          629 |          375 |          375 |          629 |          629 |          375 |          375 |          629 |          629 |          375 |          375 |
il1.writebacks                                   0 |            0 |            0 |            0 |            0 |            0 |            0 |            0 |            0 |            0 |            0 |            0 |            0 |            0 |            0 |            0 |            0 |            0 |            0 |            0 |            0 |            0 |            0 |            0 |            0 |            0 |            0 |            0 |            0 |            0 |            0 |            0 |            0 |            0 |            0 |            0 |            0 |            0 |            0 |            0 |            0 |            0 |            0 |            0 |
il1.invalidations                                0 |            0 |            0 |            0 |            0 |            0 |            0 |            0 |            0 |            0 |            0 |            0 |            0 |            0 |            0 |            0 |            0 |            0 |            0 |            0 |            0 |            0 |            0 |            0 |            0 |            0 |            0 |            0 |            0 |            0 |            0 |            0 |            0 |            0 |            0 |            0 |            0 |            0 |            0 |            0 |            0 |            0 |            0 |            0 |
il1.miss_rate                               0.0011 |       0.0011 |       0.0009 |       0.0009 |       0.0005 |       0.0005 |       0.0004 |       0.0004 |       0.0002 |       0.0002 |       0.0002 |       0.0002 |       0.0001 |       0.0001 |       0.0001 |       0.0001 |       0.0001 |       0.0001 |       0.0000 |       0.0000 |       0.0000 |       0.0000 |       0.0000 |       0.0000 |       0.0000 |       0.0000 |       0.0000 |       0.0000 |       0.0000 |       0.0000 |       0.0000 |       0.0000 |       0.0000 |       0.0000 |       0.0000 |       0.0000 |       0.0000 |       0.0000 |       0.0000 |       0.0000 |       0.0000 |       0.0000 |       0.0000 |       0.0000 |
il1.repl_rate                               0.0006 |       0.0006 |       0.0003 |       0.0003 |       0.0003 |       0.0003 |       0.0001 |       0.0001 |       0.0001 |       0.0001 |       0.0001 |       0.0001 |       0.0001 |       0.0001 |       0.0000 |       0.0000 |       0.0000 |       0.0000 |       0.0000 |       0.0000 |       0.0000 |       0.0000 |       0.0000 |       0.0000 |       0.0000 |       0.0000 |       0.0000 |       0.0000 |       0.0000 |       0.0000 |       0.0000 |       0.0000 |       0.0000 |       0.0000 |       0.0000 |       0.0000 |       0.0000 |       0.0000 |       0.0000 |       0.0000 |       0.0000 |       0.0000 |       0.0000 |       0.0000 |
il1.wb_rate                                 0.0000 |       0.0000 |       0.0000 |       0.0000 |       0.0000 |       0.0000 |       0.0000 |       0.0000 |       0.0000 |       0.0000 |       0.0000 |       0.0000 |       0.0000 |       0.0000 |       0.0000 |       0.0000 |       0.0000 |       0.0000 |       0.0000 |       0.0000 |       0.0000 |       0.0000 |       0.0000 |       0.0000 |       0.0000 |       0.0000 |       0.0000 |       0.0000 |       0.0000 |       0.0000 |       0.0000 |       0.0000 |       0.0000 |       0.0000 |       0.0000 |       0.0000 |       0.0000 |       0.0000 |       0.0000 |       0.0000 |       0.0000 |       0.0000 |       0.0000 |       0.0000 |
il1.inv_rate                                0.0000 |       0.0000 |       0.0000 |       0.0000 |       0.0000 |       0.0000 |       0.0000 |       0.0000 |       0.0000 |       0.0000 |       0.0000 |       0.0000 |       0.0000 |       0.0000 |       0.0000 |       0.0000 |       0.0000 |       0.0000 |       0.0000 |       0.0000 |       0.0000 |       0.0000 |       0.0000 |       0.0000 |       0.0000 |       0.0000 |       0.0000 |       0.0000 |       0.0000 |       0.0000 |       0.0000 |       0.0000 |       0.0000 |       0.0000 |       0.0000 |       0.0000 |       0.0000 |       0.0000 |       0.0000 |       0.0000 |       0.0000 |       0.0000 |       0.0000 |       0.0000 |
dl1.accesses                                234488 |       234488 |       234488 |       234488 |       497816 |       497816 |       497816 |       497816 |      1056250 |      1056250 |      1056250 |      1056250 |      2239482 |      2239482 |      2239482 |      2239482 |      4740001 |      4740001 |      4740001 |      4740001 |      9989975 |      9989975 |      9989975 |      9989975 |     21039737 |     21039737 |     21039737 |     21039737 |     44151757 |     44151757 |     44151757 |     44151757 |     92550528 |     92550528 |     92550528 |     92550528 |    193386783 |    193386783 |    193386783 |    193386783 |    403743721 |    403743721 |    403743721 |    403743721 |
dl1.hits                                    226396 |       226396 |       226932 |       226932 |       478191 |       478191 |       479294 |       479294 |      1007761 |      1007761 |      1010928 |      1010928 |      2123852 |      2123852 |      2130215 |      2130215 |      4467315 |      4467315 |      4483217 |      4483217 |      9368286 |      9368286 |      9400386 |      9400386 |     19634314 |     19634314 |     19709283 |     19709283 |     41040188 |     41040188 |     41189063 |     41189063 |     85694535 |     85694535 |     86027064 |     86027064 |    178501190 |    178501190 |    179160214 |    179160214 |    371523824 |    371523824 |    372948923 |    372948923 |
dl1.misses                                    8092 |         8092 |         7556 |         7556 |        19625 |        19625 |        18522 |        18522 |        48489 |        48489 |        45322 |        45322 |       115630 |       115630 |       109267 |       109267 |       272686 |       272686 |       256784 |       256784 |       621689 |       621689 |       589589 |       589589 |      1405423 |      1405423 |      1330454 |      1330454 |      3111569 |      3111569 |      2962694 |      2962694 |      6855993 |      6855993 |      6523464 |      6523464 |     14885593 |     14885593 |     14226569 |     14226569 |     32219897 |     32219897 |     30794798 |     30794798 |
dl1.replacements                              7580 |         7580 |         7044 |         7044 |        19113 |        19113 |        18010 |        18010 |        47977 |        47977 |        44810 |        44810 |       115118 |       115118 |       108755 |       108755 |       272174 |       272174 |       256272 |       256272 |       621177 |       621177 |       589077 |       589077 |      1404911 |      1404911 |      1329942 |      1329942 |      3111057 |      3111057 |      2962182 |      2962182 |      6855481 |      6855481 |      6522952 |      6522952 |     14885081 |     14885081 |     14226057 |     14226057 |     32219385 |     32219385 |     30794286 |     30794286 |
dl1.writebacks                                6439 |         6439 |         5913 |         5913 |        16584 |        16584 |        15554 |        15554 |        42591 |        42591 |        39616 |        39616 |       104035 |       104035 |        98092 |        98092 |       249300 |       249300 |       234470 |       234470 |       574532 |       574532 |       544890 |       544890 |      1310795 |      1310795 |      1241146 |      1241146 |      2921428 |      2921428 |      2784190 |      2784190 |      6471324 |      6471324 |      6165219 |      6165219 |     14114838 |     14114838 |     13510660 |     13510660 |     30672698 |     30672698 |     29363716 |     29363716 |
dl1.invalidations                                0 |            0 |            0 |            0 |            0 |            0 |            0 |            0 |            0 |            0 |            0 |            0 |            0 |            0 |            0 |            0 |            0 |            0 |            0 |            0 |            0 |            0 |            0 |            0 |            0 |            0 |            0 |            0 |            0 |            0 |            0 |            0 |            0 |            0 |            0 |            0 |            0 |            0 |            0 |            0 |            0 |            0 |            0 |            0 |
dl1.miss_rate                               0.0345 |       0.0345 |       0.0322 |       0.0322 |       0.0394 |       0.0394 |       0.0372 |       0.0372 |       0.0459 |       0.0459 |       0.0429 |       0.0429 |       0.0516 |       0.0516 |       0.0488 |       0.0488 |       0.0575 |       0.0575 |       0.0542 |       0.0542 |       0.0622 |       0.0622 |       0.0590 |       0.0590 |       0.0668 |       0.0668 |       0.0632 |       0.0632 |       0.0705 |       0.0705 |       0.0671 |       0.0671 |       0.0741 |       0.0741 |       0.0705 |       0.0705 |       0.0770 |       0.0770 |       0.0736 |       0.0736 |       0.0798 |       0.0798 |       0.0763 |       0.0763 |
dl1.repl_rate                               0.0323 |       0.0323 |       0.0300 |       0.0300 |       0.0384 |       0.0384 |       0.0362 |       0.0362 |       0.0454 |       0.0454 |       0.0424 |       0.0424 |       0.0514 |       0.0514 |       0.0486 |       0.0486 |       0.0574 |       0.0574 |       0.0541 |       0.0541 |       0.0622 |       0.0622 |       0.0590 |       0.0590 |       0.0668 |       0.0668 |       0.0632 |       0.0632 |       0.0705 |       0.0705 |       0.0671 |       0.0671 |       0.0741 |       0.0741 |       0.0705 |       0.0705 |       0.0770 |       0.0770 |       0.0736 |       0.0736 |       0.0798 |       0.0798 |       0.0763 |       0.0763 |
dl1.wb_rate                                 0.0275 |       0.0275 |       0.0252 |       0.0252 |       0.0333 |       0.0333 |       0.0312 |       0.0312 |       0.0403 |       0.0403 |       0.0375 |       0.0375 |       0.0465 |       0.0465 |       0.0438 |       0.0438 |       0.0526 |       0.0526 |       0.0495 |       0.0495 |       0.0575 |       0.0575 |       0.0545 |       0.0545 |       0.0623 |       0.0623 |       0.0590 |       0.0590 |       0.0662 |       0.0662 |       0.0631 |       0.0631 |       0.0699 |       0.0699 |       0.0666 |       0.0666 |       0.0730 |       0.0730 |       0.0699 |       0.0699 |       0.0760 |       0.0760 |       0.0727 |       0.0727 |
dl1.inv_rate                                0.0000 |       0.0000 |       0.0000 |       0.0000 |       0.0000 |       0.0000 |       0.0000 |       0.0000 |       0.0000 |       0.0000 |       0.0000 |       0.0000 |       0.0000 |       0.0000 |       0.0000 |       0.0000 |       0.0000 |       0.0000 |       0.0000 |       0.0000 |       0.0000 |       0.0000 |       0.0000 |       0.0000 |       0.0000 |       0.0000 |       0.0000 |       0.0000 |       0.0000 |       0.0000 |       0.0000 |       0.0000 |       0.0000 |       0.0000 |       0.0000 |       0.0000 |       0.0000 |       0.0000 |       0.0000 |       0.0000 |       0.0000 |       0.0000 |       0.0000 |       0.0000 |
dl2.accesses                                 15457 |        15457 |        14241 |        14241 |        37189 |        37189 |        34837 |        34837 |        92062 |        92062 |        85700 |        85700 |       220646 |       220646 |       208123 |       208123 |       522967 |       522967 |       492018 |       492018 |      1197202 |      1197202 |      1135242 |      1135242 |      2717199 |      2717199 |      2572363 |      2572363 |      6033978 |      6033978 |      5747647 |      5747647 |     13328371 |     13328371 |     12689570 |     12689570 |     29001485 |     29001485 |     27738116 |     27738116 |     62893649 |     62893649 |     60159401 |     60159401 |
dl2.hits                                     11748 |        11748 |        10602 |        10602 |        31431 |        31431 |        29168 |        29168 |        82194 |        82194 |        75934 |        75934 |       202583 |       202583 |       190163 |       190163 |       488520 |       488520 |       457674 |       457674 |      1129988 |      1129988 |      1068131 |      1068131 |      2584447 |      2579439 |      2439716 |      2394965 |      5765148 |      5322381 |      5400489 |      5094092 |     11900665 |     11486554 |     11382230 |     10975134 |     25318288 |     24282448 |     24311753 |     23235970 |     53453240 |     50879137 |     51156885 |     48773919 |
dl2.misses                                    3709 |         3709 |         3639 |         3639 |         5758 |         5758 |         5669 |         5669 |         9868 |         9868 |         9766 |         9766 |        18063 |        18063 |        17960 |        17960 |        34447 |        34447 |        34344 |        34344 |        67214 |        67214 |        67111 |        67111 |       132752 |       137760 |       132647 |       177398 |       268830 |       711597 |       347158 |       653555 |      1427706 |      1841817 |      1307340 |      1714436 |      3683197 |      4719037 |      3426363 |      4502146 |      9440409 |     12014512 |      9002516 |     11385482 |
dl2.replacements                               468 |          468 |            0 |            0 |          458 |          458 |            0 |            0 |          516 |          516 |            0 |            0 |          517 |          517 |            0 |            0 |          517 |          517 |            0 |            0 |          517 |          517 |            0 |            0 |          519 |         8873 |            0 |        46326 |         8871 |       580525 |        85014 |       522483 |      1165562 |      1710745 |      1045196 |      1583364 |      3421053 |      4587965 |      3164219 |      4371074 |      9178265 |     11883440 |      8740372 |     11254410 |
dl2.writebacks                                 264 |          264 |            0 |            0 |          247 |          247 |            0 |            0 |          291 |          291 |            0 |            0 |          289 |          289 |            0 |            0 |          289 |          289 |            0 |            0 |          289 |          289 |            0 |            0 |          289 |         8643 |            0 |        44932 |         8643 |       452977 |        83620 |       389099 |       908592 |      1428348 |       778619 |      1296584 |      2856773 |      3971225 |      2591296 |      3749178 |      7944636 |     10570412 |      7496176 |      9935941 |
dl2.invalidations                                0 |            0 |            0 |            0 |            0 |            0 |            0 |            0 |            0 |            0 |            0 |            0 |            0 |            0 |            0 |            0 |            0 |            0 |            0 |            0 |            0 |            0 |            0 |            0 |            0 |            0 |            0 |            0 |            0 |            0 |            0 |            0 |            0 |            0 |            0 |            0 |            0 |            0 |            0 |            0 |            0 |            0 |            0 |            0 |
dl2.miss_rate                               0.2400 |       0.2400 |       0.2555 |       0.2555 |       0.1548 |       0.1548 |       0.1627 |       0.1627 |       0.1072 |       0.1072 |       0.1140 |       0.1140 |       0.0819 |       0.0819 |       0.0863 |       0.0863 |       0.0659 |       0.0659 |       0.0698 |       0.0698 |       0.0561 |       0.0561 |       0.0591 |       0.0591 |       0.0489 |       0.0507 |       0.0516 |       0.0690 |       0.0446 |       0.1179 |       0.0604 |       0.1137 |       0.1071 |       0.1382 |       0.1030 |       0.1351 |       0.1270 |       0.1627 |       0.1235 |       0.1623 |       0.1501 |       0.1910 |       0.1496 |       0.1893 |
dl2.repl_rate                               0.0303 |       0.0303 |       0.0000 |       0.0000 |       0.0123 |       0.0123 |       0.0000 |       0.0000 |       0.0056 |       0.0056 |       0.0000 |       0.0000 |       0.0023 |       0.0023 |       0.0000 |       0.0000 |       0.0010 |       0.0010 |       0.0000 |       0.0000 |       0.0004 |       0.0004 |       0.0000 |       0.0000 |       0.0002 |       0.0033 |       0.0000 |       0.0180 |       0.0015 |       0.0962 |       0.0148 |       0.0909 |       0.0874 |       0.1284 |       0.0824 |       0.1248 |       0.1180 |       0.1582 |       0.1141 |       0.1576 |       0.1459 |       0.1889 |       0.1453 |       0.1871 |
dl2.wb_rate                                 0.0171 |       0.0171 |       0.0000 |       0.0000 |       0.0066 |       0.0066 |       0.0000 |       0.0000 |       0.0032 |       0.0032 |       0.0000 |       0.0000 |       0.0013 |       0.0013 |       0.0000 |       0.0000 |       0.0006 |       0.0006 |       0.0000 |       0.0000 |       0.0002 |       0.0002 |       0.0000 |       0.0000 |       0.0001 |       0.0032 |       0.0000 |       0.0175 |       0.0014 |       0.0751 |       0.0145 |       0.0677 |       0.0682 |       0.1072 |       0.0614 |       0.1022 |       0.0985 |       0.1369 |       0.0934 |       0.1352 |       0.1263 |       0.1681 |       0.1246 |       0.1652 |
dl2.inv_rate                                0.0000 |       0.0000 |       0.0000 |       0.0000 |       0.0000 |       0.0000 |       0.0000 |       0.0000 |       0.0000 |       0.0000 |       0.0000 |       0.0000 |       0.0000 |       0.0000 |       0.0000 |       0.0000 |       0.0000 |       0.0000 |       0.0000 |       0.0000 |       0.0000 |       0.0000 |       0.0000 |       0.0000 |       0.0000 |       0.0000 |       0.0000 |       0.0000 |       0.0000 |       0.0000 |       0.0000 |       0.0000 |       0.0000 |       0.0000 |       0.0000 |       0.0000 |       0.0000 |       0.0000 |       0.0000 |       0.0000 |       0.0000 |       0.0000 |       0.0000 |       0.0000 |
itlb.accesses                               870764 |       870764 |       870764 |       870764 |      1869488 |      1869488 |      1869488 |      1869488 |      3999585 |      3999585 |      3999585 |      3999585 |      8533332 |      8533332 |      8533332 |      8533332 |     18157482 |     18157482 |     18157482 |     18157482 |     38428123 |     38428123 |     38428123 |     38428123 |     81261740 |     81261740 |     81261740 |     81261740 |    171086493 |    171086493 |    171086493 |    171086493 |    359750237 |    359750237 |    359750237 |    359750237 |    753719677 |    753719677 |    753719677 |    753719677 |   1577785449 |   1577785449 |   1577785449 |   1577785449 |
itlb.hits                                   870755 |       870755 |       870755 |       870755 |      1869479 |      1869479 |      1869479 |      1869479 |      3999576 |      3999576 |      3999576 |      3999576 |      8533323 |      8533323 |      8533323 |      8533323 |     18157473 |     18157473 |     18157473 |     18157473 |     38428114 |     38428114 |     38428114 |     38428114 |     81261731 |     81261731 |     81261731 |     81261731 |    171086484 |    171086484 |    171086484 |    171086484 |    359750228 |    359750228 |    359750228 |    359750228 |    753719668 |    753719668 |    753719668 |    753719668 |   1577785440 |   1577785440 |   1577785440 |   1577785440 |
itlb.misses                                      9 |            9 |            9 |            9 |            9 |            9 |            9 |            9 |            9 |            9 |            9 |            9 |            9 |            9 |            9 |            9 |            9 |            9 |            9 |            9 |            9 |            9 |            9 |            9 |            9 |            9 |            9 |            9 |            9 |            9 |            9 |            9 |            9 |            9 |            9 |            9 |            9 |            9 |            9 |            9 |            9 |            9 |            9 |            9 |
itlb.replacements                                0 |            0 |            0 |            0 |            0 |            0 |            0 |            0 |            0 |            0 |            0 |            0 |            0 |            0 |            0 |            0 |            0 |            0 |            0 |            0 |            0 |            0 |            0 |            0 |            0 |            0 |            0 |            0 |            0 |            0 |            0 |            0 |            0 |            0 |            0 |            0 |            0 |            0 |            0 |            0 |            0 |            0 |            0 |            0 |
itlb.writebacks                                  0 |            0 |            0 |            0 |            0 |            0 |            0 |            0 |            0 |            0 |            0 |            0 |            0 |            0 |            0 |            0 |            0 |            0 |            0 |            0 |            0 |            0 |            0 |            0 |            0 |            0 |            0 |            0 |            0 |            0 |            0 |            0 |            0 |            0 |            0 |            0 |            0 |            0 |            0 |            0 |            0 |            0 |            0 |            0 |
itlb.invalidations                               0 |            0 |            0 |            0 |            0 |            0 |            0 |            0 |            0 |            0 |            0 |            0 |            0 |            0 |            0 |            0 |            0 |            0 |            0 |            0 |            0 |            0 |            0 |            0 |            0 |            0 |            0 |            0 |            0 |            0 |            0 |            0 |            0 |            0 |            0 |            0 |            0 |            0 |            0 |            0 |            0 |            0 |            0 |            0 |
itlb.miss_rate                              0.0000 |       0.0000 |       0.0000 |       0.0000 |       0.0000 |       0.0000 |       0.0000 |       0.0000 |       0.0000 |       0.0000 |       0.0000 |       0.0000 |       0.0000 |       0.0000 |       0.0000 |       0.0000 |       0.0000 |       0.0000 |       0.0000 |       0.0000 |       0.0000 |       0.0000 |       0.0000 |       0.0000 |       0.0000 |       0.0000 |       0.0000 |       0.0000 |       0.0000 |       0.0000 |       0.0000 |       0.0000 |       0.0000 |       0.0000 |       0.0000 |       0.0000 |       0.0000 |       0.0000 |       0.0000 |       0.0000 |       0.0000 |       0.0000 |       0.0000 |       0.0000 |
itlb.repl_rate                              0.0000 |       0.0000 |       0.0000 |       0.0000 |       0.0000 |       0.0000 |       0.0000 |       0.0000 |       0.0000 |       0.0000 |       0.0000 |       0.0000 |       0.0000 |       0.0000 |       0.0000 |       0.0000 |       0.0000 |       0.0000 |       0.0000 |       0.0000 |       0.0000 |       0.0000 |       0.0000 |       0.0000 |       0.0000 |       0.0000 |       0.0000 |       0.0000 |       0.0000 |       0.0000 |       0.0000 |       0.0000 |       0.0000 |       0.0000 |       0.0000 |       0.0000 |       0.0000 |       0.0000 |       0.0000 |       0.0000 |       0.0000 |       0.0000 |       0.0000 |       0.0000 |
itlb.wb_rate                                0.0000 |       0.0000 |       0.0000 |       0.0000 |       0.0000 |       0.0000 |       0.0000 |       0.0000 |       0.0000 |       0.0000 |       0.0000 |       0.0000 |       0.0000 |       0.0000 |       0.0000 |       0.0000 |       0.0000 |       0.0000 |       0.0000 |       0.0000 |       0.0000 |       0.0000 |       0.0000 |       0.0000 |       0.0000 |       0.0000 |       0.0000 |       0.0000 |       0.0000 |       0.0000 |       0.0000 |       0.0000 |       0.0000 |       0.0000 |       0.0000 |       0.0000 |       0.0000 |       0.0000 |       0.0000 |       0.0000 |       0.0000 |       0.0000 |       0.0000 |       0.0000 |
itlb.inv_rate                               0.0000 |       0.0000 |       0.0000 |       0.0000 |       0.0000 |       0.0000 |       0.0000 |       0.0000 |       0.0000 |       0.0000 |       0.0000 |       0.0000 |       0.0000 |       0.0000 |       0.0000 |       0.0000 |       0.0000 |       0.0000 |       0.0000 |       0.0000 |       0.0000 |       0.0000 |       0.0000 |       0.0000 |       0.0000 |       0.0000 |       0.0000 |       0.0000 |       0.0000 |       0.0000 |       0.0000 |       0.0000 |       0.0000 |       0.0000 |       0.0000 |       0.0000 |       0.0000 |       0.0000 |       0.0000 |       0.0000 |       0.0000 |       0.0000 |       0.0000 |       0.0000 |
dtlb.accesses                               234488 |       234488 |       234488 |       234488 |       497816 |       497816 |       497816 |       497816 |      1056250 |      1056250 |      1056250 |      1056250 |      2239482 |      2239482 |      2239482 |      2239482 |      4740001 |      4740001 |      4740001 |      4740001 |      9989975 |      9989975 |      9989975 |      9989975 |     21039737 |     21039737 |     21039737 |     21039737 |     44151757 |     44151757 |     44151757 |     44151757 |     92550528 |     92550528 |     92550528 |     92550528 |    193386783 |    193386783 |    193386783 |    193386783 |    403743721 |    403743721 |    403743721 |    403743721 |
dtlb.hits                                   234472 |       234472 |       234472 |       234472 |       497792 |       497792 |       497792 |       497792 |      1056210 |      1056210 |      1056210 |      1056210 |      2239410 |      2239410 |      2239410 |      2239410 |      4739854 |      4739854 |      4739854 |      4739854 |      9989124 |      9989124 |      9989124 |      9989124 |     20982444 |     20982444 |     20982444 |     20982444 |     43800850 |     43800850 |     43800850 |     43800850 |     91257748 |     91257748 |     91257748 |     91257748 |    189533442 |    189533442 |    189533442 |    189533442 |    393443822 |    393443822 |    393443822 |    393443822 |
dtlb.misses                                     16 |           16 |           16 |           16 |           24 |           24 |           24 |           24 |           40 |           40 |           40 |           40 |           72 |           72 |           72 |           72 |          147 |          147 |          147 |          147 |          851 |          851 |          851 |          851 |        57293 |        57293 |        57293 |        57293 |       350907 |       350907 |       350907 |       350907 |      1292780 |      1292780 |      1292780 |      1292780 |      3853341 |      3853341 |      3853341 |      3853341 |     10299899 |     10299899 |     10299899 |     10299899 |
dtlb.replacements                                0 |            0 |            0 |            0 |            0 |            0 |            0 |            0 |            0 |            0 |            0 |            0 |            0 |            0 |            0 |            0 |           19 |           19 |           19 |           19 |          723 |          723 |          723 |          723 |        57165 |        57165 |        57165 |        57165 |       350779 |       350779 |       350779 |       350779 |      1292652 |      1292652 |      1292652 |      1292652 |      3853213 |      3853213 |      3853213 |      3853213 |     10299771 |     10299771 |     10299771 |     10299771 |
dtlb.writebacks                                  0 |            0 |            0 |            0 |            0 |            0 |            0 |            0 |            0 |            0 |            0 |            0 |            0 |            0 |            0 |            0 |           16 |           16 |           16 |           16 |          592 |          592 |          592 |          592 |        54171 |        54171 |        54171 |        54171 |       332213 |       332213 |       332213 |       332213 |      1233066 |      1233066 |      1233066 |      1233066 |      3703773 |      3703773 |      3703773 |      3703773 |      9963483 |      9963483 |      9963483 |      9963483 |
dtlb.invalidations                               0 |            0 |            0 |            0 |            0 |            0 |            0 |            0 |            0 |            0 |            0 |            0 |            0 |            0 |            0 |            0 |            0 |            0 |            0 |            0 |            0 |            0 |            0 |            0 |            0 |            0 |            0 |            0 |            0 |            0 |            0 |            0 |            0 |            0 |            0 |            0 |            0 |            0 |            0 |            0 |            0 |            0 |            0 |            0 |
dtlb.miss_rate                              0.0001 |       0.0001 |       0.0001 |       0.0001 |       0.0000 |       0.0000 |       0.0000 |       0.0000 |       0.0000 |       0.0000 |       0.0000 |       0.0000 |       0.0000 |       0.0000 |       0.0000 |       0.0000 |       0.0000 |       0.0000 |       0.0000 |       0.0000 |       0.0001 |       0.0001 |       0.0001 |       0.0001 |       0.0027 |       0.0027 |       0.0027 |       0.0027 |       0.0079 |       0.0079 |       0.0079 |       0.0079 |       0.0140 |       0.0140 |       0.0140 |       0.0140 |       0.0199 |       0.0199 |       0.0199 |       0.0199 |       0.0255 |       0.0255 |       0.0255 |       0.0255 |
dtlb.repl_rate                              0.0000 |       0.0000 |       0.0000 |       0.0000 |       0.0000 |       0.0000 |       0.0000 |       0.0000 |       0.0000 |       0.0000 |       0.0000 |       0.0000 |       0.0000 |       0.0000 |       0.0000 |       0.0000 |       0.0000 |       0.0000 |       0.0000 |       0.0000 |       0.0001 |       0.0001 |       0.0001 |       0.0001 |       0.0027 |       0.0027 |       0.0027 |       0.0027 |       0.0079 |       0.0079 |       0.0079 |       0.0079 |       0.0140 |       0.0140 |       0.0140 |       0.0140 |       0.0199 |       0.0199 |       0.0199 |       0.0199 |       0.0255 |       0.0255 |       0.0255 |       0.0255 |
dtlb.wb_rate                                0.0000 |       0.0000 |       0.0000 |       0.0000 |       0.0000 |       0.0000 |       0.0000 |       0.0000 |       0.0000 |       0.0000 |       0.0000 |       0.0000 |       0.0000 |       0.0000 |       0.0000 |       0.0000 |       0.0000 |       0.0000 |       0.0000 |       0.0000 |       0.0001 |       0.0001 |       0.0001 |       0.0001 |       0.0026 |       0.0026 |       0.0026 |       0.0026 |       0.0075 |       0.0075 |       0.0075 |       0.0075 |       0.0133 |       0.0133 |       0.0133 |       0.0133 |       0.0192 |       0.0192 |       0.0192 |       0.0192 |       0.0247 |       0.0247 |       0.0247 |       0.0247 |
dtlb.inv_rate                               0.0000 |       0.0000 |       0.0000 |       0.0000 |       0.0000 |       0.0000 |       0.0000 |       0.0000 |       0.0000 |       0.0000 |       0.0000 |       0.0000 |       0.0000 |       0.0000 |       0.0000 |       0.0000 |       0.0000 |       0.0000 |       0.0000 |       0.0000 |       0.0000 |       0.0000 |       0.0000 |       0.0000 |       0.0000 |       0.0000 |       0.0000 |       0.0000 |       0.0000 |       0.0000 |       0.0000 |       0.0000 |       0.0000 |       0.0000 |       0.0000 |       0.0000 |       0.0000 |       0.0000 |       0.0000 |       0.0000 |       0.0000 |       0.0000 |       0.0000 |       0.0000 |
ld_text_base                            0x00400000 |   0x00400000 |   0x00400000 |   0x00400000 |   0x00400000 |   0x00400000 |   0x00400000 |   0x00400000 |   0x00400000 |   0x00400000 |   0x00400000 |   0x00400000 |   0x00400000 |   0x00400000 |   0x00400000 |   0x00400000 |   0x00400000 |   0x00400000 |   0x00400000 |   0x00400000 |   0x00400000 |   0x00400000 |   0x00400000 |   0x00400000 |   0x00400000 |   0x00400000 |   0x00400000 |   0x00400000 |   0x00400000 |   0x00400000 |   0x00400000 |   0x00400000 |   0x00400000 |   0x00400000 |   0x00400000 |   0x00400000 |   0x00400000 |   0x00400000 |   0x00400000 |   0x00400000 |   0x00400000 |   0x00400000 |   0x00400000 |   0x00400000 |
ld_text_size                                 74304 |        74304 |        74304 |        74304 |        74336 |        74336 |        74336 |        74336 |        74352 |        74352 |        74352 |        74352 |        74368 |        74368 |        74368 |        74368 |        74368 |        74368 |        74368 |        74368 |        74368 |        74368 |        74368 |        74368 |        74368 |        74368 |        74368 |        74368 |        74368 |        74368 |        74368 |        74368 |        74368 |        74368 |        74368 |        74368 |        74368 |        74368 |        74368 |        74368 |        74368 |        74368 |        74368 |        74368 |
ld_data_base                            0x10000000 |   0x10000000 |   0x10000000 |   0x10000000 |   0x10000000 |   0x10000000 |   0x10000000 |   0x10000000 |   0x10000000 |   0x10000000 |   0x10000000 |   0x10000000 |   0x10000000 |   0x10000000 |   0x10000000 |   0x10000000 |   0x10000000 |   0x10000000 |   0x10000000 |   0x10000000 |   0x10000000 |   0x10000000 |   0x10000000 |   0x10000000 |   0x10000000 |   0x10000000 |   0x10000000 |   0x10000000 |   0x10000000 |   0x10000000 |   0x10000000 |   0x10000000 |   0x10000000 |   0x10000000 |   0x10000000 |   0x10000000 |   0x10000000 |   0x10000000 |   0x10000000 |   0x10000000 |   0x10000000 |   0x10000000 |   0x10000000 |   0x10000000 |
ld_data_size                                  8192 |         8192 |         8192 |         8192 |         8192 |         8192 |         8192 |         8192 |         8192 |         8192 |         8192 |         8192 |         8192 |         8192 |         8192 |         8192 |         8192 |         8192 |         8192 |         8192 |         8192 |         8192 |         8192 |         8192 |         8192 |         8192 |         8192 |         8192 |         8192 |         8192 |         8192 |         8192 |         8192 |         8192 |         8192 |         8192 |         8192 |         8192 |         8192 |         8192 |         8192 |         8192 |         8192 |         8192 |
ld_stack_base                           0x7fffc000 |   0x7fffc000 |   0x7fffc000 |   0x7fffc000 |   0x7fffc000 |   0x7fffc000 |   0x7fffc000 |   0x7fffc000 |   0x7fffc000 |   0x7fffc000 |   0x7fffc000 |   0x7fffc000 |   0x7fffc000 |   0x7fffc000 |   0x7fffc000 |   0x7fffc000 |   0x7fffc000 |   0x7fffc000 |   0x7fffc000 |   0x7fffc000 |   0x7fffc000 |   0x7fffc000 |   0x7fffc000 |   0x7fffc000 |   0x7fffc000 |   0x7fffc000 |   0x7fffc000 |   0x7fffc000 |   0x7fffc000 |   0x7fffc000 |   0x7fffc000 |   0x7fffc000 |   0x7fffc000 |   0x7fffc000 |   0x7fffc000 |   0x7fffc000 |   0x7fffc000 |   0x7fffc000 |   0x7fffc000 |   0x7fffc000 |   0x7fffc000 |   0x7fffc000 |   0x7fffc000 |   0x7fffc000 |
ld_stack_size                                16384 |        16384 |        16384 |        16384 |        16384 |        16384 |        16384 |        16384 |        16384 |        16384 |        16384 |        16384 |        16384 |        16384 |        16384 |        16384 |        16384 |        16384 |        16384 |        16384 |        16384 |        16384 |        16384 |        16384 |        16384 |        16384 |        16384 |        16384 |        16384 |        16384 |        16384 |        16384 |        16384 |        16384 |        16384 |        16384 |        16384 |        16384 |        16384 |        16384 |        16384 |        16384 |        16384 |        16384 |
ld_prog_entry                           0x00400140 |   0x00400140 |   0x00400140 |   0x00400140 |   0x00400140 |   0x00400140 |   0x00400140 |   0x00400140 |   0x00400140 |   0x00400140 |   0x00400140 |   0x00400140 |   0x00400140 |   0x00400140 |   0x00400140 |   0x00400140 |   0x00400140 |   0x00400140 |   0x00400140 |   0x00400140 |   0x00400140 |   0x00400140 |   0x00400140 |   0x00400140 |   0x00400140 |   0x00400140 |   0x00400140 |   0x00400140 |   0x00400140 |   0x00400140 |   0x00400140 |   0x00400140 |   0x00400140 |   0x00400140 |   0x00400140 |   0x00400140 |   0x00400140 |   0x00400140 |   0x00400140 |   0x00400140 |   0x00400140 |   0x00400140 |   0x00400140 |   0x00400140 |
ld_environ_base                         0x7fff8000 |   0x7fff8000 |   0x7fff8000 |   0x7fff8000 |   0x7fff8000 |   0x7fff8000 |   0x7fff8000 |   0x7fff8000 |   0x7fff8000 |   0x7fff8000 |   0x7fff8000 |   0x7fff8000 |   0x7fff8000 |   0x7fff8000 |   0x7fff8000 |   0x7fff8000 |   0x7fff8000 |   0x7fff8000 |   0x7fff8000 |   0x7fff8000 |   0x7fff8000 |   0x7fff8000 |   0x7fff8000 |   0x7fff8000 |   0x7fff8000 |   0x7fff8000 |   0x7fff8000 |   0x7fff8000 |   0x7fff8000 |   0x7fff8000 |   0x7fff8000 |   0x7fff8000 |   0x7fff8000 |   0x7fff8000 |   0x7fff8000 |   0x7fff8000 |   0x7fff8000 |   0x7fff8000 |   0x7fff8000 |   0x7fff8000 |   0x7fff8000 |   0x7fff8000 |   0x7fff8000 |   0x7fff8000 |
ld_target_big_endian                             0 |            0 |            0 |            0 |            0 |            0 |            0 |            0 |            0 |            0 |            0 |            0 |            0 |            0 |            0 |            0 |            0 |            0 |            0 |            0 |            0 |            0 |            0 |            0 |            0 |            0 |            0 |            0 |            0 |            0 |            0 |            0 |            0 |            0 |            0 |            0 |            0 |            0 |            0 |            0 |            0 |            0 |            0 |            0 |
mem.page_count                                  35 |           35 |           35 |           35 |           43 |           43 |           43 |           43 |           59 |           59 |           59 |           59 |           91 |           91 |           91 |           91 |          155 |          155 |          155 |          155 |          283 |          283 |          283 |          283 |          539 |          539 |          539 |          539 |         1051 |         1051 |         1051 |         1051 |         2081 |         2081 |         2081 |         2081 |         4135 |         4135 |         4135 |         4135 |         8243 |         8243 |         8243 |         8243 |
mem.page_mem                                  140k |         140k |         140k |         140k |         172k |         172k |         172k |         172k |         236k |         236k |         236k |         236k |         364k |         364k |         364k |         364k |         620k |         620k |         620k |         620k |        1132k |        1132k |        1132k |        1132k |        2156k |        2156k |        2156k |        2156k |        4204k |        4204k |        4204k |        4204k |        8324k |        8324k |        8324k |        8324k |       16540k |       16540k |       16540k |       16540k |       32972k |       32972k |       32972k |       32972k |
mem.ptab_misses                                 35 |           35 |           35 |           35 |           43 |           43 |           43 |           43 |           59 |           59 |           59 |           59 |           91 |           91 |           91 |           91 |          155 |          155 |          155 |          155 |          283 |          283 |          283 |          283 |          539 |          539 |          539 |          539 |         1051 |         1051 |         1051 |         1051 |         9118 |         9118 |         9118 |         9118 |        23386 |        23386 |        23386 |        23386 |        64662 |        64662 |        64662 |        64662 |
mem.ptab_accesses                          4412436 |      4412436 |      4412436 |      4412436 |      8934180 |      8934180 |      8934180 |      8934180 |     18571532 |     18571532 |     18571532 |     18571532 |     39073080 |     39073080 |     39073080 |     39073080 |     82570718 |     82570718 |     82570718 |     82570718 |    174153230 |    174153230 |    174153230 |    174153230 |    367587222 |    367587222 |    367587222 |    367587222 |    773110274 |    773110274 |    773110274 |    773110274 |   1624562792 |   1624562792 |   1624562792 |   1624562792 |   3402113062 |   3402113062 |   3402113062 |   3402113062 |   7119090026 |   7119090026 |   7119090026 |   7119090026 |
mem.ptab_miss_rate                          0.0000 |       0.0000 |       0.0000 |       0.0000 |       0.0000 |       0.0000 |       0.0000 |       0.0000 |       0.0000 |       0.0000 |       0.0000 |       0.0000 |       0.0000 |       0.0000 |       0.0000 |       0.0000 |       0.0000 |       0.0000 |       0.0000 |       0.0000 |       0.0000 |       0.0000 |       0.0000 |       0.0000 |       0.0000 |       0.0000 |       0.0000 |       0.0000 |       0.0000 |       0.0000 |       0.0000 |       0.0000 |       0.0000 |       0.0000 |       0.0000 |       0.0000 |       0.0000 |       0.0000 |       0.0000 |       0.0000 |       0.0000 |       0.0000 |       0.0000 |       0.0000 |
-------------------------------------------------------------------------------------------------
sim-bpred                                     4096 |         4096 |         4096 |         4096 |         4096 |         4096 |         4096 |         8192 |         8192 |         8192 |         8192 |         8192 |         8192 |         8192 |        16384 |        16384 |        16384 |        16384 |        16384 |        16384 |        16384 |        32768 |        32768 |        32768 |        32768 |        32768 |        32768 |        32768 |        65536 |        65536 |        65536 |        65536 |        65536 |        65536 |        65536 |       131072 |       131072 |       131072 |       131072 |       131072 |       131072 |       131072 |       262144 |       262144 |       262144 |       262144 |       262144 |       262144 |       262144 |       524288 |       524288 |       524288 |       524288 |       524288 |       524288 |       524288 |      1048576 |      1048576 |      1048576 |      1048576 |      1048576 |      1048576 |      1048576 |      2097152 |      2097152 |      2097152 |      2097152 |      2097152 |      2097152 |      2097152 |      4194304 |      4194304 |      4194304 |      4194304 |      4194304 |      4194304 |      4194304 |
-bpred bimod -bpred:bimod 512
-bpred bimod -bpred:bimod 1024
-bpred bimod -bpred:bimod 2048
-bpred 2lev -bpred:2lev 1 512 10 1
-bpred 2lev -bpred:2lev 1 1024 10 1
-bpred 2lev -bpred:2lev 1 2048 10 1
-bpred 2lev -bpred:2lev 1 4096 10 1
-------------------------------------------------------------------------------------------------
sim_num_insn                                870764 |       870764 |       870764 |       870764 |       870764 |       870764 |       870764 |      1869488 |      1869488 |      1869488 |      1869488 |      1869488 |      1869488 |      1869488 |      3999585 |      3999585 |      3999585 |      3999585 |      3999585 |      3999585 |      3999585 |      8533332 |      8533332 |      8533332 |      8533332 |      8533332 |      8533332 |      8533332 |     18157482 |     18157482 |     18157482 |     18157482 |     18157482 |     18157482 |     18157482 |     38428123 |     38428123 |     38428123 |     38428123 |     38428123 |     38428123 |     38428123 |     81261740 |     81261740 |     81261740 |     81261740 |     81261740 |     81261740 |     81261740 |    171086493 |    171086493 |    171086493 |    171086493 |    171086493 |    171086493 |    171086493 |    359750237 |    359750237 |    359750237 |    359750237 |    359750237 |    359750237 |    359750237 |    753719677 |    753719677 |    753719677 |    753719677 |    753719677 |    753719677 |    753719677 |   1577785449 |   1577785449 |   1577785449 |   1577785449 |   1577785449 |   1577785449 |   1577785449 |
sim_num_refs                                218022 |       218022 |       218022 |       218022 |       218022 |       218022 |       218022 |       464966 |       464966 |       464966 |       464966 |       464966 |       464966 |       464966 |       990632 |       990632 |       990632 |       990632 |       990632 |       990632 |       990632 |      2108328 |      2108328 |      2108328 |      2108328 |      2108328 |      2108328 |      2108328 |      4477775 |      4477775 |      4477775 |      4477775 |      4477775 |      4477775 |      4477775 |      9465605 |      9465605 |      9465605 |      9465605 |      9465605 |      9465605 |      9465605 |     19991079 |     19991079 |     19991079 |     19991079 |     19991079 |     19991079 |     19991079 |     42054523 |     42054523 |     42054523 |     42054523 |     42054523 |     42054523 |     42054523 |     88356142 |     88356142 |     88356142 |     88356142 |     88356142 |     88356142 |     88356142 |    184998093 |    184998093 |    184998093 |    184998093 |    184998093 |    184998093 |    184998093 |    386966423 |    386966423 |    386966423 |    386966423 |    386966423 |    386966423 |    386966423 |
sim_elapsed_time                                 1 |            1 |            1 |            1 |            1 |            1 |            1 |            1 |            1 |            1 |            1 |            1 |            1 |            1 |            1 |            1 |            1 |            1 |            1 |            1 |            1 |            2 |            1 |            1 |            1 |            1 |            1 |            1 |            2 |            3 |            2 |            2 |            3 |            2 |            3 |            5 |            5 |            5 |            5 |            6 |            5 |            5 |           10 |           11 |           10 |           11 |           10 |           11 |           11 |           23 |           22 |           23 |           22 |           23 |           23 |           23 |           47 |           48 |           47 |           48 |           48 |           48 |           48 |          100 |           99 |          100 |          100 |          101 |          100 |          100 |          206 |          206 |          206 |          208 |          208 |          208 |          208 |
sim_inst_rate                          870764.0000 |  870764.0000 |  870764.0000 |  870764.0000 |  870764.0000 |  870764.0000 |  870764.0000 | 1869488.0000 | 1869488.0000 | 1869488.0000 | 1869488.0000 | 1869488.0000 | 1869488.0000 | 1869488.0000 | 3999585.0000 | 3999585.0000 | 3999585.0000 | 3999585.0000 | 3999585.0000 | 3999585.0000 | 3999585.0000 | 4266666.0000 | 8533332.0000 | 8533332.0000 | 8533332.0000 | 8533332.0000 | 8533332.0000 | 8533332.0000 | 9078741.0000 | 6052494.0000 | 9078741.0000 | 9078741.0000 | 6052494.0000 | 9078741.0000 | 6052494.0000 | 7685624.6000 | 7685624.6000 | 7685624.6000 | 7685624.6000 | 6404687.1667 | 7685624.6000 | 7685624.6000 | 8126174.0000 | 7387430.9091 | 8126174.0000 | 7387430.9091 | 8126174.0000 | 7387430.9091 | 7387430.9091 | 7438543.1739 | 7776658.7727 | 7438543.1739 | 7776658.7727 | 7438543.1739 | 7438543.1739 | 7438543.1739 | 7654260.3617 | 7494796.6042 | 7654260.3617 | 7494796.6042 | 7494796.6042 | 7494796.6042 | 7494796.6042 | 7537196.7700 | 7613330.0707 | 7537196.7700 | 7537196.7700 | 7462571.0594 | 7537196.7700 | 7537196.7700 | 7659152.6650 | 7659152.6650 | 7659152.6650 | 7585506.9663 | 7585506.9663 | 7585506.9663 | 7585506.9663 |
sim_num_branches                            155008 |       155008 |       155008 |       155008 |       155008 |       155008 |       155008 |       333708 |       333708 |       333708 |       333708 |       333708 |       333708 |       333708 |       714916 |       714916 |       714916 |       714916 |       714916 |       714916 |       714916 |      1527463 |      1527463 |      1527463 |      1527463 |      1527463 |      1527463 |      1527463 |      3252698 |      3252698 |      3252698 |      3252698 |      3252698 |      3252698 |      3252698 |      6889639 |      6889639 |      6889639 |      6889639 |      6889639 |      6889639 |      6889639 |     14576497 |     14576497 |     14576497 |     14576497 |     14576497 |     14576497 |     14576497 |     30710584 |     30710584 |     30710584 |     30710584 |     30710584 |     30710584 |     30710584 |     64602257 |     64602257 |     64602257 |     64602257 |     64602257 |     64602257 |     64602257 |    135424422 |    135424422 |    135424422 |    135424422 |    135424422 |    135424422 |    135424422 |    283580799 |    283580799 |    283580799 |    283580799 |    283580799 |    283580799 |    283580799 |
sim_IPB                                     5.6175 |       5.6175 |       5.6175 |       5.6175 |       5.6175 |       5.6175 |       5.6175 |       5.6022 |       5.6022 |       5.6022 |       5.6022 |       5.6022 |       5.6022 |       5.6022 |       5.5945 |       5.5945 |       5.5945 |       5.5945 |       5.5945 |       5.5945 |       5.5945 |       5.5866 |       5.5866 |       5.5866 |       5.5866 |       5.5866 |       5.5866 |       5.5866 |       5.5823 |       5.5823 |       5.5823 |       5.5823 |       5.5823 |       5.5823 |       5.5823 |       5.5777 |       5.5777 |       5.5777 |       5.5777 |       5.5777 |       5.5777 |       5.5777 |       5.5748 |       5.5748 |       5.5748 |       5.5748 |       5.5748 |       5.5748 |       5.5748 |       5.5709 |       5.5709 |       5.5709 |       5.5709 |       5.5709 |       5.5709 |       5.5709 |       5.5687 |       5.5687 |       5.5687 |       5.5687 |       5.5687 |       5.5687 |       5.5687 |       5.5656 |       5.5656 |       5.5656 |       5.5656 |       5.5656 |       5.5656 |       5.5656 |       5.5638 |       5.5638 |       5.5638 |       5.5638 |       5.5638 |       5.5638 |       5.5638 |
bpred_bimod.lookups                         155008 |       155008 |       155008 |xxxxxxxxxxxxx |xxxxxxxxxxxxx |xxxxxxxxxxxxx |xxxxxxxxxxxxx |       333708 |       333708 |       333708 |xxxxxxxxxxxxx |xxxxxxxxxxxxx |xxxxxxxxxxxxx |xxxxxxxxxxxxx |       714916 |       714916 |       714916 |xxxxxxxxxxxxx |xxxxxxxxxxxxx |xxxxxxxxxxxxx |xxxxxxxxxxxxx |      1527463 |      1527463 |      1527463 |xxxxxxxxxxxxx |xxxxxxxxxxxxx |xxxxxxxxxxxxx |xxxxxxxxxxxxx |      3252698 |      3252698 |      3252698 |xxxxxxxxxxxxx |xxxxxxxxxxxxx |xxxxxxxxxxxxx |xxxxxxxxxxxxx |      6889639 |      6889639 |      6889639 |xxxxxxxxxxxxx |xxxxxxxxxxxxx |xxxxxxxxxxxxx |xxxxxxxxxxxxx |     14576497 |     14576497 |     14576497 |xxxxxxxxxxxxx |xxxxxxxxxxxxx |xxxxxxxxxxxxx |xxxxxxxxxxxxx |     30710584 |     30710584 |     30710584 |xxxxxxxxxxxxx |xxxxxxxxxxxxx |xxxxxxxxxxxxx |xxxxxxxxxxxxx |     64602257 |     64602257 |     64602257 |xxxxxxxxxxxxx |xxxxxxxxxxxxx |xxxxxxxxxxxxx |xxxxxxxxxxxxx |    135424422 |    135424422 |    135424422 |xxxxxxxxxxxxx |xxxxxxxxxxxxx |xxxxxxxxxxxxx |xxxxxxxxxxxxx |    283580799 |    283580799 |    283580799 |
bpred_bimod.updates                         155008 |       155008 |       155008 |xxxxxxxxxxxxx |xxxxxxxxxxxxx |xxxxxxxxxxxxx |xxxxxxxxxxxxx |       333708 |       333708 |       333708 |xxxxxxxxxxxxx |xxxxxxxxxxxxx |xxxxxxxxxxxxx |xxxxxxxxxxxxx |       714916 |       714916 |       714916 |xxxxxxxxxxxxx |xxxxxxxxxxxxx |xxxxxxxxxxxxx |xxxxxxxxxxxxx |      1527463 |      1527463 |      1527463 |xxxxxxxxxxxxx |xxxxxxxxxxxxx |xxxxxxxxxxxxx |xxxxxxxxxxxxx |      3252698 |      3252698 |      3252698 |xxxxxxxxxxxxx |xxxxxxxxxxxxx |xxxxxxxxxxxxx |xxxxxxxxxxxxx |      6889639 |      6889639 |      6889639 |xxxxxxxxxxxxx |xxxxxxxxxxxxx |xxxxxxxxxxxxx |xxxxxxxxxxxxx |     14576497 |     14576497 |     14576497 |xxxxxxxxxxxxx |xxxxxxxxxxxxx |xxxxxxxxxxxxx |xxxxxxxxxxxxx |     30710584 |     30710584 |     30710584 |xxxxxxxxxxxxx |xxxxxxxxxxxxx |xxxxxxxxxxxxx |xxxxxxxxxxxxx |     64602257 |     64602257 |     64602257 |xxxxxxxxxxxxx |xxxxxxxxxxxxx |xxxxxxxxxxxxx |xxxxxxxxxxxxx |    135424422 |    135424422 |    135424422 |xxxxxxxxxxxxx |xxxxxxxxxxxxx |xxxxxxxxxxxxx |xxxxxxxxxxxxx |    283580799 |    283580799 |    283580799 |
bpred_bimod.addr_hits                       124005 |       124013 |       124013 |xxxxxxxxxxxxx |xxxxxxxxxxxxx |xxxxxxxxxxxxx |xxxxxxxxxxxxx |       267113 |       267119 |       267119 |xxxxxxxxxxxxx |xxxxxxxxxxxxx |xxxxxxxxxxxxx |xxxxxxxxxxxxx |       572250 |       572256 |       572257 |xxxxxxxxxxxxx |xxxxxxxxxxxxx |xxxxxxxxxxxxx |xxxxxxxxxxxxx |      1221901 |      1221907 |      1221910 |xxxxxxxxxxxxx |xxxxxxxxxxxxx |xxxxxxxxxxxxx |xxxxxxxxxxxxx |      2604987 |      2604993 |      2604996 |xxxxxxxxxxxxx |xxxxxxxxxxxxx |xxxxxxxxxxxxx |xxxxxxxxxxxxx |      5513497 |      5513504 |      5513506 |xxxxxxxxxxxxx |xxxxxxxxxxxxx |xxxxxxxxxxxxx |xxxxxxxxxxxxx |     11670671 |     11670678 |     11670680 |xxxxxxxxxxxxx |xxxxxxxxxxxxx |xxxxxxxxxxxxx |xxxxxxxxxxxxx |     24563397 |     24563404 |     24563406 |xxxxxxxxxxxxx |xxxxxxxxxxxxx |xxxxxxxxxxxxx |xxxxxxxxxxxxx |     51711949 |     51711955 |     51711956 |xxxxxxxxxxxxx |xxxxxxxxxxxxx |xxxxxxxxxxxxx |xxxxxxxxxxxxx |    108309172 |    108309178 |    108309179 |xxxxxxxxxxxxx |xxxxxxxxxxxxx |xxxxxxxxxxxxx |xxxxxxxxxxxxx |    226962292 |    226962298 |    226962299 |
bpred_bimod.dir_hits                        124127 |       124135 |       124136 |xxxxxxxxxxxxx |xxxxxxxxxxxxx |xxxxxxxxxxxxx |xxxxxxxxxxxxx |       267240 |       267246 |       267246 |xxxxxxxxxxxxx |xxxxxxxxxxxxx |xxxxxxxxxxxxx |xxxxxxxxxxxxx |       572377 |       572383 |       572384 |xxxxxxxxxxxxx |xxxxxxxxxxxxx |xxxxxxxxxxxxx |xxxxxxxxxxxxx |      1222027 |      1222033 |      1222036 |xxxxxxxxxxxxx |xxxxxxxxxxxxx |xxxxxxxxxxxxx |xxxxxxxxxxxxx |      2605113 |      2605119 |      2605122 |xxxxxxxxxxxxx |xxxxxxxxxxxxx |xxxxxxxxxxxxx |xxxxxxxxxxxxx |      5513624 |      5513631 |      5513633 |xxxxxxxxxxxxx |xxxxxxxxxxxxx |xxxxxxxxxxxxx |xxxxxxxxxxxxx |     11670798 |     11670805 |     11670807 |xxxxxxxxxxxxx |xxxxxxxxxxxxx |xxxxxxxxxxxxx |xxxxxxxxxxxxx |     24563524 |     24563531 |     24563533 |xxxxxxxxxxxxx |xxxxxxxxxxxxx |xxxxxxxxxxxxx |xxxxxxxxxxxxx |     51712087 |     51712093 |     51712094 |xxxxxxxxxxxxx |xxxxxxxxxxxxx |xxxxxxxxxxxxx |xxxxxxxxxxxxx |    108309310 |    108309316 |    108309317 |xxxxxxxxxxxxx |xxxxxxxxxxxxx |xxxxxxxxxxxxx |xxxxxxxxxxxxx |    226962430 |    226962436 |    226962437 |
bpred_bimod.misses                           30881 |        30873 |        30872 |xxxxxxxxxxxxx |xxxxxxxxxxxxx |xxxxxxxxxxxxx |xxxxxxxxxxxxx |        66468 |        66462 |        66462 |xxxxxxxxxxxxx |xxxxxxxxxxxxx |xxxxxxxxxxxxx |xxxxxxxxxxxxx |       142539 |       142533 |       142532 |xxxxxxxxxxxxx |xxxxxxxxxxxxx |xxxxxxxxxxxxx |xxxxxxxxxxxxx |       305436 |       305430 |       305427 |xxxxxxxxxxxxx |xxxxxxxxxxxxx |xxxxxxxxxxxxx |xxxxxxxxxxxxx |       647585 |       647579 |       647576 |xxxxxxxxxxxxx |xxxxxxxxxxxxx |xxxxxxxxxxxxx |xxxxxxxxxxxxx |      1376015 |      1376008 |      1376006 |xxxxxxxxxxxxx |xxxxxxxxxxxxx |xxxxxxxxxxxxx |xxxxxxxxxxxxx |      2905699 |      2905692 |      2905690 |xxxxxxxxxxxxx |xxxxxxxxxxxxx |xxxxxxxxxxxxx |xxxxxxxxxxxxx |      6147060 |      6147053 |      6147051 |xxxxxxxxxxxxx |xxxxxxxxxxxxx |xxxxxxxxxxxxx |xxxxxxxxxxxxx |     12890170 |     12890164 |     12890163 |xxxxxxxxxxxxx |xxxxxxxxxxxxx |xxxxxxxxxxxxx |xxxxxxxxxxxxx |     27115112 |     27115106 |     27115105 |xxxxxxxxxxxxx |xxxxxxxxxxxxx |xxxxxxxxxxxxx |xxxxxxxxxxxxx |     56618369 |     56618363 |     56618362 |
bpred_bimod.jr_hits                           4157 |         4157 |         4157 |xxxxxxxxxxxxx |xxxxxxxxxxxxx |xxxxxxxxxxxxx |xxxxxxxxxxxxx |         8261 |         8261 |         8261 |xxxxxxxxxxxxx |xxxxxxxxxxxxx |xxxxxxxxxxxxx |xxxxxxxxxxxxx |        16453 |        16453 |        16453 |xxxxxxxxxxxxx |xxxxxxxxxxxxx |xxxxxxxxxxxxx |xxxxxxxxxxxxx |        32837 |        32837 |        32837 |xxxxxxxxxxxxx |xxxxxxxxxxxxx |xxxxxxxxxxxxx |xxxxxxxxxxxxx |        65605 |        65605 |        65605 |xxxxxxxxxxxxx |xxxxxxxxxxxxx |xxxxxxxxxxxxx |xxxxxxxxxxxxx |       131141 |       131141 |       131141 |xxxxxxxxxxxxx |xxxxxxxxxxxxx |xxxxxxxxxxxxx |xxxxxxxxxxxxx |       262213 |       262213 |       262213 |xxxxxxxxxxxxx |xxxxxxxxxxxxx |xxxxxxxxxxxxx |xxxxxxxxxxxxx |       524357 |       524357 |       524357 |xxxxxxxxxxxxx |xxxxxxxxxxxxx |xxxxxxxxxxxxx |xxxxxxxxxxxxx |      1048648 |      1048648 |      1048648 |xxxxxxxxxxxxx |xxxxxxxxxxxxx |xxxxxxxxxxxxx |xxxxxxxxxxxxx |      2097224 |      2097224 |      2097224 |xxxxxxxxxxxxx |xxxxxxxxxxxxx |xxxxxxxxxxxxx |xxxxxxxxxxxxx |      4194376 |      4194376 |      4194376 |
bpred_bimod.jr_seen                           4157 |         4157 |         4157 |xxxxxxxxxxxxx |xxxxxxxxxxxxx |xxxxxxxxxxxxx |xxxxxxxxxxxxx |         8262 |         8262 |         8262 |xxxxxxxxxxxxx |xxxxxxxxxxxxx |xxxxxxxxxxxxx |xxxxxxxxxxxxx |        16454 |        16454 |        16454 |xxxxxxxxxxxxx |xxxxxxxxxxxxx |xxxxxxxxxxxxx |xxxxxxxxxxxxx |        32838 |        32838 |        32838 |xxxxxxxxxxxxx |xxxxxxxxxxxxx |xxxxxxxxxxxxx |xxxxxxxxxxxxx |        65606 |        65606 |        65606 |xxxxxxxxxxxxx |xxxxxxxxxxxxx |xxxxxxxxxxxxx |xxxxxxxxxxxxx |       131142 |       131142 |       131142 |xxxxxxxxxxxxx |xxxxxxxxxxxxx |xxxxxxxxxxxxx |xxxxxxxxxxxxx |       262214 |       262214 |       262214 |xxxxxxxxxxxxx |xxxxxxxxxxxxx |xxxxxxxxxxxxx |xxxxxxxxxxxxx |       524358 |       524358 |       524358 |xxxxxxxxxxxxx |xxxxxxxxxxxxx |xxxxxxxxxxxxx |xxxxxxxxxxxxx |      1048649 |      1048649 |      1048649 |xxxxxxxxxxxxx |xxxxxxxxxxxxx |xxxxxxxxxxxxx |xxxxxxxxxxxxx |      2097225 |      2097225 |      2097225 |xxxxxxxxxxxxx |xxxxxxxxxxxxx |xxxxxxxxxxxxx |xxxxxxxxxxxxx |      4194377 |      4194377 |      4194377 |
bpred_bimod.jr_non_ras_hits.PP                   0 |            0 |            0 |xxxxxxxxxxxxx |xxxxxxxxxxxxx |xxxxxxxxxxxxx |xxxxxxxxxxxxx |            0 |            0 |            0 |xxxxxxxxxxxxx |xxxxxxxxxxxxx |xxxxxxxxxxxxx |xxxxxxxxxxxxx |            0 |            0 |            0 |xxxxxxxxxxxxx |xxxxxxxxxxxxx |xxxxxxxxxxxxx |xxxxxxxxxxxxx |            0 |            0 |            0 |xxxxxxxxxxxxx |xxxxxxxxxxxxx |xxxxxxxxxxxxx |xxxxxxxxxxxxx |            0 |            0 |            0 |xxxxxxxxxxxxx |xxxxxxxxxxxxx |xxxxxxxxxxxxx |xxxxxxxxxxxxx |            0 |            0 |            0 |xxxxxxxxxxxxx |xxxxxxxxxxxxx |xxxxxxxxxxxxx |xxxxxxxxxxxxx |            0 |            0 |            0 |xxxxxxxxxxxxx |xxxxxxxxxxxxx |xxxxxxxxxxxxx |xxxxxxxxxxxxx |            0 |            0 |            0 |xxxxxxxxxxxxx |xxxxxxxxxxxxx |xxxxxxxxxxxxx |xxxxxxxxxxxxx |            0 |            0 |            0 |xxxxxxxxxxxxx |xxxxxxxxxxxxx |xxxxxxxxxxxxx |xxxxxxxxxxxxx |            0 |            0 |            0 |xxxxxxxxxxxxx |xxxxxxxxxxxxx |xxxxxxxxxxxxx |xxxxxxxxxxxxx |            0 |            0 |            0 |
bpred_bimod.jr_non_ras_seen.PP                   0 |            0 |            0 |xxxxxxxxxxxxx |xxxxxxxxxxxxx |xxxxxxxxxxxxx |xxxxxxxxxxxxx |            0 |            0 |            0 |xxxxxxxxxxxxx |xxxxxxxxxxxxx |xxxxxxxxxxxxx |xxxxxxxxxxxxx |            0 |            0 |            0 |xxxxxxxxxxxxx |xxxxxxxxxxxxx |xxxxxxxxxxxxx |xxxxxxxxxxxxx |            0 |            0 |            0 |xxxxxxxxxxxxx |xxxxxxxxxxxxx |xxxxxxxxxxxxx |xxxxxxxxxxxxx |            0 |            0 |            0 |xxxxxxxxxxxxx |xxxxxxxxxxxxx |xxxxxxxxxxxxx |xxxxxxxxxxxxx |            0 |            0 |            0 |xxxxxxxxxxxxx |xxxxxxxxxxxxx |xxxxxxxxxxxxx |xxxxxxxxxxxxx |            0 |            0 |            0 |xxxxxxxxxxxxx |xxxxxxxxxxxxx |xxxxxxxxxxxxx |xxxxxxxxxxxxx |            0 |            0 |            0 |xxxxxxxxxxxxx |xxxxxxxxxxxxx |xxxxxxxxxxxxx |xxxxxxxxxxxxx |            1 |            1 |            1 |xxxxxxxxxxxxx |xxxxxxxxxxxxx |xxxxxxxxxxxxx |xxxxxxxxxxxxx |            1 |            1 |            1 |xxxxxxxxxxxxx |xxxxxxxxxxxxx |xxxxxxxxxxxxx |xxxxxxxxxxxxx |            1 |            1 |            1 |
bpred_bimod.bpred_addr_rate                 0.8000 |       0.8000 |       0.8000 |xxxxxxxxxxxxx |xxxxxxxxxxxxx |xxxxxxxxxxxxx |xxxxxxxxxxxxx |       0.8004 |       0.8005 |       0.8005 |xxxxxxxxxxxxx |xxxxxxxxxxxxx |xxxxxxxxxxxxx |xxxxxxxxxxxxx |       0.8004 |       0.8005 |       0.8005 |xxxxxxxxxxxxx |xxxxxxxxxxxxx |xxxxxxxxxxxxx |xxxxxxxxxxxxx |       0.8000 |       0.8000 |       0.8000 |xxxxxxxxxxxxx |xxxxxxxxxxxxx |xxxxxxxxxxxxx |xxxxxxxxxxxxx |       0.8009 |       0.8009 |       0.8009 |xxxxxxxxxxxxx |xxxxxxxxxxxxx |xxxxxxxxxxxxx |xxxxxxxxxxxxx |       0.8003 |       0.8003 |       0.8003 |xxxxxxxxxxxxx |xxxxxxxxxxxxx |xxxxxxxxxxxxx |xxxxxxxxxxxxx |       0.8006 |       0.8007 |       0.8007 |xxxxxxxxxxxxx |xxxxxxxxxxxxx |xxxxxxxxxxxxx |xxxxxxxxxxxxx |       0.7998 |       0.7998 |       0.7998 |xxxxxxxxxxxxx |xxxxxxxxxxxxx |xxxxxxxxxxxxx |xxxxxxxxxxxxx |       0.8005 |       0.8005 |       0.8005 |xxxxxxxxxxxxx |xxxxxxxxxxxxx |xxxxxxxxxxxxx |xxxxxxxxxxxxx |       0.7998 |       0.7998 |       0.7998 |xxxxxxxxxxxxx |xxxxxxxxxxxxx |xxxxxxxxxxxxx |xxxxxxxxxxxxx |       0.8003 |       0.8003 |       0.8003 |
bpred_bimod.bpred_dir_rate                  0.8008 |       0.8008 |       0.8008 |xxxxxxxxxxxxx |xxxxxxxxxxxxx |xxxxxxxxxxxxx |xxxxxxxxxxxxx |       0.8008 |       0.8008 |       0.8008 |xxxxxxxxxxxxx |xxxxxxxxxxxxx |xxxxxxxxxxxxx |xxxxxxxxxxxxx |       0.8006 |       0.8006 |       0.8006 |xxxxxxxxxxxxx |xxxxxxxxxxxxx |xxxxxxxxxxxxx |xxxxxxxxxxxxx |       0.8000 |       0.8000 |       0.8000 |xxxxxxxxxxxxx |xxxxxxxxxxxxx |xxxxxxxxxxxxx |xxxxxxxxxxxxx |       0.8009 |       0.8009 |       0.8009 |xxxxxxxxxxxxx |xxxxxxxxxxxxx |xxxxxxxxxxxxx |xxxxxxxxxxxxx |       0.8003 |       0.8003 |       0.8003 |xxxxxxxxxxxxx |xxxxxxxxxxxxx |xxxxxxxxxxxxx |xxxxxxxxxxxxx |       0.8007 |       0.8007 |       0.8007 |xxxxxxxxxxxxx |xxxxxxxxxxxxx |xxxxxxxxxxxxx |xxxxxxxxxxxxx |       0.7998 |       0.7998 |       0.7998 |xxxxxxxxxxxxx |xxxxxxxxxxxxx |xxxxxxxxxxxxx |xxxxxxxxxxxxx |       0.8005 |       0.8005 |       0.8005 |xxxxxxxxxxxxx |xxxxxxxxxxxxx |xxxxxxxxxxxxx |xxxxxxxxxxxxx |       0.7998 |       0.7998 |       0.7998 |xxxxxxxxxxxxx |xxxxxxxxxxxxx |xxxxxxxxxxxxx |xxxxxxxxxxxxx |       0.8003 |       0.8003 |       0.8003 |
bpred_bimod.bpred_jr_rate                   1.0000 |       1.0000 |       1.0000 |xxxxxxxxxxxxx |xxxxxxxxxxxxx |xxxxxxxxxxxxx |xxxxxxxxxxxxx |       0.9999 |       0.9999 |       0.9999 |xxxxxxxxxxxxx |xxxxxxxxxxxxx |xxxxxxxxxxxxx |xxxxxxxxxxxxx |       0.9999 |       0.9999 |       0.9999 |xxxxxxxxxxxxx |xxxxxxxxxxxxx |xxxxxxxxxxxxx |xxxxxxxxxxxxx |       1.0000 |       1.0000 |       1.0000 |xxxxxxxxxxxxx |xxxxxxxxxxxxx |xxxxxxxxxxxxx |xxxxxxxxxxxxx |       1.0000 |       1.0000 |       1.0000 |xxxxxxxxxxxxx |xxxxxxxxxxxxx |xxxxxxxxxxxxx |xxxxxxxxxxxxx |       1.0000 |       1.0000 |       1.0000 |xxxxxxxxxxxxx |xxxxxxxxxxxxx |xxxxxxxxxxxxx |xxxxxxxxxxxxx |       1.0000 |       1.0000 |       1.0000 |xxxxxxxxxxxxx |xxxxxxxxxxxxx |xxxxxxxxxxxxx |xxxxxxxxxxxxx |       1.0000 |       1.0000 |       1.0000 |xxxxxxxxxxxxx |xxxxxxxxxxxxx |xxxxxxxxxxxxx |xxxxxxxxxxxxx |       1.0000 |       1.0000 |       1.0000 |xxxxxxxxxxxxx |xxxxxxxxxxxxx |xxxxxxxxxxxxx |xxxxxxxxxxxxx |       1.0000 |       1.0000 |       1.0000 |xxxxxxxxxxxxx |xxxxxxxxxxxxx |xxxxxxxxxxxxx |xxxxxxxxxxxxx |       1.0000 |       1.0000 |       1.0000 |
bpred_bimod.bpred_jr_non_ras_rate.PP       <error: |      <error: |      <error: |xxxxxxxxxxxxx |xxxxxxxxxxxxx |xxxxxxxxxxxxx |xxxxxxxxxxxxx |      <error: |      <error: |      <error: |xxxxxxxxxxxxx |xxxxxxxxxxxxx |xxxxxxxxxxxxx |xxxxxxxxxxxxx |      <error: |      <error: |      <error: |xxxxxxxxxxxxx |xxxxxxxxxxxxx |xxxxxxxxxxxxx |xxxxxxxxxxxxx |      <error: |      <error: |      <error: |xxxxxxxxxxxxx |xxxxxxxxxxxxx |xxxxxxxxxxxxx |xxxxxxxxxxxxx |      <error: |      <error: |      <error: |xxxxxxxxxxxxx |xxxxxxxxxxxxx |xxxxxxxxxxxxx |xxxxxxxxxxxxx |      <error: |      <error: |      <error: |xxxxxxxxxxxxx |xxxxxxxxxxxxx |xxxxxxxxxxxxx |xxxxxxxxxxxxx |      <error: |      <error: |      <error: |xxxxxxxxxxxxx |xxxxxxxxxxxxx |xxxxxxxxxxxxx |xxxxxxxxxxxxx |      <error: |      <error: |      <error: |xxxxxxxxxxxxx |xxxxxxxxxxxxx |xxxxxxxxxxxxx |xxxxxxxxxxxxx |       0.0000 |       0.0000 |       0.0000 |xxxxxxxxxxxxx |xxxxxxxxxxxxx |xxxxxxxxxxxxx |xxxxxxxxxxxxx |       0.0000 |       0.0000 |       0.0000 |xxxxxxxxxxxxx |xxxxxxxxxxxxx |xxxxxxxxxxxxx |xxxxxxxxxxxxx |       0.0000 |       0.0000 |       0.0000 |
bpred_bimod.retstack_pushes                   4159 |         4159 |         4159 |xxxxxxxxxxxxx |xxxxxxxxxxxxx |xxxxxxxxxxxxx |xxxxxxxxxxxxx |         8264 |         8264 |         8264 |xxxxxxxxxxxxx |xxxxxxxxxxxxx |xxxxxxxxxxxxx |xxxxxxxxxxxxx |        16456 |        16456 |        16456 |xxxxxxxxxxxxx |xxxxxxxxxxxxx |xxxxxxxxxxxxx |xxxxxxxxxxxxx |        32840 |        32840 |        32840 |xxxxxxxxxxxxx |xxxxxxxxxxxxx |xxxxxxxxxxxxx |xxxxxxxxxxxxx |        65608 |        65608 |        65608 |xxxxxxxxxxxxx |xxxxxxxxxxxxx |xxxxxxxxxxxxx |xxxxxxxxxxxxx |       131144 |       131144 |       131144 |xxxxxxxxxxxxx |xxxxxxxxxxxxx |xxxxxxxxxxxxx |xxxxxxxxxxxxx |       262216 |       262216 |       262216 |xxxxxxxxxxxxx |xxxxxxxxxxxxx |xxxxxxxxxxxxx |xxxxxxxxxxxxx |       524360 |       524360 |       524360 |xxxxxxxxxxxxx |xxxxxxxxxxxxx |xxxxxxxxxxxxx |xxxxxxxxxxxxx |      1048650 |      1048650 |      1048650 |xxxxxxxxxxxxx |xxxxxxxxxxxxx |xxxxxxxxxxxxx |xxxxxxxxxxxxx |      2097226 |      2097226 |      2097226 |xxxxxxxxxxxxx |xxxxxxxxxxxxx |xxxxxxxxxxxxx |xxxxxxxxxxxxx |      4194378 |      4194378 |      4194378 |
bpred_bimod.retstack_pops                     4157 |         4157 |         4157 |xxxxxxxxxxxxx |xxxxxxxxxxxxx |xxxxxxxxxxxxx |xxxxxxxxxxxxx |         8262 |         8262 |         8262 |xxxxxxxxxxxxx |xxxxxxxxxxxxx |xxxxxxxxxxxxx |xxxxxxxxxxxxx |        16454 |        16454 |        16454 |xxxxxxxxxxxxx |xxxxxxxxxxxxx |xxxxxxxxxxxxx |xxxxxxxxxxxxx |        32838 |        32838 |        32838 |xxxxxxxxxxxxx |xxxxxxxxxxxxx |xxxxxxxxxxxxx |xxxxxxxxxxxxx |        65606 |        65606 |        65606 |xxxxxxxxxxxxx |xxxxxxxxxxxxx |xxxxxxxxxxxxx |xxxxxxxxxxxxx |       131142 |       131142 |       131142 |xxxxxxxxxxxxx |xxxxxxxxxxxxx |xxxxxxxxxxxxx |xxxxxxxxxxxxx |       262214 |       262214 |       262214 |xxxxxxxxxxxxx |xxxxxxxxxxxxx |xxxxxxxxxxxxx |xxxxxxxxxxxxx |       524358 |       524358 |       524358 |xxxxxxxxxxxxx |xxxxxxxxxxxxx |xxxxxxxxxxxxx |xxxxxxxxxxxxx |      1048648 |      1048648 |      1048648 |xxxxxxxxxxxxx |xxxxxxxxxxxxx |xxxxxxxxxxxxx |xxxxxxxxxxxxx |      2097224 |      2097224 |      2097224 |xxxxxxxxxxxxx |xxxxxxxxxxxxx |xxxxxxxxxxxxx |xxxxxxxxxxxxx |      4194376 |      4194376 |      4194376 |
bpred_bimod.used_ras.PP                       4157 |         4157 |         4157 |xxxxxxxxxxxxx |xxxxxxxxxxxxx |xxxxxxxxxxxxx |xxxxxxxxxxxxx |         8262 |         8262 |         8262 |xxxxxxxxxxxxx |xxxxxxxxxxxxx |xxxxxxxxxxxxx |xxxxxxxxxxxxx |        16454 |        16454 |        16454 |xxxxxxxxxxxxx |xxxxxxxxxxxxx |xxxxxxxxxxxxx |xxxxxxxxxxxxx |        32838 |        32838 |        32838 |xxxxxxxxxxxxx |xxxxxxxxxxxxx |xxxxxxxxxxxxx |xxxxxxxxxxxxx |        65606 |        65606 |        65606 |xxxxxxxxxxxxx |xxxxxxxxxxxxx |xxxxxxxxxxxxx |xxxxxxxxxxxxx |       131142 |       131142 |       131142 |xxxxxxxxxxxxx |xxxxxxxxxxxxx |xxxxxxxxxxxxx |xxxxxxxxxxxxx |       262214 |       262214 |       262214 |xxxxxxxxxxxxx |xxxxxxxxxxxxx |xxxxxxxxxxxxx |xxxxxxxxxxxxx |       524358 |       524358 |       524358 |xxxxxxxxxxxxx |xxxxxxxxxxxxx |xxxxxxxxxxxxx |xxxxxxxxxxxxx |      1048648 |      1048648 |      1048648 |xxxxxxxxxxxxx |xxxxxxxxxxxxx |xxxxxxxxxxxxx |xxxxxxxxxxxxx |      2097224 |      2097224 |      2097224 |xxxxxxxxxxxxx |xxxxxxxxxxxxx |xxxxxxxxxxxxx |xxxxxxxxxxxxx |      4194376 |      4194376 |      4194376 |
bpred_bimod.ras_hits.PP                       4157 |         4157 |         4157 |xxxxxxxxxxxxx |xxxxxxxxxxxxx |xxxxxxxxxxxxx |xxxxxxxxxxxxx |         8261 |         8261 |         8261 |xxxxxxxxxxxxx |xxxxxxxxxxxxx |xxxxxxxxxxxxx |xxxxxxxxxxxxx |        16453 |        16453 |        16453 |xxxxxxxxxxxxx |xxxxxxxxxxxxx |xxxxxxxxxxxxx |xxxxxxxxxxxxx |        32837 |        32837 |        32837 |xxxxxxxxxxxxx |xxxxxxxxxxxxx |xxxxxxxxxxxxx |xxxxxxxxxxxxx |        65605 |        65605 |        65605 |xxxxxxxxxxxxx |xxxxxxxxxxxxx |xxxxxxxxxxxxx |xxxxxxxxxxxxx |       131141 |       131141 |       131141 |xxxxxxxxxxxxx |xxxxxxxxxxxxx |xxxxxxxxxxxxx |xxxxxxxxxxxxx |       262213 |       262213 |       262213 |xxxxxxxxxxxxx |xxxxxxxxxxxxx |xxxxxxxxxxxxx |xxxxxxxxxxxxx |       524357 |       524357 |       524357 |xxxxxxxxxxxxx |xxxxxxxxxxxxx |xxxxxxxxxxxxx |xxxxxxxxxxxxx |      1048648 |      1048648 |      1048648 |xxxxxxxxxxxxx |xxxxxxxxxxxxx |xxxxxxxxxxxxx |xxxxxxxxxxxxx |      2097224 |      2097224 |      2097224 |xxxxxxxxxxxxx |xxxxxxxxxxxxx |xxxxxxxxxxxxx |xxxxxxxxxxxxx |      4194376 |      4194376 |      4194376 |
bpred_bimod.ras_rate.PP                     1.0000 |       1.0000 |       1.0000 |xxxxxxxxxxxxx |xxxxxxxxxxxxx |xxxxxxxxxxxxx |xxxxxxxxxxxxx |       0.9999 |       0.9999 |       0.9999 |xxxxxxxxxxxxx |xxxxxxxxxxxxx |xxxxxxxxxxxxx |xxxxxxxxxxxxx |       0.9999 |       0.9999 |       0.9999 |xxxxxxxxxxxxx |xxxxxxxxxxxxx |xxxxxxxxxxxxx |xxxxxxxxxxxxx |       1.0000 |       1.0000 |       1.0000 |xxxxxxxxxxxxx |xxxxxxxxxxxxx |xxxxxxxxxxxxx |xxxxxxxxxxxxx |       1.0000 |       1.0000 |       1.0000 |xxxxxxxxxxxxx |xxxxxxxxxxxxx |xxxxxxxxxxxxx |xxxxxxxxxxxxx |       1.0000 |       1.0000 |       1.0000 |xxxxxxxxxxxxx |xxxxxxxxxxxxx |xxxxxxxxxxxxx |xxxxxxxxxxxxx |       1.0000 |       1.0000 |       1.0000 |xxxxxxxxxxxxx |xxxxxxxxxxxxx |xxxxxxxxxxxxx |xxxxxxxxxxxxx |       1.0000 |       1.0000 |       1.0000 |xxxxxxxxxxxxx |xxxxxxxxxxxxx |xxxxxxxxxxxxx |xxxxxxxxxxxxx |       1.0000 |       1.0000 |       1.0000 |xxxxxxxxxxxxx |xxxxxxxxxxxxx |xxxxxxxxxxxxx |xxxxxxxxxxxxx |       1.0000 |       1.0000 |       1.0000 |xxxxxxxxxxxxx |xxxxxxxxxxxxx |xxxxxxxxxxxxx |xxxxxxxxxxxxx |       1.0000 |       1.0000 |       1.0000 |
bpred_2lev.lookups                   xxxxxxxxxxxxx |xxxxxxxxxxxxx |xxxxxxxxxxxxx |       155008 |       155008 |       155008 |       155008 |xxxxxxxxxxxxx |xxxxxxxxxxxxx |xxxxxxxxxxxxx |       333708 |       333708 |       333708 |       333708 |xxxxxxxxxxxxx |xxxxxxxxxxxxx |xxxxxxxxxxxxx |       714916 |       714916 |       714916 |       714916 |xxxxxxxxxxxxx |xxxxxxxxxxxxx |xxxxxxxxxxxxx |      1527463 |      1527463 |      1527463 |      1527463 |xxxxxxxxxxxxx |xxxxxxxxxxxxx |xxxxxxxxxxxxx |      3252698 |      3252698 |      3252698 |      3252698 |xxxxxxxxxxxxx |xxxxxxxxxxxxx |xxxxxxxxxxxxx |      6889639 |      6889639 |      6889639 |      6889639 |xxxxxxxxxxxxx |xxxxxxxxxxxxx |xxxxxxxxxxxxx |     14576497 |     14576497 |     14576497 |     14576497 |xxxxxxxxxxxxx |xxxxxxxxxxxxx |xxxxxxxxxxxxx |     30710584 |     30710584 |     30710584 |     30710584 |xxxxxxxxxxxxx |xxxxxxxxxxxxx |xxxxxxxxxxxxx |     64602257 |     64602257 |     64602257 |     64602257 |xxxxxxxxxxxxx |xxxxxxxxxxxxx |xxxxxxxxxxxxx |    135424422 |    135424422 |    135424422 |    135424422 |xxxxxxxxxxxxx |xxxxxxxxxxxxx |xxxxxxxxxxxxx |    283580799 |    283580799 |    283580799 |    283580799 |
[...]
bpred_2lev.retstack_pushes           xxxxxxxxxxxxx |xxxxxxxxxxxxx |xxxxxxxxxxxxx |         4159 |         4159 |         4159 |         4159 |xxxxxxxxxxxxx |xxxxxxxxxxxxx |xxxxxxxxxxxxx |         8264 |         8264 |         8264 |         8264 |xxxxxxxxxxxxx |xxxxxxxxxxxxx |xxxxxxxxxxxxx |        16456 |        16456 |        16456 |        16456 |xxxxxxxxxxxxx |xxxxxxxxxxxxx |xxxxxxxxxxxxx |        32840 |        32840 |        32840 |        32840 |xxxxxxxxxxxxx |xxxxxxxxxxxxx |xxxxxxxxxxxxx |        65608 |        65608 |        65608 |        65608 |xxxxxxxxxxxxx |xxxxxxxxxxxxx |xxxxxxxxxxxxx |       131144 |       131144 |       131144 |       131144 |xxxxxxxxxxxxx |xxxxxxxxxxxxx |xxxxxxxxxxxxx |       262216 |       262216 |       262216 |       262216 |xxxxxxxxxxxxx |xxxxxxxxxxxxx |xxxxxxxxxxxxx |       524360 |       524360 |       524360 |       524360 |xxxxxxxxxxxxx |xxxxxxxxxxxxx |xxxxxxxxxxxxx |      1048650 |      1048650 |      1048650 |      1048650 |xxxxxxxxxxxxx |xxxxxxxxxxxxx |xxxxxxxxxxxxx |      2097226 |      2097226 |      2097226 |      2097226 |xxxxxxxxxxxxx |xxxxxxxxxxxxx |xxxxxxxxxxxxx |      4194378 |      4194378 |      4194378 |      4194378 |
bpred_2lev.retstack_pops             xxxxxxxxxxxxx |xxxxxxxxxxxxx |xxxxxxxxxxxxx |         4157 |         4157 |         4157 |         4157 |xxxxxxxxxxxxx |xxxxxxxxxxxxx |xxxxxxxxxxxxx |         8262 |         8262 |         8262 |         8262 |xxxxxxxxxxxxx |xxxxxxxxxxxxx |xxxxxxxxxxxxx |        16454 |        16454 |        16454 |        16454 |xxxxxxxxxxxxx |xxxxxxxxxxxxx |xxxxxxxxxxxxx |        32838 |        32838 |        32838 |        32838 |xxxxxxxxxxxxx |xxxxxxxxxxxxx |xxxxxxxxxxxxx |        65606 |        65606 |        65606 |        65606 |xxxxxxxxxxxxx |xxxxxxxxxxxxx |xxxxxxxxxxxxx |       131142 |       131142 |       131142 |       131142 |xxxxxxxxxxxxx |xxxxxxxxxxxxx |xxxxxxxxxxxxx |       262214 |       262214 |       262214 |       262214 |xxxxxxxxxxxxx |xxxxxxxxxxxxx |xxxxxxxxxxxxx |       524358 |       524358 |       524358 |       524358 |xxxxxxxxxxxxx |xxxxxxxxxxxxx |xxxxxxxxxxxxx |      1048648 |      1048648 |      1048648 |      1048648 |xxxxxxxxxxxxx |xxxxxxxxxxxxx |xxxxxxxxxxxxx |      2097224 |      2097224 |      2097224 |      2097224 |xxxxxxxxxxxxx |xxxxxxxxxxxxx |xxxxxxxxxxxxx |      4194376 |      4194376 |      4194376 |      4194376 |
bpred_2lev.used_ras.PP               xxxxxxxxxxxxx |xxxxxxxxxxxxx |xxxxxxxxxxxxx |         4157 |         4157 |         4157 |         4157 |xxxxxxxxxxxxx |xxxxxxxxxxxxx |xxxxxxxxxxxxx |         8262 |         8262 |         8262 |         8262 |xxxxxxxxxxxxx |xxxxxxxxxxxxx |xxxxxxxxxxxxx |        16454 |        16454 |        16454 |        16454 |xxxxxxxxxxxxx |xxxxxxxxxxxxx |xxxxxxxxxxxxx |        32838 |        32838 |        32838 |        32838 |xxxxxxxxxxxxx |xxxxxxxxxxxxx |xxxxxxxxxxxxx |        65606 |        65606 |        65606 |        65606 |xxxxxxxxxxxxx |xxxxxxxxxxxxx |xxxxxxxxxxxxx |       131142 |       131142 |       131142 |       131142 |xxxxxxxxxxxxx |xxxxxxxxxxxxx |xxxxxxxxxxxxx |       262214 |       262214 |       262214 |       262214 |xxxxxxxxxxxxx |xxxxxxxxxxxxx |xxxxxxxxxxxxx |       524358 |       524358 |       524358 |       524358 |xxxxxxxxxxxxx |xxxxxxxxxxxxx |xxxxxxxxxxxxx |      1048648 |      1048648 |      1048648 |      1048648 |xxxxxxxxxxxxx |xxxxxxxxxxxxx |xxxxxxxxxxxxx |      2097224 |      2097224 |      2097224 |      2097224 |xxxxxxxxxxxxx |xxxxxxxxxxxxx |xxxxxxxxxxxxx |      4194376 |      4194376 |      4194376 |      4194376 |
bpred_2lev.ras_hits.PP               xxxxxxxxxxxxx |xxxxxxxxxxxxx |xxxxxxxxxxxxx |         4157 |         4157 |         4157 |         4157 |xxxxxxxxxxxxx |xxxxxxxxxxxxx |xxxxxxxxxxxxx |         8261 |         8261 |         8261 |         8261 |xxxxxxxxxxxxx |xxxxxxxxxxxxx |xxxxxxxxxxxxx |        16453 |        16453 |        16453 |        16453 |xxxxxxxxxxxxx |xxxxxxxxxxxxx |xxxxxxxxxxxxx |        32837 |        32837 |        32837 |        32837 |xxxxxxxxxxxxx |xxxxxxxxxxxxx |xxxxxxxxxxxxx |        65605 |        65605 |        65605 |        65605 |xxxxxxxxxxxxx |xxxxxxxxxxxxx |xxxxxxxxxxxxx |       131141 |       131141 |       131141 |       131141 |xxxxxxxxxxxxx |xxxxxxxxxxxxx |xxxxxxxxxxxxx |       262213 |       262213 |       262213 |       262213 |xxxxxxxxxxxxx |xxxxxxxxxxxxx |xxxxxxxxxxxxx |       524357 |       524357 |       524357 |       524357 |xxxxxxxxxxxxx |xxxxxxxxxxxxx |xxxxxxxxxxxxx |      1048648 |      1048648 |      1048648 |      1048648 |xxxxxxxxxxxxx |xxxxxxxxxxxxx |xxxxxxxxxxxxx |      2097224 |      2097224 |      2097224 |      2097224 |xxxxxxxxxxxxx |xxxxxxxxxxxxx |xxxxxxxxxxxxx |      4194376 |      4194376 |      4194376 |      4194376 |
bpred_2lev.ras_rate.PP               xxxxxxxxxxxxx |xxxxxxxxxxxxx |xxxxxxxxxxxxx |       1.0000 |       1.0000 |       1.0000 |       1.0000 |xxxxxxxxxxxxx |xxxxxxxxxxxxx |xxxxxxxxxxxxx |       0.9999 |       0.9999 |       0.9999 |       0.9999 |xxxxxxxxxxxxx |xxxxxxxxxxxxx |xxxxxxxxxxxxx |       0.9999 |       0.9999 |       0.9999 |       0.9999 |xxxxxxxxxxxxx |xxxxxxxxxxxxx |xxxxxxxxxxxxx |       1.0000 |       1.0000 |       1.0000 |       1.0000 |xxxxxxxxxxxxx |xxxxxxxxxxxxx |xxxxxxxxxxxxx |       1.0000 |       1.0000 |       1.0000 |       1.0000 |xxxxxxxxxxxxx |xxxxxxxxxxxxx |xxxxxxxxxxxxx |       1.0000 |       1.0000 |       1.0000 |       1.0000 |xxxxxxxxxxxxx |xxxxxxxxxxxxx |xxxxxxxxxxxxx |       1.0000 |       1.0000 |       1.0000 |       1.0000 |xxxxxxxxxxxxx |xxxxxxxxxxxxx |xxxxxxxxxxxxx |       1.0000 |       1.0000 |       1.0000 |       1.0000 |xxxxxxxxxxxxx |xxxxxxxxxxxxx |xxxxxxxxxxxxx |       1.0000 |       1.0000 |       1.0000 |       1.0000 |xxxxxxxxxxxxx |xxxxxxxxxxxxx |xxxxxxxxxxxxx |       1.0000 |       1.0000 |       1.0000 |       1.0000 |xxxxxxxxxxxxx |xxxxxxxxxxxxx |xxxxxxxxxxxxx |       1.0000 |       1.0000 |       1.0000 |       1.0000 |

Command list: 
	sslittle-na-sstrix-gcc -Wall -O3 -funroll-loops -finline-functions  -DRANDOM_SIZE=4096 -DOFFSET=7 -DSORT=cache4_heapsort sorts/cache4_heapsort1068765793.c simpleMain.c -o cache4_heapsort1423496814
	sim-cache -cache:dl1 dl1:512:16:1:l -cache:dl2 dl2:262144:16:1:l -cache:il1 il1:512:16:1:l -cache:il2 dl2 cache4_heapsort1423496814
	sim-cache -cache:dl1 dl1:512:16:1:l -cache:dl2 dl2:131072:16:1:l -cache:il1 il1:512:16:1:l -cache:il2 dl2 cache4_heapsort1423496814
	sim-cache -cache:dl1 dl1:1:16:512:l -cache:dl2 dl2:1:16:262144:l -cache:il1 il1:1:16:512:l -cache:il2 dl2 cache4_heapsort1423496814
	sim-cache -cache:dl1 dl1:1:16:512:l -cache:dl2 dl2:1:16:131072:l -cache:il1 il1:1:16:512:l -cache:il2 dl2 cache4_heapsort1423496814
	sim-bpred -bpred bimod -bpred:bimod 512 cache4_heapsort1423496814
	sim-bpred -bpred bimod -bpred:bimod 1024 cache4_heapsort1423496814
	sim-bpred -bpred bimod -bpred:bimod 2048 cache4_heapsort1423496814
	sim-bpred -bpred 2lev -bpred:2lev 1 512 10 1 cache4_heapsort1423496814
	sim-bpred -bpred 2lev -bpred:2lev 1 1024 10 1 cache4_heapsort1423496814
	sim-bpred -bpred 2lev -bpred:2lev 1 2048 10 1 cache4_heapsort1423496814
	sim-bpred -bpred 2lev -bpred:2lev 1 4096 10 1 cache4_heapsort1423496814
	sslittle-na-sstrix-gcc -Wall -O3 -funroll-loops -finline-functions  -DRANDOM_SIZE=8192 -DOFFSET=7 -DSORT=cache4_heapsort sorts/cache4_heapsort1068765793.c simpleMain.c -o cache4_heapsort1423496814
	sim-cache -cache:dl1 dl1:512:16:1:l -cache:dl2 dl2:262144:16:1:l -cache:il1 il1:512:16:1:l -cache:il2 dl2 cache4_heapsort1423496814
	sim-cache -cache:dl1 dl1:512:16:1:l -cache:dl2 dl2:131072:16:1:l -cache:il1 il1:512:16:1:l -cache:il2 dl2 cache4_heapsort1423496814
	sim-cache -cache:dl1 dl1:1:16:512:l -cache:dl2 dl2:1:16:262144:l -cache:il1 il1:1:16:512:l -cache:il2 dl2 cache4_heapsort1423496814
	sim-cache -cache:dl1 dl1:1:16:512:l -cache:dl2 dl2:1:16:131072:l -cache:il1 il1:1:16:512:l -cache:il2 dl2 cache4_heapsort1423496814
	sim-bpred -bpred bimod -bpred:bimod 512 cache4_heapsort1423496814
	sim-bpred -bpred bimod -bpred:bimod 1024 cache4_heapsort1423496814
	sim-bpred -bpred bimod -bpred:bimod 2048 cache4_heapsort1423496814
	sim-bpred -bpred 2lev -bpred:2lev 1 512 10 1 cache4_heapsort1423496814
	sim-bpred -bpred 2lev -bpred:2lev 1 1024 10 1 cache4_heapsort1423496814
	sim-bpred -bpred 2lev -bpred:2lev 1 2048 10 1 cache4_heapsort1423496814
	sim-bpred -bpred 2lev -bpred:2lev 1 4096 10 1 cache4_heapsort1423496814
	sslittle-na-sstrix-gcc -Wall -O3 -funroll-loops -finline-functions  -DRANDOM_SIZE=16384 -DOFFSET=7 -DSORT=cache4_heapsort sorts/cache4_heapsort1068765793.c simpleMain.c -o cache4_heapsort1423496814
	sim-cache -cache:dl1 dl1:512:16:1:l -cache:dl2 dl2:262144:16:1:l -cache:il1 il1:512:16:1:l -cache:il2 dl2 cache4_heapsort1423496814
	sim-cache -cache:dl1 dl1:512:16:1:l -cache:dl2 dl2:131072:16:1:l -cache:il1 il1:512:16:1:l -cache:il2 dl2 cache4_heapsort1423496814
	sim-cache -cache:dl1 dl1:1:16:512:l -cache:dl2 dl2:1:16:262144:l -cache:il1 il1:1:16:512:l -cache:il2 dl2 cache4_heapsort1423496814
	sim-cache -cache:dl1 dl1:1:16:512:l -cache:dl2 dl2:1:16:131072:l -cache:il1 il1:1:16:512:l -cache:il2 dl2 cache4_heapsort1423496814
	sim-bpred -bpred bimod -bpred:bimod 512 cache4_heapsort1423496814
	sim-bpred -bpred bimod -bpred:bimod 1024 cache4_heapsort1423496814
	sim-bpred -bpred bimod -bpred:bimod 2048 cache4_heapsort1423496814
	sim-bpred -bpred 2lev -bpred:2lev 1 512 10 1 cache4_heapsort1423496814
	sim-bpred -bpred 2lev -bpred:2lev 1 1024 10 1 cache4_heapsort1423496814
	sim-bpred -bpred 2lev -bpred:2lev 1 2048 10 1 cache4_heapsort1423496814
	sim-bpred -bpred 2lev -bpred:2lev 1 4096 10 1 cache4_heapsort1423496814
	sslittle-na-sstrix-gcc -Wall -O3 -funroll-loops -finline-functions  -DRANDOM_SIZE=32768 -DOFFSET=7 -DSORT=cache4_heapsort sorts/cache4_heapsort1068765793.c simpleMain.c -o cache4_heapsort1423496814
	sim-cache -cache:dl1 dl1:512:16:1:l -cache:dl2 dl2:262144:16:1:l -cache:il1 il1:512:16:1:l -cache:il2 dl2 cache4_heapsort1423496814
	sim-cache -cache:dl1 dl1:512:16:1:l -cache:dl2 dl2:131072:16:1:l -cache:il1 il1:512:16:1:l -cache:il2 dl2 cache4_heapsort1423496814
	sim-cache -cache:dl1 dl1:1:16:512:l -cache:dl2 dl2:1:16:262144:l -cache:il1 il1:1:16:512:l -cache:il2 dl2 cache4_heapsort1423496814
	sim-cache -cache:dl1 dl1:1:16:512:l -cache:dl2 dl2:1:16:131072:l -cache:il1 il1:1:16:512:l -cache:il2 dl2 cache4_heapsort1423496814
	sim-bpred -bpred bimod -bpred:bimod 512 cache4_heapsort1423496814
	sim-bpred -bpred bimod -bpred:bimod 1024 cache4_heapsort1423496814
	sim-bpred -bpred bimod -bpred:bimod 2048 cache4_heapsort1423496814
	sim-bpred -bpred 2lev -bpred:2lev 1 512 10 1 cache4_heapsort1423496814
	sim-bpred -bpred 2lev -bpred:2lev 1 1024 10 1 cache4_heapsort1423496814
	sim-bpred -bpred 2lev -bpred:2lev 1 2048 10 1 cache4_heapsort1423496814
	sim-bpred -bpred 2lev -bpred:2lev 1 4096 10 1 cache4_heapsort1423496814
	sslittle-na-sstrix-gcc -Wall -O3 -funroll-loops -finline-functions  -DRANDOM_SIZE=65536 -DOFFSET=7 -DSORT=cache4_heapsort sorts/cache4_heapsort1068765793.c simpleMain.c -o cache4_heapsort1423496814
	sim-cache -cache:dl1 dl1:512:16:1:l -cache:dl2 dl2:262144:16:1:l -cache:il1 il1:512:16:1:l -cache:il2 dl2 cache4_heapsort1423496814
	sim-cache -cache:dl1 dl1:512:16:1:l -cache:dl2 dl2:131072:16:1:l -cache:il1 il1:512:16:1:l -cache:il2 dl2 cache4_heapsort1423496814
	sim-cache -cache:dl1 dl1:1:16:512:l -cache:dl2 dl2:1:16:262144:l -cache:il1 il1:1:16:512:l -cache:il2 dl2 cache4_heapsort1423496814
	sim-cache -cache:dl1 dl1:1:16:512:l -cache:dl2 dl2:1:16:131072:l -cache:il1 il1:1:16:512:l -cache:il2 dl2 cache4_heapsort1423496814
	sim-bpred -bpred bimod -bpred:bimod 512 cache4_heapsort1423496814
	sim-bpred -bpred bimod -bpred:bimod 1024 cache4_heapsort1423496814
	sim-bpred -bpred bimod -bpred:bimod 2048 cache4_heapsort1423496814
	sim-bpred -bpred 2lev -bpred:2lev 1 512 10 1 cache4_heapsort1423496814
	sim-bpred -bpred 2lev -bpred:2lev 1 1024 10 1 cache4_heapsort1423496814
	sim-bpred -bpred 2lev -bpred:2lev 1 2048 10 1 cache4_heapsort1423496814
	sim-bpred -bpred 2lev -bpred:2lev 1 4096 10 1 cache4_heapsort1423496814
	sslittle-na-sstrix-gcc -Wall -O3 -funroll-loops -finline-functions  -DRANDOM_SIZE=131072 -DOFFSET=7 -DSORT=cache4_heapsort sorts/cache4_heapsort1068765793.c simpleMain.c -o cache4_heapsort1423496814
	sim-cache -cache:dl1 dl1:512:16:1:l -cache:dl2 dl2:262144:16:1:l -cache:il1 il1:512:16:1:l -cache:il2 dl2 cache4_heapsort1423496814
	sim-cache -cache:dl1 dl1:512:16:1:l -cache:dl2 dl2:131072:16:1:l -cache:il1 il1:512:16:1:l -cache:il2 dl2 cache4_heapsort1423496814
	sim-cache -cache:dl1 dl1:1:16:512:l -cache:dl2 dl2:1:16:262144:l -cache:il1 il1:1:16:512:l -cache:il2 dl2 cache4_heapsort1423496814
	sim-cache -cache:dl1 dl1:1:16:512:l -cache:dl2 dl2:1:16:131072:l -cache:il1 il1:1:16:512:l -cache:il2 dl2 cache4_heapsort1423496814
	sim-bpred -bpred bimod -bpred:bimod 512 cache4_heapsort1423496814
	sim-bpred -bpred bimod -bpred:bimod 1024 cache4_heapsort1423496814
	sim-bpred -bpred bimod -bpred:bimod 2048 cache4_heapsort1423496814
	sim-bpred -bpred 2lev -bpred:2lev 1 512 10 1 cache4_heapsort1423496814
	sim-bpred -bpred 2lev -bpred:2lev 1 1024 10 1 cache4_heapsort1423496814
	sim-bpred -bpred 2lev -bpred:2lev 1 2048 10 1 cache4_heapsort1423496814
	sim-bpred -bpred 2lev -bpred:2lev 1 4096 10 1 cache4_heapsort1423496814
	sslittle-na-sstrix-gcc -Wall -O3 -funroll-loops -finline-functions  -DRANDOM_SIZE=262144 -DOFFSET=7 -DSORT=cache4_heapsort sorts/cache4_heapsort1068765793.c simpleMain.c -o cache4_heapsort1423496814
	sim-cache -cache:dl1 dl1:512:16:1:l -cache:dl2 dl2:262144:16:1:l -cache:il1 il1:512:16:1:l -cache:il2 dl2 cache4_heapsort1423496814
	sim-cache -cache:dl1 dl1:512:16:1:l -cache:dl2 dl2:131072:16:1:l -cache:il1 il1:512:16:1:l -cache:il2 dl2 cache4_heapsort1423496814
	sim-cache -cache:dl1 dl1:1:16:512:l -cache:dl2 dl2:1:16:262144:l -cache:il1 il1:1:16:512:l -cache:il2 dl2 cache4_heapsort1423496814
	sim-cache -cache:dl1 dl1:1:16:512:l -cache:dl2 dl2:1:16:131072:l -cache:il1 il1:1:16:512:l -cache:il2 dl2 cache4_heapsort1423496814
	sim-bpred -bpred bimod -bpred:bimod 512 cache4_heapsort1423496814
	sim-bpred -bpred bimod -bpred:bimod 1024 cache4_heapsort1423496814
	sim-bpred -bpred bimod -bpred:bimod 2048 cache4_heapsort1423496814
	sim-bpred -bpred 2lev -bpred:2lev 1 512 10 1 cache4_heapsort1423496814
	sim-bpred -bpred 2lev -bpred:2lev 1 1024 10 1 cache4_heapsort1423496814
	sim-bpred -bpred 2lev -bpred:2lev 1 2048 10 1 cache4_heapsort1423496814
	sim-bpred -bpred 2lev -bpred:2lev 1 4096 10 1 cache4_heapsort1423496814
	sslittle-na-sstrix-gcc -Wall -O3 -funroll-loops -finline-functions  -DRANDOM_SIZE=524288 -DOFFSET=7 -DSORT=cache4_heapsort sorts/cache4_heapsort1068765793.c simpleMain.c -o cache4_heapsort1423496814
	sim-cache -cache:dl1 dl1:512:16:1:l -cache:dl2 dl2:262144:16:1:l -cache:il1 il1:512:16:1:l -cache:il2 dl2 cache4_heapsort1423496814
	sim-cache -cache:dl1 dl1:512:16:1:l -cache:dl2 dl2:131072:16:1:l -cache:il1 il1:512:16:1:l -cache:il2 dl2 cache4_heapsort1423496814
	sim-cache -cache:dl1 dl1:1:16:512:l -cache:dl2 dl2:1:16:262144:l -cache:il1 il1:1:16:512:l -cache:il2 dl2 cache4_heapsort1423496814
	sim-cache -cache:dl1 dl1:1:16:512:l -cache:dl2 dl2:1:16:131072:l -cache:il1 il1:1:16:512:l -cache:il2 dl2 cache4_heapsort1423496814
	sim-bpred -bpred bimod -bpred:bimod 512 cache4_heapsort1423496814
	sim-bpred -bpred bimod -bpred:bimod 1024 cache4_heapsort1423496814
	sim-bpred -bpred bimod -bpred:bimod 2048 cache4_heapsort1423496814
	sim-bpred -bpred 2lev -bpred:2lev 1 512 10 1 cache4_heapsort1423496814
	sim-bpred -bpred 2lev -bpred:2lev 1 1024 10 1 cache4_heapsort1423496814
	sim-bpred -bpred 2lev -bpred:2lev 1 2048 10 1 cache4_heapsort1423496814
	sim-bpred -bpred 2lev -bpred:2lev 1 4096 10 1 cache4_heapsort1423496814
	sslittle-na-sstrix-gcc -Wall -O3 -funroll-loops -finline-functions  -DRANDOM_SIZE=1048576 -DOFFSET=7 -DSORT=cache4_heapsort sorts/cache4_heapsort1068765793.c simpleMain.c -o cache4_heapsort1423496814
	sim-cache -cache:dl1 dl1:512:16:1:l -cache:dl2 dl2:262144:16:1:l -cache:il1 il1:512:16:1:l -cache:il2 dl2 cache4_heapsort1423496814
	sim-cache -cache:dl1 dl1:512:16:1:l -cache:dl2 dl2:131072:16:1:l -cache:il1 il1:512:16:1:l -cache:il2 dl2 cache4_heapsort1423496814
	sim-cache -cache:dl1 dl1:1:16:512:l -cache:dl2 dl2:1:16:262144:l -cache:il1 il1:1:16:512:l -cache:il2 dl2 cache4_heapsort1423496814
	sim-cache -cache:dl1 dl1:1:16:512:l -cache:dl2 dl2:1:16:131072:l -cache:il1 il1:1:16:512:l -cache:il2 dl2 cache4_heapsort1423496814
	sim-bpred -bpred bimod -bpred:bimod 512 cache4_heapsort1423496814
	sim-bpred -bpred bimod -bpred:bimod 1024 cache4_heapsort1423496814
	sim-bpred -bpred bimod -bpred:bimod 2048 cache4_heapsort1423496814
	sim-bpred -bpred 2lev -bpred:2lev 1 512 10 1 cache4_heapsort1423496814
	sim-bpred -bpred 2lev -bpred:2lev 1 1024 10 1 cache4_heapsort1423496814
	sim-bpred -bpred 2lev -bpred:2lev 1 2048 10 1 cache4_heapsort1423496814
	sim-bpred -bpred 2lev -bpred:2lev 1 4096 10 1 cache4_heapsort1423496814
	sslittle-na-sstrix-gcc -Wall -O3 -funroll-loops -finline-functions  -DRANDOM_SIZE=2097152 -DOFFSET=7 -DSORT=cache4_heapsort sorts/cache4_heapsort1068765793.c simpleMain.c -o cache4_heapsort1423496814
	sim-cache -cache:dl1 dl1:512:16:1:l -cache:dl2 dl2:262144:16:1:l -cache:il1 il1:512:16:1:l -cache:il2 dl2 cache4_heapsort1423496814
	sim-cache -cache:dl1 dl1:512:16:1:l -cache:dl2 dl2:131072:16:1:l -cache:il1 il1:512:16:1:l -cache:il2 dl2 cache4_heapsort1423496814
	sim-cache -cache:dl1 dl1:1:16:512:l -cache:dl2 dl2:1:16:262144:l -cache:il1 il1:1:16:512:l -cache:il2 dl2 cache4_heapsort1423496814
	sim-cache -cache:dl1 dl1:1:16:512:l -cache:dl2 dl2:1:16:131072:l -cache:il1 il1:1:16:512:l -cache:il2 dl2 cache4_heapsort1423496814
	sim-bpred -bpred bimod -bpred:bimod 512 cache4_heapsort1423496814
	sim-bpred -bpred bimod -bpred:bimod 1024 cache4_heapsort1423496814
	sim-bpred -bpred bimod -bpred:bimod 2048 cache4_heapsort1423496814
	sim-bpred -bpred 2lev -bpred:2lev 1 512 10 1 cache4_heapsort1423496814
	sim-bpred -bpred 2lev -bpred:2lev 1 1024 10 1 cache4_heapsort1423496814
	sim-bpred -bpred 2lev -bpred:2lev 1 2048 10 1 cache4_heapsort1423496814
	sim-bpred -bpred 2lev -bpred:2lev 1 4096 10 1 cache4_heapsort1423496814
	sslittle-na-sstrix-gcc -Wall -O3 -funroll-loops -finline-functions  -DRANDOM_SIZE=4194304 -DOFFSET=7 -DSORT=cache4_heapsort sorts/cache4_heapsort1068765793.c simpleMain.c -o cache4_heapsort1423496814
	sim-cache -cache:dl1 dl1:512:16:1:l -cache:dl2 dl2:262144:16:1:l -cache:il1 il1:512:16:1:l -cache:il2 dl2 cache4_heapsort1423496814
	sim-cache -cache:dl1 dl1:512:16:1:l -cache:dl2 dl2:131072:16:1:l -cache:il1 il1:512:16:1:l -cache:il2 dl2 cache4_heapsort1423496814
	sim-cache -cache:dl1 dl1:1:16:512:l -cache:dl2 dl2:1:16:262144:l -cache:il1 il1:1:16:512:l -cache:il2 dl2 cache4_heapsort1423496814
	sim-cache -cache:dl1 dl1:1:16:512:l -cache:dl2 dl2:1:16:131072:l -cache:il1 il1:1:16:512:l -cache:il2 dl2 cache4_heapsort1423496814
	sim-bpred -bpred bimod -bpred:bimod 512 cache4_heapsort1423496814
	sim-bpred -bpred bimod -bpred:bimod 1024 cache4_heapsort1423496814
	sim-bpred -bpred bimod -bpred:bimod 2048 cache4_heapsort1423496814
	sim-bpred -bpred 2lev -bpred:2lev 1 512 10 1 cache4_heapsort1423496814
	sim-bpred -bpred 2lev -bpred:2lev 1 1024 10 1 cache4_heapsort1423496814
	sim-bpred -bpred 2lev -bpred:2lev 1 2048 10 1 cache4_heapsort1423496814
	sim-bpred -bpred 2lev -bpred:2lev 1 4096 10 1 cache4_heapsort1423496814
