Tue Jun 28 06:15:39 2005
Run as: "./do_simple -c random.org2 -o 2 cache_radixsort"
-------------------------------------------------------------------------------------------------
sim-cache                                     4096 |         4096 |         4096 |         4096 |         8192 |         8192 |         8192 |         8192 |        16384 |        16384 |        16384 |        16384 |        32768 |        32768 |        32768 |        32768 |        65536 |        65536 |        65536 |        65536 |       131072 |       131072 |       131072 |       131072 |       262144 |       262144 |       262144 |       262144 |       524288 |       524288 |       524288 |       524288 |      1048576 |      1048576 |      1048576 |      1048576 |      2097152 |      2097152 |      2097152 |      2097152 |      4194304 |      4194304 |      4194304 |      4194304 |
-cache:dl1 dl1:256:32:1:l -cache:dl2 dl2:131072:32:1:l -cache:il1 il1:256:32:1:l -cache:il2 dl2
-cache:dl1 dl1:256:32:1:l -cache:dl2 dl2:65536:32:1:l -cache:il1 il1:256:32:1:l -cache:il2 dl2
-cache:dl1 dl1:1:32:256:l -cache:dl2 dl2:1:32:131072:l -cache:il1 il1:1:32:256:l -cache:il2 dl2
-cache:dl1 dl1:1:32:256:l -cache:dl2 dl2:1:32:65536:l -cache:il1 il1:1:32:256:l -cache:il2 dl2
-------------------------------------------------------------------------------------------------
sim_num_insn                                378645 |       378645 |       378645 |       378645 |       744355 |       744355 |       744355 |       744355 |      1475493 |      1475493 |      1475493 |      1475493 |      2937766 |      2937766 |      2937766 |      2937766 |      5862310 |      5862310 |      5862310 |      5862310 |     11711399 |     11711399 |     11711399 |     11711399 |     23409575 |     23409575 |     23409575 |     23409575 |     46805927 |     46805927 |     46805927 |     46805927 |     93611107 |     93611107 |     93611107 |     93611107 |    187205739 |    187205739 |    187205739 |    187205739 |    374394995 |    374394995 |    374394995 |    374394995 |
sim_num_refs                                138910 |       138910 |       138910 |       138910 |       270026 |       270026 |       270026 |       270026 |       532170 |       532170 |       532170 |       532170 |      1056458 |      1056458 |      1056458 |      1056458 |      2105034 |      2105034 |      2105034 |      2105034 |      4202186 |      4202186 |      4202186 |      4202186 |      8396490 |      8396490 |      8396490 |      8396490 |     16785098 |     16785098 |     16785098 |     16785098 |     33571576 |     33571576 |     33571576 |     33571576 |     67132152 |     67132152 |     67132152 |     67132152 |    134253304 |    134253304 |    134253304 |    134253304 |
sim_elapsed_time                                 1 |            1 |            9 |            5 |            1 |            1 |           15 |            7 |            1 |            1 |           24 |           12 |            1 |            1 |           44 |           22 |            2 |            2 |           81 |           38 |            4 |            4 |          147 |           66 |            7 |            7 |          251 |           89 |           14 |           15 |          338 |           95 |           30 |           28 |          352 |          112 |           57 |           57 |          384 |          144 |          114 |          114 |          450 |          208 |
sim_inst_rate                          378645.0000 |  378645.0000 |   42071.6667 |   75729.0000 |  744355.0000 |  744355.0000 |   49623.6667 |  106336.4286 | 1475493.0000 | 1475493.0000 |   61478.8750 |  122957.7500 | 2937766.0000 | 2937766.0000 |   66767.4091 |  133534.8182 | 2931155.0000 | 2931155.0000 |   72374.1975 |  154271.3158 | 2927849.7500 | 2927849.7500 |   79669.3810 |  177445.4394 | 3344225.0000 | 3344225.0000 |   93265.2390 |  263028.9326 | 3343280.5000 | 3120395.1333 |  138479.0740 |  492693.9684 | 3120370.2333 | 3343253.8214 |  265940.6449 |  835813.4554 | 3284311.2105 | 3284311.2105 |  487514.9453 | 1300039.8542 | 3284166.6228 | 3284166.6228 |  831988.8778 | 1799975.9375 |
il1.accesses                                378645 |       378645 |       378645 |       378645 |       744355 |       744355 |       744355 |       744355 |      1475493 |      1475493 |      1475493 |      1475493 |      2937766 |      2937766 |      2937766 |      2937766 |      5862310 |      5862310 |      5862310 |      5862310 |     11711399 |     11711399 |     11711399 |     11711399 |     23409575 |     23409575 |     23409575 |     23409575 |     46805927 |     46805927 |     46805927 |     46805927 |     93611107 |     93611107 |     93611107 |     93611107 |    187205739 |    187205739 |    187205739 |    187205739 |    374394995 |    374394995 |    374394995 |    374394995 |
il1.hits                                    378187 |       378187 |       378243 |       378243 |       743876 |       743876 |       743933 |       743933 |      1475030 |      1475030 |      1475107 |      1475107 |      2937286 |      2937286 |      2937342 |      2937342 |      5861830 |      5861830 |      5861886 |      5861886 |     11710919 |     11710919 |     11710975 |     11710975 |     23409095 |     23409095 |     23409151 |     23409151 |     46805447 |     46805447 |     46805503 |     46805503 |     93610581 |     93610581 |     93610648 |     93610648 |    187205213 |    187205213 |    187205280 |    187205280 |    374394469 |    374394469 |    374394536 |    374394536 |
il1.misses                                     458 |          458 |          402 |          402 |          479 |          479 |          422 |          422 |          463 |          463 |          386 |          386 |          480 |          480 |          424 |          424 |          480 |          480 |          424 |          424 |          480 |          480 |          424 |          424 |          480 |          480 |          424 |          424 |          480 |          480 |          424 |          424 |          526 |          526 |          459 |          459 |          526 |          526 |          459 |          459 |          526 |          526 |          459 |          459 |
il1.replacements                               254 |          254 |          146 |          146 |          271 |          271 |          166 |          166 |          258 |          258 |          130 |          130 |          273 |          273 |          168 |          168 |          273 |          273 |          168 |          168 |          273 |          273 |          168 |          168 |          273 |          273 |          168 |          168 |          273 |          273 |          168 |          168 |          309 |          309 |          203 |          203 |          309 |          309 |          203 |          203 |          309 |          309 |          203 |          203 |
il1.writebacks                                   0 |            0 |            0 |            0 |            0 |            0 |            0 |            0 |            0 |            0 |            0 |            0 |            0 |            0 |            0 |            0 |            0 |            0 |            0 |            0 |            0 |            0 |            0 |            0 |            0 |            0 |            0 |            0 |            0 |            0 |            0 |            0 |            0 |            0 |            0 |            0 |            0 |            0 |            0 |            0 |            0 |            0 |            0 |            0 |
il1.invalidations                                0 |            0 |            0 |            0 |            0 |            0 |            0 |            0 |            0 |            0 |            0 |            0 |            0 |            0 |            0 |            0 |            0 |            0 |            0 |            0 |            0 |            0 |            0 |            0 |            0 |            0 |            0 |            0 |            0 |            0 |            0 |            0 |            0 |            0 |            0 |            0 |            0 |            0 |            0 |            0 |            0 |            0 |            0 |            0 |
il1.miss_rate                               0.0012 |       0.0012 |       0.0011 |       0.0011 |       0.0006 |       0.0006 |       0.0006 |       0.0006 |       0.0003 |       0.0003 |       0.0003 |       0.0003 |       0.0002 |       0.0002 |       0.0001 |       0.0001 |       0.0001 |       0.0001 |       0.0001 |       0.0001 |       0.0000 |       0.0000 |       0.0000 |       0.0000 |       0.0000 |       0.0000 |       0.0000 |       0.0000 |       0.0000 |       0.0000 |       0.0000 |       0.0000 |       0.0000 |       0.0000 |       0.0000 |       0.0000 |       0.0000 |       0.0000 |       0.0000 |       0.0000 |       0.0000 |       0.0000 |       0.0000 |       0.0000 |
il1.repl_rate                               0.0007 |       0.0007 |       0.0004 |       0.0004 |       0.0004 |       0.0004 |       0.0002 |       0.0002 |       0.0002 |       0.0002 |       0.0001 |       0.0001 |       0.0001 |       0.0001 |       0.0001 |       0.0001 |       0.0000 |       0.0000 |       0.0000 |       0.0000 |       0.0000 |       0.0000 |       0.0000 |       0.0000 |       0.0000 |       0.0000 |       0.0000 |       0.0000 |       0.0000 |       0.0000 |       0.0000 |       0.0000 |       0.0000 |       0.0000 |       0.0000 |       0.0000 |       0.0000 |       0.0000 |       0.0000 |       0.0000 |       0.0000 |       0.0000 |       0.0000 |       0.0000 |
il1.wb_rate                                 0.0000 |       0.0000 |       0.0000 |       0.0000 |       0.0000 |       0.0000 |       0.0000 |       0.0000 |       0.0000 |       0.0000 |       0.0000 |       0.0000 |       0.0000 |       0.0000 |       0.0000 |       0.0000 |       0.0000 |       0.0000 |       0.0000 |       0.0000 |       0.0000 |       0.0000 |       0.0000 |       0.0000 |       0.0000 |       0.0000 |       0.0000 |       0.0000 |       0.0000 |       0.0000 |       0.0000 |       0.0000 |       0.0000 |       0.0000 |       0.0000 |       0.0000 |       0.0000 |       0.0000 |       0.0000 |       0.0000 |       0.0000 |       0.0000 |       0.0000 |       0.0000 |
il1.inv_rate                                0.0000 |       0.0000 |       0.0000 |       0.0000 |       0.0000 |       0.0000 |       0.0000 |       0.0000 |       0.0000 |       0.0000 |       0.0000 |       0.0000 |       0.0000 |       0.0000 |       0.0000 |       0.0000 |       0.0000 |       0.0000 |       0.0000 |       0.0000 |       0.0000 |       0.0000 |       0.0000 |       0.0000 |       0.0000 |       0.0000 |       0.0000 |       0.0000 |       0.0000 |       0.0000 |       0.0000 |       0.0000 |       0.0000 |       0.0000 |       0.0000 |       0.0000 |       0.0000 |       0.0000 |       0.0000 |       0.0000 |       0.0000 |       0.0000 |       0.0000 |       0.0000 |
dl1.accesses                                155376 |       155376 |       155376 |       155376 |       302876 |       302876 |       302876 |       302876 |       597788 |       597788 |       597788 |       597788 |      1187612 |      1187612 |      1187612 |      1187612 |      2367260 |      2367260 |      2367260 |      2367260 |      4726556 |      4726556 |      4726556 |      4726556 |      9445148 |      9445148 |      9445148 |      9445148 |     18882332 |     18882332 |     18882332 |     18882332 |     37765962 |     37765962 |     37765962 |     37765962 |     75520842 |     75520842 |     75520842 |     75520842 |    151030602 |    151030602 |    151030602 |    151030602 |
dl1.hits                                    138850 |       138850 |       143938 |       143938 |       269730 |       269730 |       280787 |       280787 |       531245 |       531245 |       554209 |       554209 |      1053725 |      1053725 |      1100920 |      1100920 |      2094041 |      2094041 |      2195131 |      2195131 |      4167039 |      4167039 |      4384055 |      4384055 |      8274042 |      8274042 |      8759797 |      8759797 |     16413260 |     16413260 |     17511653 |     17511653 |     33145899 |     33145899 |     35022721 |     35022721 |     66715446 |     66715446 |     70038239 |     70038239 |    133695644 |    133695644 |    140061724 |    140061724 |
dl1.misses                                   16526 |        16526 |        11438 |        11438 |        33146 |        33146 |        22089 |        22089 |        66543 |        66543 |        43579 |        43579 |       133887 |       133887 |        86692 |        86692 |       273219 |       273219 |       172129 |       172129 |       559517 |       559517 |       342501 |       342501 |      1171106 |      1171106 |       685351 |       685351 |      2469072 |      2469072 |      1370679 |      1370679 |      4620063 |      4620063 |      2743241 |      2743241 |      8805396 |      8805396 |      5482603 |      5482603 |     17334958 |     17334958 |     10968878 |     10968878 |
dl1.replacements                             16270 |        16270 |        11182 |        11182 |        32890 |        32890 |        21833 |        21833 |        66287 |        66287 |        43323 |        43323 |       133631 |       133631 |        86436 |        86436 |       272963 |       272963 |       171873 |       171873 |       559261 |       559261 |       342245 |       342245 |      1170850 |      1170850 |       685095 |       685095 |      2468816 |      2468816 |      1370423 |      1370423 |      4619807 |      4619807 |      2742985 |      2742985 |      8805140 |      8805140 |      5482347 |      5482347 |     17334702 |     17334702 |     10968622 |     10968622 |
dl1.writebacks                               13621 |        13621 |         8669 |         8669 |        27472 |        27472 |        16742 |        16742 |        55438 |        55438 |        33103 |        33103 |       111734 |       111734 |        65975 |        65975 |       229086 |       229086 |       130929 |       130929 |       471542 |       471542 |       260340 |       260340 |       995457 |       995457 |       521271 |       521271 |      2117783 |      2117783 |      1042760 |      1042760 |      3917251 |      3917251 |      2087254 |      2087254 |      7400420 |      7400420 |      4171257 |      4171257 |     14526071 |     14526071 |      8346811 |      8346811 |
dl1.invalidations                                0 |            0 |            0 |            0 |            0 |            0 |            0 |            0 |            0 |            0 |            0 |            0 |            0 |            0 |            0 |            0 |            0 |            0 |            0 |            0 |            0 |            0 |            0 |            0 |            0 |            0 |            0 |            0 |            0 |            0 |            0 |            0 |            0 |            0 |            0 |            0 |            0 |            0 |            0 |            0 |            0 |            0 |            0 |            0 |
dl1.miss_rate                               0.1064 |       0.1064 |       0.0736 |       0.0736 |       0.1094 |       0.1094 |       0.0729 |       0.0729 |       0.1113 |       0.1113 |       0.0729 |       0.0729 |       0.1127 |       0.1127 |       0.0730 |       0.0730 |       0.1154 |       0.1154 |       0.0727 |       0.0727 |       0.1184 |       0.1184 |       0.0725 |       0.0725 |       0.1240 |       0.1240 |       0.0726 |       0.0726 |       0.1308 |       0.1308 |       0.0726 |       0.0726 |       0.1223 |       0.1223 |       0.0726 |       0.0726 |       0.1166 |       0.1166 |       0.0726 |       0.0726 |       0.1148 |       0.1148 |       0.0726 |       0.0726 |
dl1.repl_rate                               0.1047 |       0.1047 |       0.0720 |       0.0720 |       0.1086 |       0.1086 |       0.0721 |       0.0721 |       0.1109 |       0.1109 |       0.0725 |       0.0725 |       0.1125 |       0.1125 |       0.0728 |       0.0728 |       0.1153 |       0.1153 |       0.0726 |       0.0726 |       0.1183 |       0.1183 |       0.0724 |       0.0724 |       0.1240 |       0.1240 |       0.0725 |       0.0725 |       0.1307 |       0.1307 |       0.0726 |       0.0726 |       0.1223 |       0.1223 |       0.0726 |       0.0726 |       0.1166 |       0.1166 |       0.0726 |       0.0726 |       0.1148 |       0.1148 |       0.0726 |       0.0726 |
dl1.wb_rate                                 0.0877 |       0.0877 |       0.0558 |       0.0558 |       0.0907 |       0.0907 |       0.0553 |       0.0553 |       0.0927 |       0.0927 |       0.0554 |       0.0554 |       0.0941 |       0.0941 |       0.0556 |       0.0556 |       0.0968 |       0.0968 |       0.0553 |       0.0553 |       0.0998 |       0.0998 |       0.0551 |       0.0551 |       0.1054 |       0.1054 |       0.0552 |       0.0552 |       0.1122 |       0.1122 |       0.0552 |       0.0552 |       0.1037 |       0.1037 |       0.0553 |       0.0553 |       0.0980 |       0.0980 |       0.0552 |       0.0552 |       0.0962 |       0.0962 |       0.0553 |       0.0553 |
dl1.inv_rate                                0.0000 |       0.0000 |       0.0000 |       0.0000 |       0.0000 |       0.0000 |       0.0000 |       0.0000 |       0.0000 |       0.0000 |       0.0000 |       0.0000 |       0.0000 |       0.0000 |       0.0000 |       0.0000 |       0.0000 |       0.0000 |       0.0000 |       0.0000 |       0.0000 |       0.0000 |       0.0000 |       0.0000 |       0.0000 |       0.0000 |       0.0000 |       0.0000 |       0.0000 |       0.0000 |       0.0000 |       0.0000 |       0.0000 |       0.0000 |       0.0000 |       0.0000 |       0.0000 |       0.0000 |       0.0000 |       0.0000 |       0.0000 |       0.0000 |       0.0000 |       0.0000 |
dl2.accesses                                 30605 |        30605 |        20509 |        20509 |        61097 |        61097 |        39253 |        39253 |       122444 |       122444 |        77068 |        77068 |       246101 |       246101 |       153091 |       153091 |       502785 |       502785 |       303482 |       303482 |      1031539 |      1031539 |       603265 |       603265 |      2167043 |      2167043 |      1207046 |      1207046 |      4587335 |      4587335 |      2413863 |      2413863 |      8537840 |      8537840 |      4830954 |      4830954 |     16206342 |     16206342 |      9654319 |      9654319 |     31861555 |     31861555 |     19316148 |     19316148 |
dl2.hits                                     28691 |        28691 |        18611 |        18611 |        58156 |        58156 |        36341 |        36341 |       117460 |       117460 |        72112 |        72112 |       237010 |       237010 |       144033 |       144033 |       485500 |       485500 |       286232 |       286232 |       997870 |       997870 |       569631 |       569631 |      2100606 |      2088614 |      1140644 |      1138276 |      4443284 |      4127640 |      2278991 |      1816421 |      7611345 |      7265294 |      3637384 |      3544033 |     13679411 |     13564908 |      7082522 |      7041740 |     26565499 |     26434733 |     14093134 |     14073966 |
dl2.misses                                    1914 |         1914 |         1898 |         1898 |         2941 |         2941 |         2912 |         2912 |         4984 |         4984 |         4956 |         4956 |         9091 |         9091 |         9058 |         9058 |        17285 |        17285 |        17250 |        17250 |        33669 |        33669 |        33634 |        33634 |        66437 |        78429 |        66402 |        68770 |       144051 |       459695 |       134872 |       597442 |       926495 |      1272546 |      1193570 |      1286921 |      2526931 |      2641434 |      2571797 |      2612579 |      5296056 |      5426822 |      5223014 |      5242182 |
dl2.replacements                               236 |          236 |            0 |            0 |          250 |          250 |            0 |            0 |          265 |          265 |            0 |            0 |          275 |          275 |            0 |            0 |          277 |          277 |            0 |            0 |          277 |          277 |            0 |            0 |          277 |        14005 |            0 |         3234 |        14091 |       394159 |         3800 |       531906 |       795423 |      1207010 |      1062498 |      1221385 |      2395859 |      2575898 |      2440725 |      2547043 |      5164984 |      5361286 |      5091942 |      5176646 |
dl2.writebacks                                 158 |          158 |            0 |            0 |          156 |          156 |            0 |            0 |          170 |          170 |            0 |            0 |          178 |          178 |            0 |            0 |          178 |          178 |            0 |            0 |          178 |          178 |            0 |            0 |          178 |        10567 |            0 |         3008 |        10594 |       300447 |         3574 |       296271 |       596059 |       648949 |       591902 |       624727 |      1282124 |      1343291 |      1248070 |      1280921 |      2675680 |      2795745 |      2560358 |      2593300 |
dl2.invalidations                                0 |            0 |            0 |            0 |            0 |            0 |            0 |            0 |            0 |            0 |            0 |            0 |            0 |            0 |            0 |            0 |            0 |            0 |            0 |            0 |            0 |            0 |            0 |            0 |            0 |            0 |            0 |            0 |            0 |            0 |            0 |            0 |            0 |            0 |            0 |            0 |            0 |            0 |            0 |            0 |            0 |            0 |            0 |            0 |
dl2.miss_rate                               0.0625 |       0.0625 |       0.0925 |       0.0925 |       0.0481 |       0.0481 |       0.0742 |       0.0742 |       0.0407 |       0.0407 |       0.0643 |       0.0643 |       0.0369 |       0.0369 |       0.0592 |       0.0592 |       0.0344 |       0.0344 |       0.0568 |       0.0568 |       0.0326 |       0.0326 |       0.0558 |       0.0558 |       0.0307 |       0.0362 |       0.0550 |       0.0570 |       0.0314 |       0.1002 |       0.0559 |       0.2475 |       0.1085 |       0.1490 |       0.2471 |       0.2664 |       0.1559 |       0.1630 |       0.2664 |       0.2706 |       0.1662 |       0.1703 |       0.2704 |       0.2714 |
dl2.repl_rate                               0.0077 |       0.0077 |       0.0000 |       0.0000 |       0.0041 |       0.0041 |       0.0000 |       0.0000 |       0.0022 |       0.0022 |       0.0000 |       0.0000 |       0.0011 |       0.0011 |       0.0000 |       0.0000 |       0.0006 |       0.0006 |       0.0000 |       0.0000 |       0.0003 |       0.0003 |       0.0000 |       0.0000 |       0.0001 |       0.0065 |       0.0000 |       0.0027 |       0.0031 |       0.0859 |       0.0016 |       0.2204 |       0.0932 |       0.1414 |       0.2199 |       0.2528 |       0.1478 |       0.1589 |       0.2528 |       0.2638 |       0.1621 |       0.1683 |       0.2636 |       0.2680 |
dl2.wb_rate                                 0.0052 |       0.0052 |       0.0000 |       0.0000 |       0.0026 |       0.0026 |       0.0000 |       0.0000 |       0.0014 |       0.0014 |       0.0000 |       0.0000 |       0.0007 |       0.0007 |       0.0000 |       0.0000 |       0.0004 |       0.0004 |       0.0000 |       0.0000 |       0.0002 |       0.0002 |       0.0000 |       0.0000 |       0.0001 |       0.0049 |       0.0000 |       0.0025 |       0.0023 |       0.0655 |       0.0015 |       0.1227 |       0.0698 |       0.0760 |       0.1225 |       0.1293 |       0.0791 |       0.0829 |       0.1293 |       0.1327 |       0.0840 |       0.0877 |       0.1326 |       0.1343 |
dl2.inv_rate                                0.0000 |       0.0000 |       0.0000 |       0.0000 |       0.0000 |       0.0000 |       0.0000 |       0.0000 |       0.0000 |       0.0000 |       0.0000 |       0.0000 |       0.0000 |       0.0000 |       0.0000 |       0.0000 |       0.0000 |       0.0000 |       0.0000 |       0.0000 |       0.0000 |       0.0000 |       0.0000 |       0.0000 |       0.0000 |       0.0000 |       0.0000 |       0.0000 |       0.0000 |       0.0000 |       0.0000 |       0.0000 |       0.0000 |       0.0000 |       0.0000 |       0.0000 |       0.0000 |       0.0000 |       0.0000 |       0.0000 |       0.0000 |       0.0000 |       0.0000 |       0.0000 |
itlb.accesses                               378645 |       378645 |       378645 |       378645 |       744355 |       744355 |       744355 |       744355 |      1475493 |      1475493 |      1475493 |      1475493 |      2937766 |      2937766 |      2937766 |      2937766 |      5862310 |      5862310 |      5862310 |      5862310 |     11711399 |     11711399 |     11711399 |     11711399 |     23409575 |     23409575 |     23409575 |     23409575 |     46805927 |     46805927 |     46805927 |     46805927 |     93611107 |     93611107 |     93611107 |     93611107 |    187205739 |    187205739 |    187205739 |    187205739 |    374394995 |    374394995 |    374394995 |    374394995 |
itlb.hits                                   378635 |       378635 |       378635 |       378635 |       744345 |       744345 |       744345 |       744345 |      1475483 |      1475483 |      1475483 |      1475483 |      2937756 |      2937756 |      2937756 |      2937756 |      5862300 |      5862300 |      5862300 |      5862300 |     11711389 |     11711389 |     11711389 |     11711389 |     23409565 |     23409565 |     23409565 |     23409565 |     46805917 |     46805917 |     46805917 |     46805917 |     93611097 |     93611097 |     93611097 |     93611097 |    187205729 |    187205729 |    187205729 |    187205729 |    374394985 |    374394985 |    374394985 |    374394985 |
itlb.misses                                     10 |           10 |           10 |           10 |           10 |           10 |           10 |           10 |           10 |           10 |           10 |           10 |           10 |           10 |           10 |           10 |           10 |           10 |           10 |           10 |           10 |           10 |           10 |           10 |           10 |           10 |           10 |           10 |           10 |           10 |           10 |           10 |           10 |           10 |           10 |           10 |           10 |           10 |           10 |           10 |           10 |           10 |           10 |           10 |
itlb.replacements                                0 |            0 |            0 |            0 |            0 |            0 |            0 |            0 |            0 |            0 |            0 |            0 |            0 |            0 |            0 |            0 |            0 |            0 |            0 |            0 |            0 |            0 |            0 |            0 |            0 |            0 |            0 |            0 |            0 |            0 |            0 |            0 |            0 |            0 |            0 |            0 |            0 |            0 |            0 |            0 |            0 |            0 |            0 |            0 |
itlb.writebacks                                  0 |            0 |            0 |            0 |            0 |            0 |            0 |            0 |            0 |            0 |            0 |            0 |            0 |            0 |            0 |            0 |            0 |            0 |            0 |            0 |            0 |            0 |            0 |            0 |            0 |            0 |            0 |            0 |            0 |            0 |            0 |            0 |            0 |            0 |            0 |            0 |            0 |            0 |            0 |            0 |            0 |            0 |            0 |            0 |
itlb.invalidations                               0 |            0 |            0 |            0 |            0 |            0 |            0 |            0 |            0 |            0 |            0 |            0 |            0 |            0 |            0 |            0 |            0 |            0 |            0 |            0 |            0 |            0 |            0 |            0 |            0 |            0 |            0 |            0 |            0 |            0 |            0 |            0 |            0 |            0 |            0 |            0 |            0 |            0 |            0 |            0 |            0 |            0 |            0 |            0 |
itlb.miss_rate                              0.0000 |       0.0000 |       0.0000 |       0.0000 |       0.0000 |       0.0000 |       0.0000 |       0.0000 |       0.0000 |       0.0000 |       0.0000 |       0.0000 |       0.0000 |       0.0000 |       0.0000 |       0.0000 |       0.0000 |       0.0000 |       0.0000 |       0.0000 |       0.0000 |       0.0000 |       0.0000 |       0.0000 |       0.0000 |       0.0000 |       0.0000 |       0.0000 |       0.0000 |       0.0000 |       0.0000 |       0.0000 |       0.0000 |       0.0000 |       0.0000 |       0.0000 |       0.0000 |       0.0000 |       0.0000 |       0.0000 |       0.0000 |       0.0000 |       0.0000 |       0.0000 |
itlb.repl_rate                              0.0000 |       0.0000 |       0.0000 |       0.0000 |       0.0000 |       0.0000 |       0.0000 |       0.0000 |       0.0000 |       0.0000 |       0.0000 |       0.0000 |       0.0000 |       0.0000 |       0.0000 |       0.0000 |       0.0000 |       0.0000 |       0.0000 |       0.0000 |       0.0000 |       0.0000 |       0.0000 |       0.0000 |       0.0000 |       0.0000 |       0.0000 |       0.0000 |       0.0000 |       0.0000 |       0.0000 |       0.0000 |       0.0000 |       0.0000 |       0.0000 |       0.0000 |       0.0000 |       0.0000 |       0.0000 |       0.0000 |       0.0000 |       0.0000 |       0.0000 |       0.0000 |
itlb.wb_rate                                0.0000 |       0.0000 |       0.0000 |       0.0000 |       0.0000 |       0.0000 |       0.0000 |       0.0000 |       0.0000 |       0.0000 |       0.0000 |       0.0000 |       0.0000 |       0.0000 |       0.0000 |       0.0000 |       0.0000 |       0.0000 |       0.0000 |       0.0000 |       0.0000 |       0.0000 |       0.0000 |       0.0000 |       0.0000 |       0.0000 |       0.0000 |       0.0000 |       0.0000 |       0.0000 |       0.0000 |       0.0000 |       0.0000 |       0.0000 |       0.0000 |       0.0000 |       0.0000 |       0.0000 |       0.0000 |       0.0000 |       0.0000 |       0.0000 |       0.0000 |       0.0000 |
itlb.inv_rate                               0.0000 |       0.0000 |       0.0000 |       0.0000 |       0.0000 |       0.0000 |       0.0000 |       0.0000 |       0.0000 |       0.0000 |       0.0000 |       0.0000 |       0.0000 |       0.0000 |       0.0000 |       0.0000 |       0.0000 |       0.0000 |       0.0000 |       0.0000 |       0.0000 |       0.0000 |       0.0000 |       0.0000 |       0.0000 |       0.0000 |       0.0000 |       0.0000 |       0.0000 |       0.0000 |       0.0000 |       0.0000 |       0.0000 |       0.0000 |       0.0000 |       0.0000 |       0.0000 |       0.0000 |       0.0000 |       0.0000 |       0.0000 |       0.0000 |       0.0000 |       0.0000 |
dtlb.accesses                               155376 |       155376 |       155376 |       155376 |       302876 |       302876 |       302876 |       302876 |       597788 |       597788 |       597788 |       597788 |      1187612 |      1187612 |      1187612 |      1187612 |      2367260 |      2367260 |      2367260 |      2367260 |      4726556 |      4726556 |      4726556 |      4726556 |      9445148 |      9445148 |      9445148 |      9445148 |     18882332 |     18882332 |     18882332 |     18882332 |     37765962 |     37765962 |     37765962 |     37765962 |     75520842 |     75520842 |     75520842 |     75520842 |    151030602 |    151030602 |    151030602 |    151030602 |
dtlb.hits                                   155361 |       155361 |       155361 |       155361 |       302853 |       302853 |       302853 |       302853 |       597749 |       597749 |       597749 |       597749 |      1187541 |      1187541 |      1187541 |      1187541 |      2367110 |      2367110 |      2367110 |      2367110 |      4716293 |      4716293 |      4716293 |      4716293 |      8918821 |      8918821 |      8918821 |      8918821 |     17505477 |     17505477 |     17505477 |     17505477 |     34607850 |     34607850 |     34607850 |     34607850 |     68684333 |     68684333 |     68684333 |     68684333 |    136298168 |    136298168 |    136298168 |    136298168 |
dtlb.misses                                     15 |           15 |           15 |           15 |           23 |           23 |           23 |           23 |           39 |           39 |           39 |           39 |           71 |           71 |           71 |           71 |          150 |          150 |          150 |          150 |        10263 |        10263 |        10263 |        10263 |       526327 |       526327 |       526327 |       526327 |      1376855 |      1376855 |      1376855 |      1376855 |      3158112 |      3158112 |      3158112 |      3158112 |      6836509 |      6836509 |      6836509 |      6836509 |     14732434 |     14732434 |     14732434 |     14732434 |
dtlb.replacements                                0 |            0 |            0 |            0 |            0 |            0 |            0 |            0 |            0 |            0 |            0 |            0 |            0 |            0 |            0 |            0 |           22 |           22 |           22 |           22 |        10135 |        10135 |        10135 |        10135 |       526199 |       526199 |       526199 |       526199 |      1376727 |      1376727 |      1376727 |      1376727 |      3157984 |      3157984 |      3157984 |      3157984 |      6836381 |      6836381 |      6836381 |      6836381 |     14732306 |     14732306 |     14732306 |     14732306 |
dtlb.writebacks                                  0 |            0 |            0 |            0 |            0 |            0 |            0 |            0 |            0 |            0 |            0 |            0 |            0 |            0 |            0 |            0 |           15 |           15 |           15 |           15 |         9608 |         9608 |         9608 |         9608 |       524919 |       524919 |       524919 |       524919 |      1374178 |      1374178 |      1374178 |      1374178 |      3152907 |      3152907 |      3152907 |      3152907 |      6826232 |      6826232 |      6826232 |      6826232 |     14711916 |     14711916 |     14711916 |     14711916 |
dtlb.invalidations                               0 |            0 |            0 |            0 |            0 |            0 |            0 |            0 |            0 |            0 |            0 |            0 |            0 |            0 |            0 |            0 |            0 |            0 |            0 |            0 |            0 |            0 |            0 |            0 |            0 |            0 |            0 |            0 |            0 |            0 |            0 |            0 |            0 |            0 |            0 |            0 |            0 |            0 |            0 |            0 |            0 |            0 |            0 |            0 |
dtlb.miss_rate                              0.0001 |       0.0001 |       0.0001 |       0.0001 |       0.0001 |       0.0001 |       0.0001 |       0.0001 |       0.0001 |       0.0001 |       0.0001 |       0.0001 |       0.0001 |       0.0001 |       0.0001 |       0.0001 |       0.0001 |       0.0001 |       0.0001 |       0.0001 |       0.0022 |       0.0022 |       0.0022 |       0.0022 |       0.0557 |       0.0557 |       0.0557 |       0.0557 |       0.0729 |       0.0729 |       0.0729 |       0.0729 |       0.0836 |       0.0836 |       0.0836 |       0.0836 |       0.0905 |       0.0905 |       0.0905 |       0.0905 |       0.0975 |       0.0975 |       0.0975 |       0.0975 |
dtlb.repl_rate                              0.0000 |       0.0000 |       0.0000 |       0.0000 |       0.0000 |       0.0000 |       0.0000 |       0.0000 |       0.0000 |       0.0000 |       0.0000 |       0.0000 |       0.0000 |       0.0000 |       0.0000 |       0.0000 |       0.0000 |       0.0000 |       0.0000 |       0.0000 |       0.0021 |       0.0021 |       0.0021 |       0.0021 |       0.0557 |       0.0557 |       0.0557 |       0.0557 |       0.0729 |       0.0729 |       0.0729 |       0.0729 |       0.0836 |       0.0836 |       0.0836 |       0.0836 |       0.0905 |       0.0905 |       0.0905 |       0.0905 |       0.0975 |       0.0975 |       0.0975 |       0.0975 |
dtlb.wb_rate                                0.0000 |       0.0000 |       0.0000 |       0.0000 |       0.0000 |       0.0000 |       0.0000 |       0.0000 |       0.0000 |       0.0000 |       0.0000 |       0.0000 |       0.0000 |       0.0000 |       0.0000 |       0.0000 |       0.0000 |       0.0000 |       0.0000 |       0.0000 |       0.0020 |       0.0020 |       0.0020 |       0.0020 |       0.0556 |       0.0556 |       0.0556 |       0.0556 |       0.0728 |       0.0728 |       0.0728 |       0.0728 |       0.0835 |       0.0835 |       0.0835 |       0.0835 |       0.0904 |       0.0904 |       0.0904 |       0.0904 |       0.0974 |       0.0974 |       0.0974 |       0.0974 |
dtlb.inv_rate                               0.0000 |       0.0000 |       0.0000 |       0.0000 |       0.0000 |       0.0000 |       0.0000 |       0.0000 |       0.0000 |       0.0000 |       0.0000 |       0.0000 |       0.0000 |       0.0000 |       0.0000 |       0.0000 |       0.0000 |       0.0000 |       0.0000 |       0.0000 |       0.0000 |       0.0000 |       0.0000 |       0.0000 |       0.0000 |       0.0000 |       0.0000 |       0.0000 |       0.0000 |       0.0000 |       0.0000 |       0.0000 |       0.0000 |       0.0000 |       0.0000 |       0.0000 |       0.0000 |       0.0000 |       0.0000 |       0.0000 |       0.0000 |       0.0000 |       0.0000 |       0.0000 |
ld_text_base                            0x00400000 |   0x00400000 |   0x00400000 |   0x00400000 |   0x00400000 |   0x00400000 |   0x00400000 |   0x00400000 |   0x00400000 |   0x00400000 |   0x00400000 |   0x00400000 |   0x00400000 |   0x00400000 |   0x00400000 |   0x00400000 |   0x00400000 |   0x00400000 |   0x00400000 |   0x00400000 |   0x00400000 |   0x00400000 |   0x00400000 |   0x00400000 |   0x00400000 |   0x00400000 |   0x00400000 |   0x00400000 |   0x00400000 |   0x00400000 |   0x00400000 |   0x00400000 |   0x00400000 |   0x00400000 |   0x00400000 |   0x00400000 |   0x00400000 |   0x00400000 |   0x00400000 |   0x00400000 |   0x00400000 |   0x00400000 |   0x00400000 |   0x00400000 |
ld_text_size                                 73856 |        73856 |        73856 |        73856 |        73888 |        73888 |        73888 |        73888 |        73904 |        73904 |        73904 |        73904 |        73920 |        73920 |        73920 |        73920 |        73920 |        73920 |        73920 |        73920 |        73920 |        73920 |        73920 |        73920 |        73920 |        73920 |        73920 |        73920 |        73920 |        73920 |        73920 |        73920 |        73920 |        73920 |        73920 |        73920 |        73920 |        73920 |        73920 |        73920 |        73920 |        73920 |        73920 |        73920 |
ld_data_base                            0x10000000 |   0x10000000 |   0x10000000 |   0x10000000 |   0x10000000 |   0x10000000 |   0x10000000 |   0x10000000 |   0x10000000 |   0x10000000 |   0x10000000 |   0x10000000 |   0x10000000 |   0x10000000 |   0x10000000 |   0x10000000 |   0x10000000 |   0x10000000 |   0x10000000 |   0x10000000 |   0x10000000 |   0x10000000 |   0x10000000 |   0x10000000 |   0x10000000 |   0x10000000 |   0x10000000 |   0x10000000 |   0x10000000 |   0x10000000 |   0x10000000 |   0x10000000 |   0x10000000 |   0x10000000 |   0x10000000 |   0x10000000 |   0x10000000 |   0x10000000 |   0x10000000 |   0x10000000 |   0x10000000 |   0x10000000 |   0x10000000 |   0x10000000 |
ld_data_size                                  8192 |         8192 |         8192 |         8192 |         8192 |         8192 |         8192 |         8192 |         8192 |         8192 |         8192 |         8192 |         8192 |         8192 |         8192 |         8192 |         8192 |         8192 |         8192 |         8192 |         8192 |         8192 |         8192 |         8192 |         8192 |         8192 |         8192 |         8192 |         8192 |         8192 |         8192 |         8192 |         8192 |         8192 |         8192 |         8192 |         8192 |         8192 |         8192 |         8192 |         8192 |         8192 |         8192 |         8192 |
ld_stack_base                           0x7fffc000 |   0x7fffc000 |   0x7fffc000 |   0x7fffc000 |   0x7fffc000 |   0x7fffc000 |   0x7fffc000 |   0x7fffc000 |   0x7fffc000 |   0x7fffc000 |   0x7fffc000 |   0x7fffc000 |   0x7fffc000 |   0x7fffc000 |   0x7fffc000 |   0x7fffc000 |   0x7fffc000 |   0x7fffc000 |   0x7fffc000 |   0x7fffc000 |   0x7fffc000 |   0x7fffc000 |   0x7fffc000 |   0x7fffc000 |   0x7fffc000 |   0x7fffc000 |   0x7fffc000 |   0x7fffc000 |   0x7fffc000 |   0x7fffc000 |   0x7fffc000 |   0x7fffc000 |   0x7fffc000 |   0x7fffc000 |   0x7fffc000 |   0x7fffc000 |   0x7fffc000 |   0x7fffc000 |   0x7fffc000 |   0x7fffc000 |   0x7fffc000 |   0x7fffc000 |   0x7fffc000 |   0x7fffc000 |
ld_stack_size                                16384 |        16384 |        16384 |        16384 |        16384 |        16384 |        16384 |        16384 |        16384 |        16384 |        16384 |        16384 |        16384 |        16384 |        16384 |        16384 |        16384 |        16384 |        16384 |        16384 |        16384 |        16384 |        16384 |        16384 |        16384 |        16384 |        16384 |        16384 |        16384 |        16384 |        16384 |        16384 |        16384 |        16384 |        16384 |        16384 |        16384 |        16384 |        16384 |        16384 |        16384 |        16384 |        16384 |        16384 |
ld_prog_entry                           0x00400140 |   0x00400140 |   0x00400140 |   0x00400140 |   0x00400140 |   0x00400140 |   0x00400140 |   0x00400140 |   0x00400140 |   0x00400140 |   0x00400140 |   0x00400140 |   0x00400140 |   0x00400140 |   0x00400140 |   0x00400140 |   0x00400140 |   0x00400140 |   0x00400140 |   0x00400140 |   0x00400140 |   0x00400140 |   0x00400140 |   0x00400140 |   0x00400140 |   0x00400140 |   0x00400140 |   0x00400140 |   0x00400140 |   0x00400140 |   0x00400140 |   0x00400140 |   0x00400140 |   0x00400140 |   0x00400140 |   0x00400140 |   0x00400140 |   0x00400140 |   0x00400140 |   0x00400140 |   0x00400140 |   0x00400140 |   0x00400140 |   0x00400140 |
ld_environ_base                         0x7fff8000 |   0x7fff8000 |   0x7fff8000 |   0x7fff8000 |   0x7fff8000 |   0x7fff8000 |   0x7fff8000 |   0x7fff8000 |   0x7fff8000 |   0x7fff8000 |   0x7fff8000 |   0x7fff8000 |   0x7fff8000 |   0x7fff8000 |   0x7fff8000 |   0x7fff8000 |   0x7fff8000 |   0x7fff8000 |   0x7fff8000 |   0x7fff8000 |   0x7fff8000 |   0x7fff8000 |   0x7fff8000 |   0x7fff8000 |   0x7fff8000 |   0x7fff8000 |   0x7fff8000 |   0x7fff8000 |   0x7fff8000 |   0x7fff8000 |   0x7fff8000 |   0x7fff8000 |   0x7fff8000 |   0x7fff8000 |   0x7fff8000 |   0x7fff8000 |   0x7fff8000 |   0x7fff8000 |   0x7fff8000 |   0x7fff8000 |   0x7fff8000 |   0x7fff8000 |   0x7fff8000 |   0x7fff8000 |
ld_target_big_endian                             0 |            0 |            0 |            0 |            0 |            0 |            0 |            0 |            0 |            0 |            0 |            0 |            0 |            0 |            0 |            0 |            0 |            0 |            0 |            0 |            0 |            0 |            0 |            0 |            0 |            0 |            0 |            0 |            0 |            0 |            0 |            0 |            0 |            0 |            0 |            0 |            0 |            0 |            0 |            0 |            0 |            0 |            0 |            0 |
mem.page_count                                  34 |           34 |           34 |           34 |           42 |           42 |           42 |           42 |           58 |           58 |           58 |           58 |           90 |           90 |           90 |           90 |          154 |          154 |          154 |          154 |          282 |          282 |          282 |          282 |          538 |          538 |          538 |          538 |         1050 |         1050 |         1050 |         1050 |         2080 |         2080 |         2080 |         2080 |         4134 |         4134 |         4134 |         4134 |         8242 |         8242 |         8242 |         8242 |
mem.page_mem                                  136k |         136k |         136k |         136k |         168k |         168k |         168k |         168k |         232k |         232k |         232k |         232k |         360k |         360k |         360k |         360k |         616k |         616k |         616k |         616k |        1128k |        1128k |        1128k |        1128k |        2152k |        2152k |        2152k |        2152k |        4200k |        4200k |        4200k |        4200k |        8320k |        8320k |        8320k |        8320k |       16536k |       16536k |       16536k |       16536k |       32968k |       32968k |       32968k |       32968k |
mem.ptab_misses                                 34 |           34 |           34 |           34 |           42 |           42 |           42 |           42 |           58 |           58 |           58 |           58 |           90 |           90 |           90 |           90 |          154 |          154 |          154 |          154 |          282 |          282 |          282 |          282 |          538 |          538 |          538 |          538 |         1050 |         1050 |         1050 |         1050 |        18467 |        18467 |        18467 |        18467 |        18477 |        18477 |        18477 |        18477 |        22585 |        22585 |        22585 |        22585 |
mem.ptab_accesses                          2283060 |      2283060 |      2283060 |      2283060 |      4041092 |      4041092 |      4041092 |      4041092 |      7555564 |      7555564 |      7555564 |      7555564 |     14584400 |     14584400 |     14584400 |     14584400 |     28641872 |     28641872 |     28641872 |     28641872 |     56756820 |     56756820 |     56756820 |     56756820 |    112986708 |    112986708 |    112986708 |    112986708 |    225446484 |    225446484 |    225446484 |    225446484 |    450434464 |    450434464 |    450434464 |    450434464 |    900322752 |    900322752 |    900322752 |    900322752 |   1800099296 |   1800099296 |   1800099296 |   1800099296 |
mem.ptab_miss_rate                          0.0000 |       0.0000 |       0.0000 |       0.0000 |       0.0000 |       0.0000 |       0.0000 |       0.0000 |       0.0000 |       0.0000 |       0.0000 |       0.0000 |       0.0000 |       0.0000 |       0.0000 |       0.0000 |       0.0000 |       0.0000 |       0.0000 |       0.0000 |       0.0000 |       0.0000 |       0.0000 |       0.0000 |       0.0000 |       0.0000 |       0.0000 |       0.0000 |       0.0000 |       0.0000 |       0.0000 |       0.0000 |       0.0000 |       0.0000 |       0.0000 |       0.0000 |       0.0000 |       0.0000 |       0.0000 |       0.0000 |       0.0000 |       0.0000 |       0.0000 |       0.0000 |
-------------------------------------------------------------------------------------------------
sim-bpred                                     4096 |         4096 |         4096 |         4096 |         4096 |         4096 |         4096 |         8192 |         8192 |         8192 |         8192 |         8192 |         8192 |         8192 |        16384 |        16384 |        16384 |        16384 |        16384 |        16384 |        16384 |        32768 |        32768 |        32768 |        32768 |        32768 |        32768 |        32768 |        65536 |        65536 |        65536 |        65536 |        65536 |        65536 |        65536 |       131072 |       131072 |       131072 |       131072 |       131072 |       131072 |       131072 |       262144 |       262144 |       262144 |       262144 |       262144 |       262144 |       262144 |       524288 |       524288 |       524288 |       524288 |       524288 |       524288 |       524288 |      1048576 |      1048576 |      1048576 |      1048576 |      1048576 |      1048576 |      1048576 |      2097152 |      2097152 |      2097152 |      2097152 |      2097152 |      2097152 |      2097152 |      4194304 |      4194304 |      4194304 |      4194304 |      4194304 |      4194304 |      4194304 |
-bpred bimod -bpred:bimod 512
-bpred bimod -bpred:bimod 1024
-bpred bimod -bpred:bimod 2048
-bpred 2lev -bpred:2lev 1 512 10 1
-bpred 2lev -bpred:2lev 1 1024 10 1
-bpred 2lev -bpred:2lev 1 2048 10 1
-bpred 2lev -bpred:2lev 1 4096 10 1
-------------------------------------------------------------------------------------------------
sim_num_insn                                378645 |       378645 |       378645 |       378645 |       378645 |       378645 |       378645 |       744355 |       744355 |       744355 |       744355 |       744355 |       744355 |       744355 |      1475493 |      1475493 |      1475493 |      1475493 |      1475493 |      1475493 |      1475493 |      2937766 |      2937766 |      2937766 |      2937766 |      2937766 |      2937766 |      2937766 |      5862310 |      5862310 |      5862310 |      5862310 |      5862310 |      5862310 |      5862310 |     11711399 |     11711399 |     11711399 |     11711399 |     11711399 |     11711399 |     11711399 |     23409575 |     23409575 |     23409575 |     23409575 |     23409575 |     23409575 |     23409575 |     46805927 |     46805927 |     46805927 |     46805927 |     46805927 |     46805927 |     46805927 |     93611107 |     93611107 |     93611107 |     93611107 |     93611107 |     93611107 |     93611107 |    187205739 |    187205739 |    187205739 |    187205739 |    187205739 |    187205739 |    187205739 |    374394995 |    374394995 |    374394995 |    374394995 |    374394995 |    374394995 |    374394995 |
sim_num_refs                                138910 |       138910 |       138910 |       138910 |       138910 |       138910 |       138910 |       270026 |       270026 |       270026 |       270026 |       270026 |       270026 |       270026 |       532170 |       532170 |       532170 |       532170 |       532170 |       532170 |       532170 |      1056458 |      1056458 |      1056458 |      1056458 |      1056458 |      1056458 |      1056458 |      2105034 |      2105034 |      2105034 |      2105034 |      2105034 |      2105034 |      2105034 |      4202186 |      4202186 |      4202186 |      4202186 |      4202186 |      4202186 |      4202186 |      8396490 |      8396490 |      8396490 |      8396490 |      8396490 |      8396490 |      8396490 |     16785098 |     16785098 |     16785098 |     16785098 |     16785098 |     16785098 |     16785098 |     33571576 |     33571576 |     33571576 |     33571576 |     33571576 |     33571576 |     33571576 |     67132152 |     67132152 |     67132152 |     67132152 |     67132152 |     67132152 |     67132152 |    134253304 |    134253304 |    134253304 |    134253304 |    134253304 |    134253304 |    134253304 |
sim_elapsed_time                                 1 |            1 |            1 |            1 |            1 |            1 |            1 |            1 |            1 |            1 |            1 |            1 |            1 |            1 |            1 |            1 |            1 |            1 |            1 |            1 |            1 |            1 |            1 |            1 |            1 |            1 |            1 |            1 |            1 |            1 |            1 |            1 |            1 |            1 |            1 |            1 |            1 |            1 |            1 |            1 |            1 |            1 |            2 |            2 |            2 |            2 |            3 |            2 |            2 |            4 |            5 |            4 |            4 |            5 |            4 |            4 |            8 |            9 |            9 |            8 |            9 |            9 |            8 |           17 |           17 |           17 |           17 |           18 |           17 |           17 |           34 |           35 |           34 |           34 |           35 |           35 |           35 |
sim_inst_rate                          378645.0000 |  378645.0000 |  378645.0000 |  378645.0000 |  378645.0000 |  378645.0000 |  378645.0000 |  744355.0000 |  744355.0000 |  744355.0000 |  744355.0000 |  744355.0000 |  744355.0000 |  744355.0000 | 1475493.0000 | 1475493.0000 | 1475493.0000 | 1475493.0000 | 1475493.0000 | 1475493.0000 | 1475493.0000 | 2937766.0000 | 2937766.0000 | 2937766.0000 | 2937766.0000 | 2937766.0000 | 2937766.0000 | 2937766.0000 | 5862310.0000 | 5862310.0000 | 5862310.0000 | 5862310.0000 | 5862310.0000 | 5862310.0000 | 5862310.0000 |11711399.0000 |11711399.0000 |11711399.0000 |11711399.0000 |11711399.0000 |11711399.0000 |11711399.0000 |11704787.5000 |11704787.5000 |11704787.5000 |11704787.5000 | 7803191.6667 |11704787.5000 |11704787.5000 |11701481.7500 | 9361185.4000 |11701481.7500 |11701481.7500 | 9361185.4000 |11701481.7500 |11701481.7500 |11701388.3750 |10401234.1111 |10401234.1111 |11701388.3750 |10401234.1111 |10401234.1111 |11701388.3750 |11012102.2941 |11012102.2941 |11012102.2941 |11012102.2941 |10400318.8333 |11012102.2941 |11012102.2941 |11011617.5000 |10696999.8571 |11011617.5000 |11011617.5000 |10696999.8571 |10696999.8571 |10696999.8571 |
sim_num_branches                              9241 |         9241 |         9241 |         9241 |         9241 |         9241 |         9241 |        17473 |        17473 |        17473 |        17473 |        17473 |        17473 |        17473 |        33857 |        33857 |        33857 |        33857 |        33857 |        33857 |        33857 |        66625 |        66625 |        66625 |        66625 |        66625 |        66625 |        66625 |       132161 |       132161 |       132161 |       132161 |       132161 |       132161 |       132161 |       263233 |       263233 |       263233 |       263233 |       263233 |       263233 |       263233 |       525377 |       525377 |       525377 |       525377 |       525377 |       525377 |       525377 |      1049665 |      1049665 |      1049665 |      1049665 |      1049665 |      1049665 |      1049665 |      2099034 |      2099034 |      2099034 |      2099034 |      2099034 |      2099034 |      2099034 |      4196957 |      4196957 |      4196957 |      4196957 |      4196957 |      4196957 |      4196957 |      8392800 |      8392800 |      8392800 |      8392800 |      8392800 |      8392800 |      8392800 |
sim_IPB                                    40.9745 |      40.9745 |      40.9745 |      40.9745 |      40.9745 |      40.9745 |      40.9745 |      42.6003 |      42.6003 |      42.6003 |      42.6003 |      42.6003 |      42.6003 |      42.6003 |      43.5801 |      43.5801 |      43.5801 |      43.5801 |      43.5801 |      43.5801 |      43.5801 |      44.0940 |      44.0940 |      44.0940 |      44.0940 |      44.0940 |      44.0940 |      44.0940 |      44.3573 |      44.3573 |      44.3573 |      44.3573 |      44.3573 |      44.3573 |      44.3573 |      44.4906 |      44.4906 |      44.4906 |      44.4906 |      44.4906 |      44.4906 |      44.4906 |      44.5577 |      44.5577 |      44.5577 |      44.5577 |      44.5577 |      44.5577 |      44.5577 |      44.5913 |      44.5913 |      44.5913 |      44.5913 |      44.5913 |      44.5913 |      44.5913 |      44.5972 |      44.5972 |      44.5972 |      44.5972 |      44.5972 |      44.5972 |      44.5972 |      44.6051 |      44.6051 |      44.6051 |      44.6051 |      44.6051 |      44.6051 |      44.6051 |      44.6091 |      44.6091 |      44.6091 |      44.6091 |      44.6091 |      44.6091 |      44.6091 |
bpred_bimod.lookups                           9241 |         9241 |         9241 |xxxxxxxxxxxxx |xxxxxxxxxxxxx |xxxxxxxxxxxxx |xxxxxxxxxxxxx |        17473 |        17473 |        17473 |xxxxxxxxxxxxx |xxxxxxxxxxxxx |xxxxxxxxxxxxx |xxxxxxxxxxxxx |        33857 |        33857 |        33857 |xxxxxxxxxxxxx |xxxxxxxxxxxxx |xxxxxxxxxxxxx |xxxxxxxxxxxxx |        66625 |        66625 |        66625 |xxxxxxxxxxxxx |xxxxxxxxxxxxx |xxxxxxxxxxxxx |xxxxxxxxxxxxx |       132161 |       132161 |       132161 |xxxxxxxxxxxxx |xxxxxxxxxxxxx |xxxxxxxxxxxxx |xxxxxxxxxxxxx |       263233 |       263233 |       263233 |xxxxxxxxxxxxx |xxxxxxxxxxxxx |xxxxxxxxxxxxx |xxxxxxxxxxxxx |       525377 |       525377 |       525377 |xxxxxxxxxxxxx |xxxxxxxxxxxxx |xxxxxxxxxxxxx |xxxxxxxxxxxxx |      1049665 |      1049665 |      1049665 |xxxxxxxxxxxxx |xxxxxxxxxxxxx |xxxxxxxxxxxxx |xxxxxxxxxxxxx |      2099034 |      2099034 |      2099034 |xxxxxxxxxxxxx |xxxxxxxxxxxxx |xxxxxxxxxxxxx |xxxxxxxxxxxxx |      4196957 |      4196957 |      4196957 |xxxxxxxxxxxxx |xxxxxxxxxxxxx |xxxxxxxxxxxxx |xxxxxxxxxxxxx |      8392800 |      8392800 |      8392800 |
bpred_bimod.updates                           9241 |         9241 |         9241 |xxxxxxxxxxxxx |xxxxxxxxxxxxx |xxxxxxxxxxxxx |xxxxxxxxxxxxx |        17473 |        17473 |        17473 |xxxxxxxxxxxxx |xxxxxxxxxxxxx |xxxxxxxxxxxxx |xxxxxxxxxxxxx |        33857 |        33857 |        33857 |xxxxxxxxxxxxx |xxxxxxxxxxxxx |xxxxxxxxxxxxx |xxxxxxxxxxxxx |        66625 |        66625 |        66625 |xxxxxxxxxxxxx |xxxxxxxxxxxxx |xxxxxxxxxxxxx |xxxxxxxxxxxxx |       132161 |       132161 |       132161 |xxxxxxxxxxxxx |xxxxxxxxxxxxx |xxxxxxxxxxxxx |xxxxxxxxxxxxx |       263233 |       263233 |       263233 |xxxxxxxxxxxxx |xxxxxxxxxxxxx |xxxxxxxxxxxxx |xxxxxxxxxxxxx |       525377 |       525377 |       525377 |xxxxxxxxxxxxx |xxxxxxxxxxxxx |xxxxxxxxxxxxx |xxxxxxxxxxxxx |      1049665 |      1049665 |      1049665 |xxxxxxxxxxxxx |xxxxxxxxxxxxx |xxxxxxxxxxxxx |xxxxxxxxxxxxx |      2099034 |      2099034 |      2099034 |xxxxxxxxxxxxx |xxxxxxxxxxxxx |xxxxxxxxxxxxx |xxxxxxxxxxxxx |      4196957 |      4196957 |      4196957 |xxxxxxxxxxxxx |xxxxxxxxxxxxx |xxxxxxxxxxxxx |xxxxxxxxxxxxx |      8392800 |      8392800 |      8392800 |
bpred_bimod.addr_hits                         9039 |         9041 |         9041 |xxxxxxxxxxxxx |xxxxxxxxxxxxx |xxxxxxxxxxxxx |xxxxxxxxxxxxx |        17264 |        17266 |        17266 |xxxxxxxxxxxxx |xxxxxxxxxxxxx |xxxxxxxxxxxxx |xxxxxxxxxxxxx |        33649 |        33651 |        33651 |xxxxxxxxxxxxx |xxxxxxxxxxxxx |xxxxxxxxxxxxx |xxxxxxxxxxxxx |        66417 |        66419 |        66419 |xxxxxxxxxxxxx |xxxxxxxxxxxxx |xxxxxxxxxxxxx |xxxxxxxxxxxxx |       131953 |       131955 |       131955 |xxxxxxxxxxxxx |xxxxxxxxxxxxx |xxxxxxxxxxxxx |xxxxxxxxxxxxx |       263025 |       263027 |       263027 |xxxxxxxxxxxxx |xxxxxxxxxxxxx |xxxxxxxxxxxxx |xxxxxxxxxxxxx |       525169 |       525171 |       525171 |xxxxxxxxxxxxx |xxxxxxxxxxxxx |xxxxxxxxxxxxx |xxxxxxxxxxxxx |      1049457 |      1049459 |      1049459 |xxxxxxxxxxxxx |xxxxxxxxxxxxx |xxxxxxxxxxxxx |xxxxxxxxxxxxx |      2098803 |      2098804 |      2098803 |xxxxxxxxxxxxx |xxxxxxxxxxxxx |xxxxxxxxxxxxx |xxxxxxxxxxxxx |      4196726 |      4196727 |      4196726 |xxxxxxxxxxxxx |xxxxxxxxxxxxx |xxxxxxxxxxxxx |xxxxxxxxxxxxx |      8392569 |      8392570 |      8392569 |
bpred_bimod.dir_hits                          9138 |         9142 |         9142 |xxxxxxxxxxxxx |xxxxxxxxxxxxx |xxxxxxxxxxxxx |xxxxxxxxxxxxx |        17367 |        17371 |        17371 |xxxxxxxxxxxxx |xxxxxxxxxxxxx |xxxxxxxxxxxxx |xxxxxxxxxxxxx |        33753 |        33756 |        33756 |xxxxxxxxxxxxx |xxxxxxxxxxxxx |xxxxxxxxxxxxx |xxxxxxxxxxxxx |        66520 |        66523 |        66523 |xxxxxxxxxxxxx |xxxxxxxxxxxxx |xxxxxxxxxxxxx |xxxxxxxxxxxxx |       132056 |       132059 |       132059 |xxxxxxxxxxxxx |xxxxxxxxxxxxx |xxxxxxxxxxxxx |xxxxxxxxxxxxx |       263129 |       263132 |       263132 |xxxxxxxxxxxxx |xxxxxxxxxxxxx |xxxxxxxxxxxxx |xxxxxxxxxxxxx |       525273 |       525276 |       525276 |xxxxxxxxxxxxx |xxxxxxxxxxxxx |xxxxxxxxxxxxx |xxxxxxxxxxxxx |      1049561 |      1049564 |      1049564 |xxxxxxxxxxxxx |xxxxxxxxxxxxx |xxxxxxxxxxxxx |xxxxxxxxxxxxx |      2098918 |      2098919 |      2098919 |xxxxxxxxxxxxx |xxxxxxxxxxxxx |xxxxxxxxxxxxx |xxxxxxxxxxxxx |      4196841 |      4196842 |      4196842 |xxxxxxxxxxxxx |xxxxxxxxxxxxx |xxxxxxxxxxxxx |xxxxxxxxxxxxx |      8392684 |      8392685 |      8392685 |
bpred_bimod.misses                             103 |           99 |           99 |xxxxxxxxxxxxx |xxxxxxxxxxxxx |xxxxxxxxxxxxx |xxxxxxxxxxxxx |          106 |          102 |          102 |xxxxxxxxxxxxx |xxxxxxxxxxxxx |xxxxxxxxxxxxx |xxxxxxxxxxxxx |          104 |          101 |          101 |xxxxxxxxxxxxx |xxxxxxxxxxxxx |xxxxxxxxxxxxx |xxxxxxxxxxxxx |          105 |          102 |          102 |xxxxxxxxxxxxx |xxxxxxxxxxxxx |xxxxxxxxxxxxx |xxxxxxxxxxxxx |          105 |          102 |          102 |xxxxxxxxxxxxx |xxxxxxxxxxxxx |xxxxxxxxxxxxx |xxxxxxxxxxxxx |          104 |          101 |          101 |xxxxxxxxxxxxx |xxxxxxxxxxxxx |xxxxxxxxxxxxx |xxxxxxxxxxxxx |          104 |          101 |          101 |xxxxxxxxxxxxx |xxxxxxxxxxxxx |xxxxxxxxxxxxx |xxxxxxxxxxxxx |          104 |          101 |          101 |xxxxxxxxxxxxx |xxxxxxxxxxxxx |xxxxxxxxxxxxx |xxxxxxxxxxxxx |          116 |          115 |          115 |xxxxxxxxxxxxx |xxxxxxxxxxxxx |xxxxxxxxxxxxx |xxxxxxxxxxxxx |          116 |          115 |          115 |xxxxxxxxxxxxx |xxxxxxxxxxxxx |xxxxxxxxxxxxx |xxxxxxxxxxxxx |          116 |          115 |          115 |
bpred_bimod.jr_hits                             61 |           61 |           61 |xxxxxxxxxxxxx |xxxxxxxxxxxxx |xxxxxxxxxxxxx |xxxxxxxxxxxxx |           69 |           69 |           69 |xxxxxxxxxxxxx |xxxxxxxxxxxxx |xxxxxxxxxxxxx |xxxxxxxxxxxxx |           69 |           69 |           69 |xxxxxxxxxxxxx |xxxxxxxxxxxxx |xxxxxxxxxxxxx |xxxxxxxxxxxxx |           69 |           69 |           69 |xxxxxxxxxxxxx |xxxxxxxxxxxxx |xxxxxxxxxxxxx |xxxxxxxxxxxxx |           69 |           69 |           69 |xxxxxxxxxxxxx |xxxxxxxxxxxxx |xxxxxxxxxxxxx |xxxxxxxxxxxxx |           69 |           69 |           69 |xxxxxxxxxxxxx |xxxxxxxxxxxxx |xxxxxxxxxxxxx |xxxxxxxxxxxxx |           69 |           69 |           69 |xxxxxxxxxxxxx |xxxxxxxxxxxxx |xxxxxxxxxxxxx |xxxxxxxxxxxxx |           69 |           69 |           69 |xxxxxxxxxxxxx |xxxxxxxxxxxxx |xxxxxxxxxxxxx |xxxxxxxxxxxxx |           72 |           72 |           72 |xxxxxxxxxxxxx |xxxxxxxxxxxxx |xxxxxxxxxxxxx |xxxxxxxxxxxxx |           72 |           72 |           72 |xxxxxxxxxxxxx |xxxxxxxxxxxxx |xxxxxxxxxxxxx |xxxxxxxxxxxxx |           72 |           72 |           72 |
bpred_bimod.jr_seen                             61 |           61 |           61 |xxxxxxxxxxxxx |xxxxxxxxxxxxx |xxxxxxxxxxxxx |xxxxxxxxxxxxx |           70 |           70 |           70 |xxxxxxxxxxxxx |xxxxxxxxxxxxx |xxxxxxxxxxxxx |xxxxxxxxxxxxx |           70 |           70 |           70 |xxxxxxxxxxxxx |xxxxxxxxxxxxx |xxxxxxxxxxxxx |xxxxxxxxxxxxx |           70 |           70 |           70 |xxxxxxxxxxxxx |xxxxxxxxxxxxx |xxxxxxxxxxxxx |xxxxxxxxxxxxx |           70 |           70 |           70 |xxxxxxxxxxxxx |xxxxxxxxxxxxx |xxxxxxxxxxxxx |xxxxxxxxxxxxx |           70 |           70 |           70 |xxxxxxxxxxxxx |xxxxxxxxxxxxx |xxxxxxxxxxxxx |xxxxxxxxxxxxx |           70 |           70 |           70 |xxxxxxxxxxxxx |xxxxxxxxxxxxx |xxxxxxxxxxxxx |xxxxxxxxxxxxx |           70 |           70 |           70 |xxxxxxxxxxxxx |xxxxxxxxxxxxx |xxxxxxxxxxxxx |xxxxxxxxxxxxx |           73 |           73 |           73 |xxxxxxxxxxxxx |xxxxxxxxxxxxx |xxxxxxxxxxxxx |xxxxxxxxxxxxx |           73 |           73 |           73 |xxxxxxxxxxxxx |xxxxxxxxxxxxx |xxxxxxxxxxxxx |xxxxxxxxxxxxx |           73 |           73 |           73 |
bpred_bimod.jr_non_ras_hits.PP                   0 |            0 |            0 |xxxxxxxxxxxxx |xxxxxxxxxxxxx |xxxxxxxxxxxxx |xxxxxxxxxxxxx |            0 |            0 |            0 |xxxxxxxxxxxxx |xxxxxxxxxxxxx |xxxxxxxxxxxxx |xxxxxxxxxxxxx |            0 |            0 |            0 |xxxxxxxxxxxxx |xxxxxxxxxxxxx |xxxxxxxxxxxxx |xxxxxxxxxxxxx |            0 |            0 |            0 |xxxxxxxxxxxxx |xxxxxxxxxxxxx |xxxxxxxxxxxxx |xxxxxxxxxxxxx |            0 |            0 |            0 |xxxxxxxxxxxxx |xxxxxxxxxxxxx |xxxxxxxxxxxxx |xxxxxxxxxxxxx |            0 |            0 |            0 |xxxxxxxxxxxxx |xxxxxxxxxxxxx |xxxxxxxxxxxxx |xxxxxxxxxxxxx |            0 |            0 |            0 |xxxxxxxxxxxxx |xxxxxxxxxxxxx |xxxxxxxxxxxxx |xxxxxxxxxxxxx |            0 |            0 |            0 |xxxxxxxxxxxxx |xxxxxxxxxxxxx |xxxxxxxxxxxxx |xxxxxxxxxxxxx |            0 |            0 |            0 |xxxxxxxxxxxxx |xxxxxxxxxxxxx |xxxxxxxxxxxxx |xxxxxxxxxxxxx |            0 |            0 |            0 |xxxxxxxxxxxxx |xxxxxxxxxxxxx |xxxxxxxxxxxxx |xxxxxxxxxxxxx |            0 |            0 |            0 |
bpred_bimod.jr_non_ras_seen.PP                   0 |            0 |            0 |xxxxxxxxxxxxx |xxxxxxxxxxxxx |xxxxxxxxxxxxx |xxxxxxxxxxxxx |            0 |            0 |            0 |xxxxxxxxxxxxx |xxxxxxxxxxxxx |xxxxxxxxxxxxx |xxxxxxxxxxxxx |            0 |            0 |            0 |xxxxxxxxxxxxx |xxxxxxxxxxxxx |xxxxxxxxxxxxx |xxxxxxxxxxxxx |            0 |            0 |            0 |xxxxxxxxxxxxx |xxxxxxxxxxxxx |xxxxxxxxxxxxx |xxxxxxxxxxxxx |            0 |            0 |            0 |xxxxxxxxxxxxx |xxxxxxxxxxxxx |xxxxxxxxxxxxx |xxxxxxxxxxxxx |            0 |            0 |            0 |xxxxxxxxxxxxx |xxxxxxxxxxxxx |xxxxxxxxxxxxx |xxxxxxxxxxxxx |            0 |            0 |            0 |xxxxxxxxxxxxx |xxxxxxxxxxxxx |xxxxxxxxxxxxx |xxxxxxxxxxxxx |            0 |            0 |            0 |xxxxxxxxxxxxx |xxxxxxxxxxxxx |xxxxxxxxxxxxx |xxxxxxxxxxxxx |            1 |            1 |            1 |xxxxxxxxxxxxx |xxxxxxxxxxxxx |xxxxxxxxxxxxx |xxxxxxxxxxxxx |            1 |            1 |            1 |xxxxxxxxxxxxx |xxxxxxxxxxxxx |xxxxxxxxxxxxx |xxxxxxxxxxxxx |            1 |            1 |            1 |
bpred_bimod.bpred_addr_rate                 0.9781 |       0.9784 |       0.9784 |xxxxxxxxxxxxx |xxxxxxxxxxxxx |xxxxxxxxxxxxx |xxxxxxxxxxxxx |       0.9880 |       0.9882 |       0.9882 |xxxxxxxxxxxxx |xxxxxxxxxxxxx |xxxxxxxxxxxxx |xxxxxxxxxxxxx |       0.9939 |       0.9939 |       0.9939 |xxxxxxxxxxxxx |xxxxxxxxxxxxx |xxxxxxxxxxxxx |xxxxxxxxxxxxx |       0.9969 |       0.9969 |       0.9969 |xxxxxxxxxxxxx |xxxxxxxxxxxxx |xxxxxxxxxxxxx |xxxxxxxxxxxxx |       0.9984 |       0.9984 |       0.9984 |xxxxxxxxxxxxx |xxxxxxxxxxxxx |xxxxxxxxxxxxx |xxxxxxxxxxxxx |       0.9992 |       0.9992 |       0.9992 |xxxxxxxxxxxxx |xxxxxxxxxxxxx |xxxxxxxxxxxxx |xxxxxxxxxxxxx |       0.9996 |       0.9996 |       0.9996 |xxxxxxxxxxxxx |xxxxxxxxxxxxx |xxxxxxxxxxxxx |xxxxxxxxxxxxx |       0.9998 |       0.9998 |       0.9998 |xxxxxxxxxxxxx |xxxxxxxxxxxxx |xxxxxxxxxxxxx |xxxxxxxxxxxxx |       0.9999 |       0.9999 |       0.9999 |xxxxxxxxxxxxx |xxxxxxxxxxxxx |xxxxxxxxxxxxx |xxxxxxxxxxxxx |       0.9999 |       0.9999 |       0.9999 |xxxxxxxxxxxxx |xxxxxxxxxxxxx |xxxxxxxxxxxxx |xxxxxxxxxxxxx |       1.0000 |       1.0000 |       1.0000 |
bpred_bimod.bpred_dir_rate                  0.9889 |       0.9893 |       0.9893 |xxxxxxxxxxxxx |xxxxxxxxxxxxx |xxxxxxxxxxxxx |xxxxxxxxxxxxx |       0.9939 |       0.9942 |       0.9942 |xxxxxxxxxxxxx |xxxxxxxxxxxxx |xxxxxxxxxxxxx |xxxxxxxxxxxxx |       0.9969 |       0.9970 |       0.9970 |xxxxxxxxxxxxx |xxxxxxxxxxxxx |xxxxxxxxxxxxx |xxxxxxxxxxxxx |       0.9984 |       0.9985 |       0.9985 |xxxxxxxxxxxxx |xxxxxxxxxxxxx |xxxxxxxxxxxxx |xxxxxxxxxxxxx |       0.9992 |       0.9992 |       0.9992 |xxxxxxxxxxxxx |xxxxxxxxxxxxx |xxxxxxxxxxxxx |xxxxxxxxxxxxx |       0.9996 |       0.9996 |       0.9996 |xxxxxxxxxxxxx |xxxxxxxxxxxxx |xxxxxxxxxxxxx |xxxxxxxxxxxxx |       0.9998 |       0.9998 |       0.9998 |xxxxxxxxxxxxx |xxxxxxxxxxxxx |xxxxxxxxxxxxx |xxxxxxxxxxxxx |       0.9999 |       0.9999 |       0.9999 |xxxxxxxxxxxxx |xxxxxxxxxxxxx |xxxxxxxxxxxxx |xxxxxxxxxxxxx |       0.9999 |       0.9999 |       0.9999 |xxxxxxxxxxxxx |xxxxxxxxxxxxx |xxxxxxxxxxxxx |xxxxxxxxxxxxx |       1.0000 |       1.0000 |       1.0000 |xxxxxxxxxxxxx |xxxxxxxxxxxxx |xxxxxxxxxxxxx |xxxxxxxxxxxxx |       1.0000 |       1.0000 |       1.0000 |
bpred_bimod.bpred_jr_rate                   1.0000 |       1.0000 |       1.0000 |xxxxxxxxxxxxx |xxxxxxxxxxxxx |xxxxxxxxxxxxx |xxxxxxxxxxxxx |       0.9857 |       0.9857 |       0.9857 |xxxxxxxxxxxxx |xxxxxxxxxxxxx |xxxxxxxxxxxxx |xxxxxxxxxxxxx |       0.9857 |       0.9857 |       0.9857 |xxxxxxxxxxxxx |xxxxxxxxxxxxx |xxxxxxxxxxxxx |xxxxxxxxxxxxx |       0.9857 |       0.9857 |       0.9857 |xxxxxxxxxxxxx |xxxxxxxxxxxxx |xxxxxxxxxxxxx |xxxxxxxxxxxxx |       0.9857 |       0.9857 |       0.9857 |xxxxxxxxxxxxx |xxxxxxxxxxxxx |xxxxxxxxxxxxx |xxxxxxxxxxxxx |       0.9857 |       0.9857 |       0.9857 |xxxxxxxxxxxxx |xxxxxxxxxxxxx |xxxxxxxxxxxxx |xxxxxxxxxxxxx |       0.9857 |       0.9857 |       0.9857 |xxxxxxxxxxxxx |xxxxxxxxxxxxx |xxxxxxxxxxxxx |xxxxxxxxxxxxx |       0.9857 |       0.9857 |       0.9857 |xxxxxxxxxxxxx |xxxxxxxxxxxxx |xxxxxxxxxxxxx |xxxxxxxxxxxxx |       0.9863 |       0.9863 |       0.9863 |xxxxxxxxxxxxx |xxxxxxxxxxxxx |xxxxxxxxxxxxx |xxxxxxxxxxxxx |       0.9863 |       0.9863 |       0.9863 |xxxxxxxxxxxxx |xxxxxxxxxxxxx |xxxxxxxxxxxxx |xxxxxxxxxxxxx |       0.9863 |       0.9863 |       0.9863 |
bpred_bimod.bpred_jr_non_ras_rate.PP       <error: |      <error: |      <error: |xxxxxxxxxxxxx |xxxxxxxxxxxxx |xxxxxxxxxxxxx |xxxxxxxxxxxxx |      <error: |      <error: |      <error: |xxxxxxxxxxxxx |xxxxxxxxxxxxx |xxxxxxxxxxxxx |xxxxxxxxxxxxx |      <error: |      <error: |      <error: |xxxxxxxxxxxxx |xxxxxxxxxxxxx |xxxxxxxxxxxxx |xxxxxxxxxxxxx |      <error: |      <error: |      <error: |xxxxxxxxxxxxx |xxxxxxxxxxxxx |xxxxxxxxxxxxx |xxxxxxxxxxxxx |      <error: |      <error: |      <error: |xxxxxxxxxxxxx |xxxxxxxxxxxxx |xxxxxxxxxxxxx |xxxxxxxxxxxxx |      <error: |      <error: |      <error: |xxxxxxxxxxxxx |xxxxxxxxxxxxx |xxxxxxxxxxxxx |xxxxxxxxxxxxx |      <error: |      <error: |      <error: |xxxxxxxxxxxxx |xxxxxxxxxxxxx |xxxxxxxxxxxxx |xxxxxxxxxxxxx |      <error: |      <error: |      <error: |xxxxxxxxxxxxx |xxxxxxxxxxxxx |xxxxxxxxxxxxx |xxxxxxxxxxxxx |       0.0000 |       0.0000 |       0.0000 |xxxxxxxxxxxxx |xxxxxxxxxxxxx |xxxxxxxxxxxxx |xxxxxxxxxxxxx |       0.0000 |       0.0000 |       0.0000 |xxxxxxxxxxxxx |xxxxxxxxxxxxx |xxxxxxxxxxxxx |xxxxxxxxxxxxx |       0.0000 |       0.0000 |       0.0000 |
bpred_bimod.retstack_pushes                     63 |           63 |           63 |xxxxxxxxxxxxx |xxxxxxxxxxxxx |xxxxxxxxxxxxx |xxxxxxxxxxxxx |           72 |           72 |           72 |xxxxxxxxxxxxx |xxxxxxxxxxxxx |xxxxxxxxxxxxx |xxxxxxxxxxxxx |           72 |           72 |           72 |xxxxxxxxxxxxx |xxxxxxxxxxxxx |xxxxxxxxxxxxx |xxxxxxxxxxxxx |           72 |           72 |           72 |xxxxxxxxxxxxx |xxxxxxxxxxxxx |xxxxxxxxxxxxx |xxxxxxxxxxxxx |           72 |           72 |           72 |xxxxxxxxxxxxx |xxxxxxxxxxxxx |xxxxxxxxxxxxx |xxxxxxxxxxxxx |           72 |           72 |           72 |xxxxxxxxxxxxx |xxxxxxxxxxxxx |xxxxxxxxxxxxx |xxxxxxxxxxxxx |           72 |           72 |           72 |xxxxxxxxxxxxx |xxxxxxxxxxxxx |xxxxxxxxxxxxx |xxxxxxxxxxxxx |           72 |           72 |           72 |xxxxxxxxxxxxx |xxxxxxxxxxxxx |xxxxxxxxxxxxx |xxxxxxxxxxxxx |           74 |           74 |           74 |xxxxxxxxxxxxx |xxxxxxxxxxxxx |xxxxxxxxxxxxx |xxxxxxxxxxxxx |           74 |           74 |           74 |xxxxxxxxxxxxx |xxxxxxxxxxxxx |xxxxxxxxxxxxx |xxxxxxxxxxxxx |           74 |           74 |           74 |
bpred_bimod.retstack_pops                       61 |           61 |           61 |xxxxxxxxxxxxx |xxxxxxxxxxxxx |xxxxxxxxxxxxx |xxxxxxxxxxxxx |           70 |           70 |           70 |xxxxxxxxxxxxx |xxxxxxxxxxxxx |xxxxxxxxxxxxx |xxxxxxxxxxxxx |           70 |           70 |           70 |xxxxxxxxxxxxx |xxxxxxxxxxxxx |xxxxxxxxxxxxx |xxxxxxxxxxxxx |           70 |           70 |           70 |xxxxxxxxxxxxx |xxxxxxxxxxxxx |xxxxxxxxxxxxx |xxxxxxxxxxxxx |           70 |           70 |           70 |xxxxxxxxxxxxx |xxxxxxxxxxxxx |xxxxxxxxxxxxx |xxxxxxxxxxxxx |           70 |           70 |           70 |xxxxxxxxxxxxx |xxxxxxxxxxxxx |xxxxxxxxxxxxx |xxxxxxxxxxxxx |           70 |           70 |           70 |xxxxxxxxxxxxx |xxxxxxxxxxxxx |xxxxxxxxxxxxx |xxxxxxxxxxxxx |           70 |           70 |           70 |xxxxxxxxxxxxx |xxxxxxxxxxxxx |xxxxxxxxxxxxx |xxxxxxxxxxxxx |           72 |           72 |           72 |xxxxxxxxxxxxx |xxxxxxxxxxxxx |xxxxxxxxxxxxx |xxxxxxxxxxxxx |           72 |           72 |           72 |xxxxxxxxxxxxx |xxxxxxxxxxxxx |xxxxxxxxxxxxx |xxxxxxxxxxxxx |           72 |           72 |           72 |
bpred_bimod.used_ras.PP                         61 |           61 |           61 |xxxxxxxxxxxxx |xxxxxxxxxxxxx |xxxxxxxxxxxxx |xxxxxxxxxxxxx |           70 |           70 |           70 |xxxxxxxxxxxxx |xxxxxxxxxxxxx |xxxxxxxxxxxxx |xxxxxxxxxxxxx |           70 |           70 |           70 |xxxxxxxxxxxxx |xxxxxxxxxxxxx |xxxxxxxxxxxxx |xxxxxxxxxxxxx |           70 |           70 |           70 |xxxxxxxxxxxxx |xxxxxxxxxxxxx |xxxxxxxxxxxxx |xxxxxxxxxxxxx |           70 |           70 |           70 |xxxxxxxxxxxxx |xxxxxxxxxxxxx |xxxxxxxxxxxxx |xxxxxxxxxxxxx |           70 |           70 |           70 |xxxxxxxxxxxxx |xxxxxxxxxxxxx |xxxxxxxxxxxxx |xxxxxxxxxxxxx |           70 |           70 |           70 |xxxxxxxxxxxxx |xxxxxxxxxxxxx |xxxxxxxxxxxxx |xxxxxxxxxxxxx |           70 |           70 |           70 |xxxxxxxxxxxxx |xxxxxxxxxxxxx |xxxxxxxxxxxxx |xxxxxxxxxxxxx |           72 |           72 |           72 |xxxxxxxxxxxxx |xxxxxxxxxxxxx |xxxxxxxxxxxxx |xxxxxxxxxxxxx |           72 |           72 |           72 |xxxxxxxxxxxxx |xxxxxxxxxxxxx |xxxxxxxxxxxxx |xxxxxxxxxxxxx |           72 |           72 |           72 |
bpred_bimod.ras_hits.PP                         61 |           61 |           61 |xxxxxxxxxxxxx |xxxxxxxxxxxxx |xxxxxxxxxxxxx |xxxxxxxxxxxxx |           69 |           69 |           69 |xxxxxxxxxxxxx |xxxxxxxxxxxxx |xxxxxxxxxxxxx |xxxxxxxxxxxxx |           69 |           69 |           69 |xxxxxxxxxxxxx |xxxxxxxxxxxxx |xxxxxxxxxxxxx |xxxxxxxxxxxxx |           69 |           69 |           69 |xxxxxxxxxxxxx |xxxxxxxxxxxxx |xxxxxxxxxxxxx |xxxxxxxxxxxxx |           69 |           69 |           69 |xxxxxxxxxxxxx |xxxxxxxxxxxxx |xxxxxxxxxxxxx |xxxxxxxxxxxxx |           69 |           69 |           69 |xxxxxxxxxxxxx |xxxxxxxxxxxxx |xxxxxxxxxxxxx |xxxxxxxxxxxxx |           69 |           69 |           69 |xxxxxxxxxxxxx |xxxxxxxxxxxxx |xxxxxxxxxxxxx |xxxxxxxxxxxxx |           69 |           69 |           69 |xxxxxxxxxxxxx |xxxxxxxxxxxxx |xxxxxxxxxxxxx |xxxxxxxxxxxxx |           72 |           72 |           72 |xxxxxxxxxxxxx |xxxxxxxxxxxxx |xxxxxxxxxxxxx |xxxxxxxxxxxxx |           72 |           72 |           72 |xxxxxxxxxxxxx |xxxxxxxxxxxxx |xxxxxxxxxxxxx |xxxxxxxxxxxxx |           72 |           72 |           72 |
bpred_bimod.ras_rate.PP                     1.0000 |       1.0000 |       1.0000 |xxxxxxxxxxxxx |xxxxxxxxxxxxx |xxxxxxxxxxxxx |xxxxxxxxxxxxx |       0.9857 |       0.9857 |       0.9857 |xxxxxxxxxxxxx |xxxxxxxxxxxxx |xxxxxxxxxxxxx |xxxxxxxxxxxxx |       0.9857 |       0.9857 |       0.9857 |xxxxxxxxxxxxx |xxxxxxxxxxxxx |xxxxxxxxxxxxx |xxxxxxxxxxxxx |       0.9857 |       0.9857 |       0.9857 |xxxxxxxxxxxxx |xxxxxxxxxxxxx |xxxxxxxxxxxxx |xxxxxxxxxxxxx |       0.9857 |       0.9857 |       0.9857 |xxxxxxxxxxxxx |xxxxxxxxxxxxx |xxxxxxxxxxxxx |xxxxxxxxxxxxx |       0.9857 |       0.9857 |       0.9857 |xxxxxxxxxxxxx |xxxxxxxxxxxxx |xxxxxxxxxxxxx |xxxxxxxxxxxxx |       0.9857 |       0.9857 |       0.9857 |xxxxxxxxxxxxx |xxxxxxxxxxxxx |xxxxxxxxxxxxx |xxxxxxxxxxxxx |       0.9857 |       0.9857 |       0.9857 |xxxxxxxxxxxxx |xxxxxxxxxxxxx |xxxxxxxxxxxxx |xxxxxxxxxxxxx |       1.0000 |       1.0000 |       1.0000 |xxxxxxxxxxxxx |xxxxxxxxxxxxx |xxxxxxxxxxxxx |xxxxxxxxxxxxx |       1.0000 |       1.0000 |       1.0000 |xxxxxxxxxxxxx |xxxxxxxxxxxxx |xxxxxxxxxxxxx |xxxxxxxxxxxxx |       1.0000 |       1.0000 |       1.0000 |
bpred_2lev.lookups                   xxxxxxxxxxxxx |xxxxxxxxxxxxx |xxxxxxxxxxxxx |         9241 |         9241 |         9241 |         9241 |xxxxxxxxxxxxx |xxxxxxxxxxxxx |xxxxxxxxxxxxx |        17473 |        17473 |        17473 |        17473 |xxxxxxxxxxxxx |xxxxxxxxxxxxx |xxxxxxxxxxxxx |        33857 |        33857 |        33857 |        33857 |xxxxxxxxxxxxx |xxxxxxxxxxxxx |xxxxxxxxxxxxx |        66625 |        66625 |        66625 |        66625 |xxxxxxxxxxxxx |xxxxxxxxxxxxx |xxxxxxxxxxxxx |       132161 |       132161 |       132161 |       132161 |xxxxxxxxxxxxx |xxxxxxxxxxxxx |xxxxxxxxxxxxx |       263233 |       263233 |       263233 |       263233 |xxxxxxxxxxxxx |xxxxxxxxxxxxx |xxxxxxxxxxxxx |       525377 |       525377 |       525377 |       525377 |xxxxxxxxxxxxx |xxxxxxxxxxxxx |xxxxxxxxxxxxx |      1049665 |      1049665 |      1049665 |      1049665 |xxxxxxxxxxxxx |xxxxxxxxxxxxx |xxxxxxxxxxxxx |      2099034 |      2099034 |      2099034 |      2099034 |xxxxxxxxxxxxx |xxxxxxxxxxxxx |xxxxxxxxxxxxx |      4196957 |      4196957 |      4196957 |      4196957 |xxxxxxxxxxxxx |xxxxxxxxxxxxx |xxxxxxxxxxxxx |      8392800 |      8392800 |      8392800 |      8392800 |
[...]
bpred_2lev.retstack_pushes           xxxxxxxxxxxxx |xxxxxxxxxxxxx |xxxxxxxxxxxxx |           63 |           63 |           63 |           63 |xxxxxxxxxxxxx |xxxxxxxxxxxxx |xxxxxxxxxxxxx |           72 |           72 |           72 |           72 |xxxxxxxxxxxxx |xxxxxxxxxxxxx |xxxxxxxxxxxxx |           72 |           72 |           72 |           72 |xxxxxxxxxxxxx |xxxxxxxxxxxxx |xxxxxxxxxxxxx |           72 |           72 |           72 |           72 |xxxxxxxxxxxxx |xxxxxxxxxxxxx |xxxxxxxxxxxxx |           72 |           72 |           72 |           72 |xxxxxxxxxxxxx |xxxxxxxxxxxxx |xxxxxxxxxxxxx |           72 |           72 |           72 |           72 |xxxxxxxxxxxxx |xxxxxxxxxxxxx |xxxxxxxxxxxxx |           72 |           72 |           72 |           72 |xxxxxxxxxxxxx |xxxxxxxxxxxxx |xxxxxxxxxxxxx |           72 |           72 |           72 |           72 |xxxxxxxxxxxxx |xxxxxxxxxxxxx |xxxxxxxxxxxxx |           74 |           74 |           74 |           74 |xxxxxxxxxxxxx |xxxxxxxxxxxxx |xxxxxxxxxxxxx |           74 |           74 |           74 |           74 |xxxxxxxxxxxxx |xxxxxxxxxxxxx |xxxxxxxxxxxxx |           74 |           74 |           74 |           74 |
bpred_2lev.retstack_pops             xxxxxxxxxxxxx |xxxxxxxxxxxxx |xxxxxxxxxxxxx |           61 |           61 |           61 |           61 |xxxxxxxxxxxxx |xxxxxxxxxxxxx |xxxxxxxxxxxxx |           70 |           70 |           70 |           70 |xxxxxxxxxxxxx |xxxxxxxxxxxxx |xxxxxxxxxxxxx |           70 |           70 |           70 |           70 |xxxxxxxxxxxxx |xxxxxxxxxxxxx |xxxxxxxxxxxxx |           70 |           70 |           70 |           70 |xxxxxxxxxxxxx |xxxxxxxxxxxxx |xxxxxxxxxxxxx |           70 |           70 |           70 |           70 |xxxxxxxxxxxxx |xxxxxxxxxxxxx |xxxxxxxxxxxxx |           70 |           70 |           70 |           70 |xxxxxxxxxxxxx |xxxxxxxxxxxxx |xxxxxxxxxxxxx |           70 |           70 |           70 |           70 |xxxxxxxxxxxxx |xxxxxxxxxxxxx |xxxxxxxxxxxxx |           70 |           70 |           70 |           70 |xxxxxxxxxxxxx |xxxxxxxxxxxxx |xxxxxxxxxxxxx |           72 |           72 |           72 |           72 |xxxxxxxxxxxxx |xxxxxxxxxxxxx |xxxxxxxxxxxxx |           72 |           72 |           72 |           72 |xxxxxxxxxxxxx |xxxxxxxxxxxxx |xxxxxxxxxxxxx |           72 |           72 |           72 |           72 |
bpred_2lev.used_ras.PP               xxxxxxxxxxxxx |xxxxxxxxxxxxx |xxxxxxxxxxxxx |           61 |           61 |           61 |           61 |xxxxxxxxxxxxx |xxxxxxxxxxxxx |xxxxxxxxxxxxx |           70 |           70 |           70 |           70 |xxxxxxxxxxxxx |xxxxxxxxxxxxx |xxxxxxxxxxxxx |           70 |           70 |           70 |           70 |xxxxxxxxxxxxx |xxxxxxxxxxxxx |xxxxxxxxxxxxx |           70 |           70 |           70 |           70 |xxxxxxxxxxxxx |xxxxxxxxxxxxx |xxxxxxxxxxxxx |           70 |           70 |           70 |           70 |xxxxxxxxxxxxx |xxxxxxxxxxxxx |xxxxxxxxxxxxx |           70 |           70 |           70 |           70 |xxxxxxxxxxxxx |xxxxxxxxxxxxx |xxxxxxxxxxxxx |           70 |           70 |           70 |           70 |xxxxxxxxxxxxx |xxxxxxxxxxxxx |xxxxxxxxxxxxx |           70 |           70 |           70 |           70 |xxxxxxxxxxxxx |xxxxxxxxxxxxx |xxxxxxxxxxxxx |           72 |           72 |           72 |           72 |xxxxxxxxxxxxx |xxxxxxxxxxxxx |xxxxxxxxxxxxx |           72 |           72 |           72 |           72 |xxxxxxxxxxxxx |xxxxxxxxxxxxx |xxxxxxxxxxxxx |           72 |           72 |           72 |           72 |
bpred_2lev.ras_hits.PP               xxxxxxxxxxxxx |xxxxxxxxxxxxx |xxxxxxxxxxxxx |           61 |           61 |           61 |           61 |xxxxxxxxxxxxx |xxxxxxxxxxxxx |xxxxxxxxxxxxx |           69 |           69 |           69 |           69 |xxxxxxxxxxxxx |xxxxxxxxxxxxx |xxxxxxxxxxxxx |           69 |           69 |           69 |           69 |xxxxxxxxxxxxx |xxxxxxxxxxxxx |xxxxxxxxxxxxx |           69 |           69 |           69 |           69 |xxxxxxxxxxxxx |xxxxxxxxxxxxx |xxxxxxxxxxxxx |           69 |           69 |           69 |           69 |xxxxxxxxxxxxx |xxxxxxxxxxxxx |xxxxxxxxxxxxx |           69 |           69 |           69 |           69 |xxxxxxxxxxxxx |xxxxxxxxxxxxx |xxxxxxxxxxxxx |           69 |           69 |           69 |           69 |xxxxxxxxxxxxx |xxxxxxxxxxxxx |xxxxxxxxxxxxx |           69 |           69 |           69 |           69 |xxxxxxxxxxxxx |xxxxxxxxxxxxx |xxxxxxxxxxxxx |           72 |           72 |           72 |           72 |xxxxxxxxxxxxx |xxxxxxxxxxxxx |xxxxxxxxxxxxx |           72 |           72 |           72 |           72 |xxxxxxxxxxxxx |xxxxxxxxxxxxx |xxxxxxxxxxxxx |           72 |           72 |           72 |           72 |
bpred_2lev.ras_rate.PP               xxxxxxxxxxxxx |xxxxxxxxxxxxx |xxxxxxxxxxxxx |       1.0000 |       1.0000 |       1.0000 |       1.0000 |xxxxxxxxxxxxx |xxxxxxxxxxxxx |xxxxxxxxxxxxx |       0.9857 |       0.9857 |       0.9857 |       0.9857 |xxxxxxxxxxxxx |xxxxxxxxxxxxx |xxxxxxxxxxxxx |       0.9857 |       0.9857 |       0.9857 |       0.9857 |xxxxxxxxxxxxx |xxxxxxxxxxxxx |xxxxxxxxxxxxx |       0.9857 |       0.9857 |       0.9857 |       0.9857 |xxxxxxxxxxxxx |xxxxxxxxxxxxx |xxxxxxxxxxxxx |       0.9857 |       0.9857 |       0.9857 |       0.9857 |xxxxxxxxxxxxx |xxxxxxxxxxxxx |xxxxxxxxxxxxx |       0.9857 |       0.9857 |       0.9857 |       0.9857 |xxxxxxxxxxxxx |xxxxxxxxxxxxx |xxxxxxxxxxxxx |       0.9857 |       0.9857 |       0.9857 |       0.9857 |xxxxxxxxxxxxx |xxxxxxxxxxxxx |xxxxxxxxxxxxx |       0.9857 |       0.9857 |       0.9857 |       0.9857 |xxxxxxxxxxxxx |xxxxxxxxxxxxx |xxxxxxxxxxxxx |       1.0000 |       1.0000 |       1.0000 |       1.0000 |xxxxxxxxxxxxx |xxxxxxxxxxxxx |xxxxxxxxxxxxx |       1.0000 |       1.0000 |       1.0000 |       1.0000 |xxxxxxxxxxxxx |xxxxxxxxxxxxx |xxxxxxxxxxxxx |       1.0000 |       1.0000 |       1.0000 |       1.0000 |

Command list: 
	sslittle-na-sstrix-gcc -Wall -O3 -funroll-loops -finline-functions  -DRANDOM_SIZE=4096 -DOFFSET=2 -DSORT=cache_radixsort sorts/cache_radixsort1019650159.c simpleMain.c -o cache_radixsort1792111405
	sim-cache -cache:dl1 dl1:256:32:1:l -cache:dl2 dl2:131072:32:1:l -cache:il1 il1:256:32:1:l -cache:il2 dl2 cache_radixsort1792111405
	sim-cache -cache:dl1 dl1:256:32:1:l -cache:dl2 dl2:65536:32:1:l -cache:il1 il1:256:32:1:l -cache:il2 dl2 cache_radixsort1792111405
	sim-cache -cache:dl1 dl1:1:32:256:l -cache:dl2 dl2:1:32:131072:l -cache:il1 il1:1:32:256:l -cache:il2 dl2 cache_radixsort1792111405
	sim-cache -cache:dl1 dl1:1:32:256:l -cache:dl2 dl2:1:32:65536:l -cache:il1 il1:1:32:256:l -cache:il2 dl2 cache_radixsort1792111405
	sim-bpred -bpred bimod -bpred:bimod 512 cache_radixsort1792111405
	sim-bpred -bpred bimod -bpred:bimod 1024 cache_radixsort1792111405
	sim-bpred -bpred bimod -bpred:bimod 2048 cache_radixsort1792111405
	sim-bpred -bpred 2lev -bpred:2lev 1 512 10 1 cache_radixsort1792111405
	sim-bpred -bpred 2lev -bpred:2lev 1 1024 10 1 cache_radixsort1792111405
	sim-bpred -bpred 2lev -bpred:2lev 1 2048 10 1 cache_radixsort1792111405
	sim-bpred -bpred 2lev -bpred:2lev 1 4096 10 1 cache_radixsort1792111405
	sslittle-na-sstrix-gcc -Wall -O3 -funroll-loops -finline-functions  -DRANDOM_SIZE=8192 -DOFFSET=2 -DSORT=cache_radixsort sorts/cache_radixsort1019650159.c simpleMain.c -o cache_radixsort1792111405
	sim-cache -cache:dl1 dl1:256:32:1:l -cache:dl2 dl2:131072:32:1:l -cache:il1 il1:256:32:1:l -cache:il2 dl2 cache_radixsort1792111405
	sim-cache -cache:dl1 dl1:256:32:1:l -cache:dl2 dl2:65536:32:1:l -cache:il1 il1:256:32:1:l -cache:il2 dl2 cache_radixsort1792111405
	sim-cache -cache:dl1 dl1:1:32:256:l -cache:dl2 dl2:1:32:131072:l -cache:il1 il1:1:32:256:l -cache:il2 dl2 cache_radixsort1792111405
	sim-cache -cache:dl1 dl1:1:32:256:l -cache:dl2 dl2:1:32:65536:l -cache:il1 il1:1:32:256:l -cache:il2 dl2 cache_radixsort1792111405
	sim-bpred -bpred bimod -bpred:bimod 512 cache_radixsort1792111405
	sim-bpred -bpred bimod -bpred:bimod 1024 cache_radixsort1792111405
	sim-bpred -bpred bimod -bpred:bimod 2048 cache_radixsort1792111405
	sim-bpred -bpred 2lev -bpred:2lev 1 512 10 1 cache_radixsort1792111405
	sim-bpred -bpred 2lev -bpred:2lev 1 1024 10 1 cache_radixsort1792111405
	sim-bpred -bpred 2lev -bpred:2lev 1 2048 10 1 cache_radixsort1792111405
	sim-bpred -bpred 2lev -bpred:2lev 1 4096 10 1 cache_radixsort1792111405
	sslittle-na-sstrix-gcc -Wall -O3 -funroll-loops -finline-functions  -DRANDOM_SIZE=16384 -DOFFSET=2 -DSORT=cache_radixsort sorts/cache_radixsort1019650159.c simpleMain.c -o cache_radixsort1792111405
	sim-cache -cache:dl1 dl1:256:32:1:l -cache:dl2 dl2:131072:32:1:l -cache:il1 il1:256:32:1:l -cache:il2 dl2 cache_radixsort1792111405
	sim-cache -cache:dl1 dl1:256:32:1:l -cache:dl2 dl2:65536:32:1:l -cache:il1 il1:256:32:1:l -cache:il2 dl2 cache_radixsort1792111405
	sim-cache -cache:dl1 dl1:1:32:256:l -cache:dl2 dl2:1:32:131072:l -cache:il1 il1:1:32:256:l -cache:il2 dl2 cache_radixsort1792111405
	sim-cache -cache:dl1 dl1:1:32:256:l -cache:dl2 dl2:1:32:65536:l -cache:il1 il1:1:32:256:l -cache:il2 dl2 cache_radixsort1792111405
	sim-bpred -bpred bimod -bpred:bimod 512 cache_radixsort1792111405
	sim-bpred -bpred bimod -bpred:bimod 1024 cache_radixsort1792111405
	sim-bpred -bpred bimod -bpred:bimod 2048 cache_radixsort1792111405
	sim-bpred -bpred 2lev -bpred:2lev 1 512 10 1 cache_radixsort1792111405
	sim-bpred -bpred 2lev -bpred:2lev 1 1024 10 1 cache_radixsort1792111405
	sim-bpred -bpred 2lev -bpred:2lev 1 2048 10 1 cache_radixsort1792111405
	sim-bpred -bpred 2lev -bpred:2lev 1 4096 10 1 cache_radixsort1792111405
	sslittle-na-sstrix-gcc -Wall -O3 -funroll-loops -finline-functions  -DRANDOM_SIZE=32768 -DOFFSET=2 -DSORT=cache_radixsort sorts/cache_radixsort1019650159.c simpleMain.c -o cache_radixsort1792111405
	sim-cache -cache:dl1 dl1:256:32:1:l -cache:dl2 dl2:131072:32:1:l -cache:il1 il1:256:32:1:l -cache:il2 dl2 cache_radixsort1792111405
	sim-cache -cache:dl1 dl1:256:32:1:l -cache:dl2 dl2:65536:32:1:l -cache:il1 il1:256:32:1:l -cache:il2 dl2 cache_radixsort1792111405
	sim-cache -cache:dl1 dl1:1:32:256:l -cache:dl2 dl2:1:32:131072:l -cache:il1 il1:1:32:256:l -cache:il2 dl2 cache_radixsort1792111405
	sim-cache -cache:dl1 dl1:1:32:256:l -cache:dl2 dl2:1:32:65536:l -cache:il1 il1:1:32:256:l -cache:il2 dl2 cache_radixsort1792111405
	sim-bpred -bpred bimod -bpred:bimod 512 cache_radixsort1792111405
	sim-bpred -bpred bimod -bpred:bimod 1024 cache_radixsort1792111405
	sim-bpred -bpred bimod -bpred:bimod 2048 cache_radixsort1792111405
	sim-bpred -bpred 2lev -bpred:2lev 1 512 10 1 cache_radixsort1792111405
	sim-bpred -bpred 2lev -bpred:2lev 1 1024 10 1 cache_radixsort1792111405
	sim-bpred -bpred 2lev -bpred:2lev 1 2048 10 1 cache_radixsort1792111405
	sim-bpred -bpred 2lev -bpred:2lev 1 4096 10 1 cache_radixsort1792111405
	sslittle-na-sstrix-gcc -Wall -O3 -funroll-loops -finline-functions  -DRANDOM_SIZE=65536 -DOFFSET=2 -DSORT=cache_radixsort sorts/cache_radixsort1019650159.c simpleMain.c -o cache_radixsort1792111405
	sim-cache -cache:dl1 dl1:256:32:1:l -cache:dl2 dl2:131072:32:1:l -cache:il1 il1:256:32:1:l -cache:il2 dl2 cache_radixsort1792111405
	sim-cache -cache:dl1 dl1:256:32:1:l -cache:dl2 dl2:65536:32:1:l -cache:il1 il1:256:32:1:l -cache:il2 dl2 cache_radixsort1792111405
	sim-cache -cache:dl1 dl1:1:32:256:l -cache:dl2 dl2:1:32:131072:l -cache:il1 il1:1:32:256:l -cache:il2 dl2 cache_radixsort1792111405
	sim-cache -cache:dl1 dl1:1:32:256:l -cache:dl2 dl2:1:32:65536:l -cache:il1 il1:1:32:256:l -cache:il2 dl2 cache_radixsort1792111405
	sim-bpred -bpred bimod -bpred:bimod 512 cache_radixsort1792111405
	sim-bpred -bpred bimod -bpred:bimod 1024 cache_radixsort1792111405
	sim-bpred -bpred bimod -bpred:bimod 2048 cache_radixsort1792111405
	sim-bpred -bpred 2lev -bpred:2lev 1 512 10 1 cache_radixsort1792111405
	sim-bpred -bpred 2lev -bpred:2lev 1 1024 10 1 cache_radixsort1792111405
	sim-bpred -bpred 2lev -bpred:2lev 1 2048 10 1 cache_radixsort1792111405
	sim-bpred -bpred 2lev -bpred:2lev 1 4096 10 1 cache_radixsort1792111405
	sslittle-na-sstrix-gcc -Wall -O3 -funroll-loops -finline-functions  -DRANDOM_SIZE=131072 -DOFFSET=2 -DSORT=cache_radixsort sorts/cache_radixsort1019650159.c simpleMain.c -o cache_radixsort1792111405
	sim-cache -cache:dl1 dl1:256:32:1:l -cache:dl2 dl2:131072:32:1:l -cache:il1 il1:256:32:1:l -cache:il2 dl2 cache_radixsort1792111405
	sim-cache -cache:dl1 dl1:256:32:1:l -cache:dl2 dl2:65536:32:1:l -cache:il1 il1:256:32:1:l -cache:il2 dl2 cache_radixsort1792111405
	sim-cache -cache:dl1 dl1:1:32:256:l -cache:dl2 dl2:1:32:131072:l -cache:il1 il1:1:32:256:l -cache:il2 dl2 cache_radixsort1792111405
	sim-cache -cache:dl1 dl1:1:32:256:l -cache:dl2 dl2:1:32:65536:l -cache:il1 il1:1:32:256:l -cache:il2 dl2 cache_radixsort1792111405
	sim-bpred -bpred bimod -bpred:bimod 512 cache_radixsort1792111405
	sim-bpred -bpred bimod -bpred:bimod 1024 cache_radixsort1792111405
	sim-bpred -bpred bimod -bpred:bimod 2048 cache_radixsort1792111405
	sim-bpred -bpred 2lev -bpred:2lev 1 512 10 1 cache_radixsort1792111405
	sim-bpred -bpred 2lev -bpred:2lev 1 1024 10 1 cache_radixsort1792111405
	sim-bpred -bpred 2lev -bpred:2lev 1 2048 10 1 cache_radixsort1792111405
	sim-bpred -bpred 2lev -bpred:2lev 1 4096 10 1 cache_radixsort1792111405
	sslittle-na-sstrix-gcc -Wall -O3 -funroll-loops -finline-functions  -DRANDOM_SIZE=262144 -DOFFSET=2 -DSORT=cache_radixsort sorts/cache_radixsort1019650159.c simpleMain.c -o cache_radixsort1792111405
	sim-cache -cache:dl1 dl1:256:32:1:l -cache:dl2 dl2:131072:32:1:l -cache:il1 il1:256:32:1:l -cache:il2 dl2 cache_radixsort1792111405
	sim-cache -cache:dl1 dl1:256:32:1:l -cache:dl2 dl2:65536:32:1:l -cache:il1 il1:256:32:1:l -cache:il2 dl2 cache_radixsort1792111405
	sim-cache -cache:dl1 dl1:1:32:256:l -cache:dl2 dl2:1:32:131072:l -cache:il1 il1:1:32:256:l -cache:il2 dl2 cache_radixsort1792111405
	sim-cache -cache:dl1 dl1:1:32:256:l -cache:dl2 dl2:1:32:65536:l -cache:il1 il1:1:32:256:l -cache:il2 dl2 cache_radixsort1792111405
	sim-bpred -bpred bimod -bpred:bimod 512 cache_radixsort1792111405
	sim-bpred -bpred bimod -bpred:bimod 1024 cache_radixsort1792111405
	sim-bpred -bpred bimod -bpred:bimod 2048 cache_radixsort1792111405
	sim-bpred -bpred 2lev -bpred:2lev 1 512 10 1 cache_radixsort1792111405
	sim-bpred -bpred 2lev -bpred:2lev 1 1024 10 1 cache_radixsort1792111405
	sim-bpred -bpred 2lev -bpred:2lev 1 2048 10 1 cache_radixsort1792111405
	sim-bpred -bpred 2lev -bpred:2lev 1 4096 10 1 cache_radixsort1792111405
	sslittle-na-sstrix-gcc -Wall -O3 -funroll-loops -finline-functions  -DRANDOM_SIZE=524288 -DOFFSET=2 -DSORT=cache_radixsort sorts/cache_radixsort1019650159.c simpleMain.c -o cache_radixsort1792111405
	sim-cache -cache:dl1 dl1:256:32:1:l -cache:dl2 dl2:131072:32:1:l -cache:il1 il1:256:32:1:l -cache:il2 dl2 cache_radixsort1792111405
	sim-cache -cache:dl1 dl1:256:32:1:l -cache:dl2 dl2:65536:32:1:l -cache:il1 il1:256:32:1:l -cache:il2 dl2 cache_radixsort1792111405
	sim-cache -cache:dl1 dl1:1:32:256:l -cache:dl2 dl2:1:32:131072:l -cache:il1 il1:1:32:256:l -cache:il2 dl2 cache_radixsort1792111405
	sim-cache -cache:dl1 dl1:1:32:256:l -cache:dl2 dl2:1:32:65536:l -cache:il1 il1:1:32:256:l -cache:il2 dl2 cache_radixsort1792111405
	sim-bpred -bpred bimod -bpred:bimod 512 cache_radixsort1792111405
	sim-bpred -bpred bimod -bpred:bimod 1024 cache_radixsort1792111405
	sim-bpred -bpred bimod -bpred:bimod 2048 cache_radixsort1792111405
	sim-bpred -bpred 2lev -bpred:2lev 1 512 10 1 cache_radixsort1792111405
	sim-bpred -bpred 2lev -bpred:2lev 1 1024 10 1 cache_radixsort1792111405
	sim-bpred -bpred 2lev -bpred:2lev 1 2048 10 1 cache_radixsort1792111405
	sim-bpred -bpred 2lev -bpred:2lev 1 4096 10 1 cache_radixsort1792111405
	sslittle-na-sstrix-gcc -Wall -O3 -funroll-loops -finline-functions  -DRANDOM_SIZE=1048576 -DOFFSET=2 -DSORT=cache_radixsort sorts/cache_radixsort1019650159.c simpleMain.c -o cache_radixsort1792111405
	sim-cache -cache:dl1 dl1:256:32:1:l -cache:dl2 dl2:131072:32:1:l -cache:il1 il1:256:32:1:l -cache:il2 dl2 cache_radixsort1792111405
	sim-cache -cache:dl1 dl1:256:32:1:l -cache:dl2 dl2:65536:32:1:l -cache:il1 il1:256:32:1:l -cache:il2 dl2 cache_radixsort1792111405
	sim-cache -cache:dl1 dl1:1:32:256:l -cache:dl2 dl2:1:32:131072:l -cache:il1 il1:1:32:256:l -cache:il2 dl2 cache_radixsort1792111405
	sim-cache -cache:dl1 dl1:1:32:256:l -cache:dl2 dl2:1:32:65536:l -cache:il1 il1:1:32:256:l -cache:il2 dl2 cache_radixsort1792111405
	sim-bpred -bpred bimod -bpred:bimod 512 cache_radixsort1792111405
	sim-bpred -bpred bimod -bpred:bimod 1024 cache_radixsort1792111405
	sim-bpred -bpred bimod -bpred:bimod 2048 cache_radixsort1792111405
	sim-bpred -bpred 2lev -bpred:2lev 1 512 10 1 cache_radixsort1792111405
	sim-bpred -bpred 2lev -bpred:2lev 1 1024 10 1 cache_radixsort1792111405
	sim-bpred -bpred 2lev -bpred:2lev 1 2048 10 1 cache_radixsort1792111405
	sim-bpred -bpred 2lev -bpred:2lev 1 4096 10 1 cache_radixsort1792111405
	sslittle-na-sstrix-gcc -Wall -O3 -funroll-loops -finline-functions  -DRANDOM_SIZE=2097152 -DOFFSET=2 -DSORT=cache_radixsort sorts/cache_radixsort1019650159.c simpleMain.c -o cache_radixsort1792111405
	sim-cache -cache:dl1 dl1:256:32:1:l -cache:dl2 dl2:131072:32:1:l -cache:il1 il1:256:32:1:l -cache:il2 dl2 cache_radixsort1792111405
	sim-cache -cache:dl1 dl1:256:32:1:l -cache:dl2 dl2:65536:32:1:l -cache:il1 il1:256:32:1:l -cache:il2 dl2 cache_radixsort1792111405
	sim-cache -cache:dl1 dl1:1:32:256:l -cache:dl2 dl2:1:32:131072:l -cache:il1 il1:1:32:256:l -cache:il2 dl2 cache_radixsort1792111405
	sim-cache -cache:dl1 dl1:1:32:256:l -cache:dl2 dl2:1:32:65536:l -cache:il1 il1:1:32:256:l -cache:il2 dl2 cache_radixsort1792111405
	sim-bpred -bpred bimod -bpred:bimod 512 cache_radixsort1792111405
	sim-bpred -bpred bimod -bpred:bimod 1024 cache_radixsort1792111405
	sim-bpred -bpred bimod -bpred:bimod 2048 cache_radixsort1792111405
	sim-bpred -bpred 2lev -bpred:2lev 1 512 10 1 cache_radixsort1792111405
	sim-bpred -bpred 2lev -bpred:2lev 1 1024 10 1 cache_radixsort1792111405
	sim-bpred -bpred 2lev -bpred:2lev 1 2048 10 1 cache_radixsort1792111405
	sim-bpred -bpred 2lev -bpred:2lev 1 4096 10 1 cache_radixsort1792111405
	sslittle-na-sstrix-gcc -Wall -O3 -funroll-loops -finline-functions  -DRANDOM_SIZE=4194304 -DOFFSET=2 -DSORT=cache_radixsort sorts/cache_radixsort1019650159.c simpleMain.c -o cache_radixsort1792111405
	sim-cache -cache:dl1 dl1:256:32:1:l -cache:dl2 dl2:131072:32:1:l -cache:il1 il1:256:32:1:l -cache:il2 dl2 cache_radixsort1792111405
	sim-cache -cache:dl1 dl1:256:32:1:l -cache:dl2 dl2:65536:32:1:l -cache:il1 il1:256:32:1:l -cache:il2 dl2 cache_radixsort1792111405
	sim-cache -cache:dl1 dl1:1:32:256:l -cache:dl2 dl2:1:32:131072:l -cache:il1 il1:1:32:256:l -cache:il2 dl2 cache_radixsort1792111405
	sim-cache -cache:dl1 dl1:1:32:256:l -cache:dl2 dl2:1:32:65536:l -cache:il1 il1:1:32:256:l -cache:il2 dl2 cache_radixsort1792111405
	sim-bpred -bpred bimod -bpred:bimod 512 cache_radixsort1792111405
	sim-bpred -bpred bimod -bpred:bimod 1024 cache_radixsort1792111405
	sim-bpred -bpred bimod -bpred:bimod 2048 cache_radixsort1792111405
	sim-bpred -bpred 2lev -bpred:2lev 1 512 10 1 cache_radixsort1792111405
	sim-bpred -bpred 2lev -bpred:2lev 1 1024 10 1 cache_radixsort1792111405
	sim-bpred -bpred 2lev -bpred:2lev 1 2048 10 1 cache_radixsort1792111405
	sim-bpred -bpred 2lev -bpred:2lev 1 4096 10 1 cache_radixsort1792111405
