Thu Jun 23 19:11:47 2005
Run as: "./do_simple -c 16_byte_cache_line_random.org1 -o 1 -L 16 cache4_heapsort"
-------------------------------------------------------------------------------------------------
sim-cache                                     4096 |         4096 |         4096 |         4096 |         8192 |         8192 |         8192 |         8192 |        16384 |        16384 |        16384 |        16384 |        32768 |        32768 |        32768 |        32768 |        65536 |        65536 |        65536 |        65536 |       131072 |       131072 |       131072 |       131072 |       262144 |       262144 |       262144 |       262144 |       524288 |       524288 |       524288 |       524288 |      1048576 |      1048576 |      1048576 |      1048576 |      2097152 |      2097152 |      2097152 |      2097152 |      4194304 |      4194304 |      4194304 |      4194304 |
-cache:dl1 dl1:512:16:1:l -cache:dl2 dl2:262144:16:1:l -cache:il1 il1:512:16:1:l -cache:il2 dl2
-cache:dl1 dl1:512:16:1:l -cache:dl2 dl2:131072:16:1:l -cache:il1 il1:512:16:1:l -cache:il2 dl2
-cache:dl1 dl1:1:16:512:l -cache:dl2 dl2:1:16:262144:l -cache:il1 il1:1:16:512:l -cache:il2 dl2
-cache:dl1 dl1:1:16:512:l -cache:dl2 dl2:1:16:131072:l -cache:il1 il1:1:16:512:l -cache:il2 dl2
-------------------------------------------------------------------------------------------------
sim_num_insn                                870752 |       870752 |       870752 |       870752 |      1865938 |      1865938 |      1865938 |      1865938 |      4003596 |      4003596 |      4003596 |      4003596 |      8536499 |      8536499 |      8536499 |      8536499 |     18156939 |     18156939 |     18156939 |     18156939 |     38437821 |     38437821 |     38437821 |     38437821 |     81284195 |     81284195 |     81284195 |     81284195 |    171092973 |    171092973 |    171092973 |    171092973 |    359783211 |    359783211 |    359783211 |    359783211 |    753694240 |    753694240 |    753694240 |    753694240 |   1577797321 |   1577797321 |   1577797321 |   1577797321 |
sim_num_refs                                218077 |       218077 |       218077 |       218077 |       464189 |       464189 |       464189 |       464189 |       991546 |       991546 |       991546 |       991546 |      2108959 |      2108959 |      2108959 |      2108959 |      4477416 |      4477416 |      4477416 |      4477416 |      9467473 |      9467473 |      9467473 |      9467473 |     19995936 |     19995936 |     19995936 |     19995936 |     42055776 |     42055776 |     42055776 |     42055776 |     88364052 |     88364052 |     88364052 |     88364052 |    184993070 |    184993070 |    184993070 |    184993070 |    386971581 |    386971581 |    386971581 |    386971581 |
sim_elapsed_time                                 1 |            1 |           35 |           18 |            1 |            1 |           56 |           27 |            1 |            2 |           94 |           47 |            3 |            2 |          172 |           84 |            5 |            5 |          319 |          151 |           10 |           10 |          583 |          255 |           22 |           21 |          991 |          346 |           47 |           45 |         1334 |          374 |           97 |           96 |         1396 |          437 |          205 |          204 |         1527 |          569 |          431 |          431 |         1808 |          860 |
sim_inst_rate                          870752.0000 |  870752.0000 |   24878.6286 |   48375.1111 | 1865938.0000 | 1865938.0000 |   33320.3214 |   69108.8148 | 4003596.0000 | 2001798.0000 |   42591.4468 |   85182.8936 | 2845499.6667 | 4268249.5000 |   49630.8081 |  101624.9881 | 3631387.8000 | 3631387.8000 |   56918.3041 |  120244.6291 | 3843782.1000 | 3843782.1000 |   65931.0823 |  150736.5529 | 3694736.1364 | 3870675.9524 |   82022.3966 |  234925.4191 | 3640276.0213 | 3802066.0667 |  128255.6019 |  457467.8422 | 3709105.2680 | 3747741.7812 |  257724.3632 |  823302.5423 | 3676557.2683 | 3694579.6078 |  493578.4152 | 1324594.4464 | 3660782.6473 | 3660782.6473 |  872675.5094 | 1834648.0477 |
il1.accesses                                870752 |       870752 |       870752 |       870752 |      1865938 |      1865938 |      1865938 |      1865938 |      4003596 |      4003596 |      4003596 |      4003596 |      8536499 |      8536499 |      8536499 |      8536499 |     18156939 |     18156939 |     18156939 |     18156939 |     38437821 |     38437821 |     38437821 |     38437821 |     81284195 |     81284195 |     81284195 |     81284195 |    171092973 |    171092973 |    171092973 |    171092973 |    359783211 |    359783211 |    359783211 |    359783211 |    753694240 |    753694240 |    753694240 |    753694240 |   1577797321 |   1577797321 |   1577797321 |   1577797321 |
il1.hits                                    869828 |       869828 |       869982 |       869982 |      1864960 |      1864960 |      1865179 |      1865179 |      4002616 |      4002616 |      4002836 |      4002836 |      8535520 |      8535520 |      8535737 |      8535737 |     18155960 |     18155960 |     18156177 |     18156177 |     38436842 |     38436842 |     38437060 |     38437060 |     81283216 |     81283216 |     81283434 |     81283434 |    171091994 |    171091994 |    171092212 |    171092212 |    359782159 |    359782159 |    359782326 |    359782326 |    753693188 |    753693188 |    753693355 |    753693355 |   1577796269 |   1577796269 |   1577796436 |   1577796436 |
il1.misses                                     924 |          924 |          770 |          770 |          978 |          978 |          759 |          759 |          980 |          980 |          760 |          760 |          979 |          979 |          762 |          762 |          979 |          979 |          762 |          762 |          979 |          979 |          761 |          761 |          979 |          979 |          761 |          761 |          979 |          979 |          761 |          761 |         1052 |         1052 |          885 |          885 |         1052 |         1052 |          885 |          885 |         1052 |         1052 |          885 |          885 |
il1.replacements                               507 |          507 |          258 |          258 |          549 |          549 |          247 |          247 |          551 |          551 |          248 |          248 |          550 |          550 |          250 |          250 |          550 |          550 |          250 |          250 |          550 |          550 |          249 |          249 |          550 |          550 |          249 |          249 |          550 |          550 |          249 |          249 |          627 |          627 |          373 |          373 |          627 |          627 |          373 |          373 |          627 |          627 |          373 |          373 |
il1.writebacks                                   0 |            0 |            0 |            0 |            0 |            0 |            0 |            0 |            0 |            0 |            0 |            0 |            0 |            0 |            0 |            0 |            0 |            0 |            0 |            0 |            0 |            0 |            0 |            0 |            0 |            0 |            0 |            0 |            0 |            0 |            0 |            0 |            0 |            0 |            0 |            0 |            0 |            0 |            0 |            0 |            0 |            0 |            0 |            0 |
il1.invalidations                                0 |            0 |            0 |            0 |            0 |            0 |            0 |            0 |            0 |            0 |            0 |            0 |            0 |            0 |            0 |            0 |            0 |            0 |            0 |            0 |            0 |            0 |            0 |            0 |            0 |            0 |            0 |            0 |            0 |            0 |            0 |            0 |            0 |            0 |            0 |            0 |            0 |            0 |            0 |            0 |            0 |            0 |            0 |            0 |
il1.miss_rate                               0.0011 |       0.0011 |       0.0009 |       0.0009 |       0.0005 |       0.0005 |       0.0004 |       0.0004 |       0.0002 |       0.0002 |       0.0002 |       0.0002 |       0.0001 |       0.0001 |       0.0001 |       0.0001 |       0.0001 |       0.0001 |       0.0000 |       0.0000 |       0.0000 |       0.0000 |       0.0000 |       0.0000 |       0.0000 |       0.0000 |       0.0000 |       0.0000 |       0.0000 |       0.0000 |       0.0000 |       0.0000 |       0.0000 |       0.0000 |       0.0000 |       0.0000 |       0.0000 |       0.0000 |       0.0000 |       0.0000 |       0.0000 |       0.0000 |       0.0000 |       0.0000 |
il1.repl_rate                               0.0006 |       0.0006 |       0.0003 |       0.0003 |       0.0003 |       0.0003 |       0.0001 |       0.0001 |       0.0001 |       0.0001 |       0.0001 |       0.0001 |       0.0001 |       0.0001 |       0.0000 |       0.0000 |       0.0000 |       0.0000 |       0.0000 |       0.0000 |       0.0000 |       0.0000 |       0.0000 |       0.0000 |       0.0000 |       0.0000 |       0.0000 |       0.0000 |       0.0000 |       0.0000 |       0.0000 |       0.0000 |       0.0000 |       0.0000 |       0.0000 |       0.0000 |       0.0000 |       0.0000 |       0.0000 |       0.0000 |       0.0000 |       0.0000 |       0.0000 |       0.0000 |
il1.wb_rate                                 0.0000 |       0.0000 |       0.0000 |       0.0000 |       0.0000 |       0.0000 |       0.0000 |       0.0000 |       0.0000 |       0.0000 |       0.0000 |       0.0000 |       0.0000 |       0.0000 |       0.0000 |       0.0000 |       0.0000 |       0.0000 |       0.0000 |       0.0000 |       0.0000 |       0.0000 |       0.0000 |       0.0000 |       0.0000 |       0.0000 |       0.0000 |       0.0000 |       0.0000 |       0.0000 |       0.0000 |       0.0000 |       0.0000 |       0.0000 |       0.0000 |       0.0000 |       0.0000 |       0.0000 |       0.0000 |       0.0000 |       0.0000 |       0.0000 |       0.0000 |       0.0000 |
il1.inv_rate                                0.0000 |       0.0000 |       0.0000 |       0.0000 |       0.0000 |       0.0000 |       0.0000 |       0.0000 |       0.0000 |       0.0000 |       0.0000 |       0.0000 |       0.0000 |       0.0000 |       0.0000 |       0.0000 |       0.0000 |       0.0000 |       0.0000 |       0.0000 |       0.0000 |       0.0000 |       0.0000 |       0.0000 |       0.0000 |       0.0000 |       0.0000 |       0.0000 |       0.0000 |       0.0000 |       0.0000 |       0.0000 |       0.0000 |       0.0000 |       0.0000 |       0.0000 |       0.0000 |       0.0000 |       0.0000 |       0.0000 |       0.0000 |       0.0000 |       0.0000 |       0.0000 |
dl1.accesses                                234543 |       234543 |       234543 |       234543 |       497039 |       497039 |       497039 |       497039 |      1057164 |      1057164 |      1057164 |      1057164 |      2240113 |      2240113 |      2240113 |      2240113 |      4739642 |      4739642 |      4739642 |      4739642 |      9991843 |      9991843 |      9991843 |      9991843 |     21044594 |     21044594 |     21044594 |     21044594 |     44153010 |     44153010 |     44153010 |     44153010 |     92558438 |     92558438 |     92558438 |     92558438 |    193381760 |    193381760 |    193381760 |    193381760 |    403748879 |    403748879 |    403748879 |    403748879 |
dl1.hits                                    226513 |       226513 |       227005 |       227005 |       477408 |       477408 |       478581 |       478581 |      1008507 |      1008507 |      1011682 |      1011682 |      2124247 |      2124247 |      2130849 |      2130849 |      4466900 |      4466900 |      4483307 |      4483307 |      9370059 |      9370059 |      9403030 |      9403030 |     19639562 |     19639562 |     19714978 |     19714978 |     41041525 |     41041525 |     41189275 |     41189275 |     85702487 |     85702487 |     86032936 |     86032936 |    178495253 |    178495253 |    179154418 |    179154418 |    371530967 |    371530967 |    372954479 |    372954479 |
dl1.misses                                    8030 |         8030 |         7538 |         7538 |        19631 |        19631 |        18458 |        18458 |        48657 |        48657 |        45482 |        45482 |       115866 |       115866 |       109264 |       109264 |       272742 |       272742 |       256335 |       256335 |       621784 |       621784 |       588813 |       588813 |      1405032 |      1405032 |      1329616 |      1329616 |      3111485 |      3111485 |      2963735 |      2963735 |      6855951 |      6855951 |      6525502 |      6525502 |     14886507 |     14886507 |     14227342 |     14227342 |     32217912 |     32217912 |     30794400 |     30794400 |
dl1.replacements                              7518 |         7518 |         7026 |         7026 |        19119 |        19119 |        17946 |        17946 |        48145 |        48145 |        44970 |        44970 |       115354 |       115354 |       108752 |       108752 |       272230 |       272230 |       255823 |       255823 |       621272 |       621272 |       588301 |       588301 |      1404520 |      1404520 |      1329104 |      1329104 |      3110973 |      3110973 |      2963223 |      2963223 |      6855439 |      6855439 |      6524990 |      6524990 |     14885995 |     14885995 |     14226830 |     14226830 |     32217400 |     32217400 |     30793888 |     30793888 |
dl1.writebacks                                6368 |         6368 |         5892 |         5892 |        16596 |        16596 |        15496 |        15496 |        42827 |        42827 |        39860 |        39860 |       104234 |       104234 |        98114 |        98114 |       249325 |       249325 |       234054 |       234054 |       574691 |       574691 |       544214 |       544214 |      1310510 |      1310510 |      1240451 |      1240451 |      2920959 |      2920959 |      2784898 |      2784898 |      6471878 |      6471878 |      6167599 |      6167599 |     14116109 |     14116109 |     13511469 |     13511469 |     30670709 |     30670709 |     29362902 |     29362902 |
dl1.invalidations                                0 |            0 |            0 |            0 |            0 |            0 |            0 |            0 |            0 |            0 |            0 |            0 |            0 |            0 |            0 |            0 |            0 |            0 |            0 |            0 |            0 |            0 |            0 |            0 |            0 |            0 |            0 |            0 |            0 |            0 |            0 |            0 |            0 |            0 |            0 |            0 |            0 |            0 |            0 |            0 |            0 |            0 |            0 |            0 |
dl1.miss_rate                               0.0342 |       0.0342 |       0.0321 |       0.0321 |       0.0395 |       0.0395 |       0.0371 |       0.0371 |       0.0460 |       0.0460 |       0.0430 |       0.0430 |       0.0517 |       0.0517 |       0.0488 |       0.0488 |       0.0575 |       0.0575 |       0.0541 |       0.0541 |       0.0622 |       0.0622 |       0.0589 |       0.0589 |       0.0668 |       0.0668 |       0.0632 |       0.0632 |       0.0705 |       0.0705 |       0.0671 |       0.0671 |       0.0741 |       0.0741 |       0.0705 |       0.0705 |       0.0770 |       0.0770 |       0.0736 |       0.0736 |       0.0798 |       0.0798 |       0.0763 |       0.0763 |
dl1.repl_rate                               0.0321 |       0.0321 |       0.0300 |       0.0300 |       0.0385 |       0.0385 |       0.0361 |       0.0361 |       0.0455 |       0.0455 |       0.0425 |       0.0425 |       0.0515 |       0.0515 |       0.0485 |       0.0485 |       0.0574 |       0.0574 |       0.0540 |       0.0540 |       0.0622 |       0.0622 |       0.0589 |       0.0589 |       0.0667 |       0.0667 |       0.0632 |       0.0632 |       0.0705 |       0.0705 |       0.0671 |       0.0671 |       0.0741 |       0.0741 |       0.0705 |       0.0705 |       0.0770 |       0.0770 |       0.0736 |       0.0736 |       0.0798 |       0.0798 |       0.0763 |       0.0763 |
dl1.wb_rate                                 0.0272 |       0.0272 |       0.0251 |       0.0251 |       0.0334 |       0.0334 |       0.0312 |       0.0312 |       0.0405 |       0.0405 |       0.0377 |       0.0377 |       0.0465 |       0.0465 |       0.0438 |       0.0438 |       0.0526 |       0.0526 |       0.0494 |       0.0494 |       0.0575 |       0.0575 |       0.0545 |       0.0545 |       0.0623 |       0.0623 |       0.0589 |       0.0589 |       0.0662 |       0.0662 |       0.0631 |       0.0631 |       0.0699 |       0.0699 |       0.0666 |       0.0666 |       0.0730 |       0.0730 |       0.0699 |       0.0699 |       0.0760 |       0.0760 |       0.0727 |       0.0727 |
dl1.inv_rate                                0.0000 |       0.0000 |       0.0000 |       0.0000 |       0.0000 |       0.0000 |       0.0000 |       0.0000 |       0.0000 |       0.0000 |       0.0000 |       0.0000 |       0.0000 |       0.0000 |       0.0000 |       0.0000 |       0.0000 |       0.0000 |       0.0000 |       0.0000 |       0.0000 |       0.0000 |       0.0000 |       0.0000 |       0.0000 |       0.0000 |       0.0000 |       0.0000 |       0.0000 |       0.0000 |       0.0000 |       0.0000 |       0.0000 |       0.0000 |       0.0000 |       0.0000 |       0.0000 |       0.0000 |       0.0000 |       0.0000 |       0.0000 |       0.0000 |       0.0000 |       0.0000 |
dl2.accesses                                 15322 |        15322 |        14200 |        14200 |        37205 |        37205 |        34713 |        34713 |        92464 |        92464 |        86102 |        86102 |       221079 |       221079 |       208140 |       208140 |       523046 |       523046 |       491151 |       491151 |      1197454 |      1197454 |      1133788 |      1133788 |      2716521 |      2716521 |      2570828 |      2570828 |      6033423 |      6033423 |      5749394 |      5749394 |     13328881 |     13328881 |     12693986 |     12693986 |     29003668 |     29003668 |     27739696 |     27739696 |     62889673 |     62889673 |     60158187 |     60158187 |
dl2.hits                                     11615 |        11615 |        10563 |        10563 |        31449 |        31449 |        29046 |        29046 |        82598 |        82598 |        76338 |        76338 |       203018 |       203018 |       190182 |       190182 |       488601 |       488601 |       456809 |       456809 |      1130242 |      1130242 |      1066679 |      1066679 |      2583771 |      2578763 |      2438183 |      2393731 |      5764595 |      5321804 |      5402520 |      5095725 |     11901311 |     11487752 |     11386276 |     10979988 |     25319924 |     24284155 |     24312303 |     23236217 |     53448270 |     50875515 |     51154849 |     48768999 |
dl2.misses                                    3707 |         3707 |         3637 |         3637 |         5756 |         5756 |         5667 |         5667 |         9866 |         9866 |         9764 |         9764 |        18061 |        18061 |        17958 |        17958 |        34445 |        34445 |        34342 |        34342 |        67212 |        67212 |        67109 |        67109 |       132750 |       137758 |       132645 |       177097 |       268828 |       711619 |       346874 |       653669 |      1427570 |      1841129 |      1307710 |      1713998 |      3683744 |      4719513 |      3427393 |      4503479 |      9441403 |     12014158 |      9003338 |     11389188 |
dl2.replacements                               466 |          466 |            0 |            0 |          456 |          456 |            0 |            0 |          514 |          514 |            0 |            0 |          515 |          515 |            0 |            0 |          515 |          515 |            0 |            0 |          515 |          515 |            0 |            0 |          517 |         8871 |            0 |        46025 |         8869 |       580547 |        84730 |       522597 |      1165426 |      1710057 |      1045566 |      1582926 |      3421600 |      4588441 |      3165249 |      4372407 |      9179259 |     11883086 |      8741194 |     11258116 |
dl2.writebacks                                 264 |          264 |            0 |            0 |          247 |          247 |            0 |            0 |          291 |          291 |            0 |            0 |          289 |          289 |            0 |            0 |          289 |          289 |            0 |            0 |          289 |          289 |            0 |            0 |          289 |         8643 |            0 |        44633 |         8643 |       452954 |        83338 |       389119 |       908539 |      1427880 |       778984 |      1296298 |      2857361 |      3971512 |      2592021 |      3750242 |      7945949 |     10570219 |      7497320 |      9939673 |
dl2.invalidations                                0 |            0 |            0 |            0 |            0 |            0 |            0 |            0 |            0 |            0 |            0 |            0 |            0 |            0 |            0 |            0 |            0 |            0 |            0 |            0 |            0 |            0 |            0 |            0 |            0 |            0 |            0 |            0 |            0 |            0 |            0 |            0 |            0 |            0 |            0 |            0 |            0 |            0 |            0 |            0 |            0 |            0 |            0 |            0 |
dl2.miss_rate                               0.2419 |       0.2419 |       0.2561 |       0.2561 |       0.1547 |       0.1547 |       0.1633 |       0.1633 |       0.1067 |       0.1067 |       0.1134 |       0.1134 |       0.0817 |       0.0817 |       0.0863 |       0.0863 |       0.0659 |       0.0659 |       0.0699 |       0.0699 |       0.0561 |       0.0561 |       0.0592 |       0.0592 |       0.0489 |       0.0507 |       0.0516 |       0.0689 |       0.0446 |       0.1179 |       0.0603 |       0.1137 |       0.1071 |       0.1381 |       0.1030 |       0.1350 |       0.1270 |       0.1627 |       0.1236 |       0.1623 |       0.1501 |       0.1910 |       0.1497 |       0.1893 |
dl2.repl_rate                               0.0304 |       0.0304 |       0.0000 |       0.0000 |       0.0123 |       0.0123 |       0.0000 |       0.0000 |       0.0056 |       0.0056 |       0.0000 |       0.0000 |       0.0023 |       0.0023 |       0.0000 |       0.0000 |       0.0010 |       0.0010 |       0.0000 |       0.0000 |       0.0004 |       0.0004 |       0.0000 |       0.0000 |       0.0002 |       0.0033 |       0.0000 |       0.0179 |       0.0015 |       0.0962 |       0.0147 |       0.0909 |       0.0874 |       0.1283 |       0.0824 |       0.1247 |       0.1180 |       0.1582 |       0.1141 |       0.1576 |       0.1460 |       0.1890 |       0.1453 |       0.1871 |
dl2.wb_rate                                 0.0172 |       0.0172 |       0.0000 |       0.0000 |       0.0066 |       0.0066 |       0.0000 |       0.0000 |       0.0031 |       0.0031 |       0.0000 |       0.0000 |       0.0013 |       0.0013 |       0.0000 |       0.0000 |       0.0006 |       0.0006 |       0.0000 |       0.0000 |       0.0002 |       0.0002 |       0.0000 |       0.0000 |       0.0001 |       0.0032 |       0.0000 |       0.0174 |       0.0014 |       0.0751 |       0.0145 |       0.0677 |       0.0682 |       0.1071 |       0.0614 |       0.1021 |       0.0985 |       0.1369 |       0.0934 |       0.1352 |       0.1263 |       0.1681 |       0.1246 |       0.1652 |
dl2.inv_rate                                0.0000 |       0.0000 |       0.0000 |       0.0000 |       0.0000 |       0.0000 |       0.0000 |       0.0000 |       0.0000 |       0.0000 |       0.0000 |       0.0000 |       0.0000 |       0.0000 |       0.0000 |       0.0000 |       0.0000 |       0.0000 |       0.0000 |       0.0000 |       0.0000 |       0.0000 |       0.0000 |       0.0000 |       0.0000 |       0.0000 |       0.0000 |       0.0000 |       0.0000 |       0.0000 |       0.0000 |       0.0000 |       0.0000 |       0.0000 |       0.0000 |       0.0000 |       0.0000 |       0.0000 |       0.0000 |       0.0000 |       0.0000 |       0.0000 |       0.0000 |       0.0000 |
itlb.accesses                               870752 |       870752 |       870752 |       870752 |      1865938 |      1865938 |      1865938 |      1865938 |      4003596 |      4003596 |      4003596 |      4003596 |      8536499 |      8536499 |      8536499 |      8536499 |     18156939 |     18156939 |     18156939 |     18156939 |     38437821 |     38437821 |     38437821 |     38437821 |     81284195 |     81284195 |     81284195 |     81284195 |    171092973 |    171092973 |    171092973 |    171092973 |    359783211 |    359783211 |    359783211 |    359783211 |    753694240 |    753694240 |    753694240 |    753694240 |   1577797321 |   1577797321 |   1577797321 |   1577797321 |
itlb.hits                                   870743 |       870743 |       870743 |       870743 |      1865929 |      1865929 |      1865929 |      1865929 |      4003587 |      4003587 |      4003587 |      4003587 |      8536490 |      8536490 |      8536490 |      8536490 |     18156930 |     18156930 |     18156930 |     18156930 |     38437812 |     38437812 |     38437812 |     38437812 |     81284186 |     81284186 |     81284186 |     81284186 |    171092964 |    171092964 |    171092964 |    171092964 |    359783202 |    359783202 |    359783202 |    359783202 |    753694231 |    753694231 |    753694231 |    753694231 |   1577797312 |   1577797312 |   1577797312 |   1577797312 |
itlb.misses                                      9 |            9 |            9 |            9 |            9 |            9 |            9 |            9 |            9 |            9 |            9 |            9 |            9 |            9 |            9 |            9 |            9 |            9 |            9 |            9 |            9 |            9 |            9 |            9 |            9 |            9 |            9 |            9 |            9 |            9 |            9 |            9 |            9 |            9 |            9 |            9 |            9 |            9 |            9 |            9 |            9 |            9 |            9 |            9 |
itlb.replacements                                0 |            0 |            0 |            0 |            0 |            0 |            0 |            0 |            0 |            0 |            0 |            0 |            0 |            0 |            0 |            0 |            0 |            0 |            0 |            0 |            0 |            0 |            0 |            0 |            0 |            0 |            0 |            0 |            0 |            0 |            0 |            0 |            0 |            0 |            0 |            0 |            0 |            0 |            0 |            0 |            0 |            0 |            0 |            0 |
itlb.writebacks                                  0 |            0 |            0 |            0 |            0 |            0 |            0 |            0 |            0 |            0 |            0 |            0 |            0 |            0 |            0 |            0 |            0 |            0 |            0 |            0 |            0 |            0 |            0 |            0 |            0 |            0 |            0 |            0 |            0 |            0 |            0 |            0 |            0 |            0 |            0 |            0 |            0 |            0 |            0 |            0 |            0 |            0 |            0 |            0 |
itlb.invalidations                               0 |            0 |            0 |            0 |            0 |            0 |            0 |            0 |            0 |            0 |            0 |            0 |            0 |            0 |            0 |            0 |            0 |            0 |            0 |            0 |            0 |            0 |            0 |            0 |            0 |            0 |            0 |            0 |            0 |            0 |            0 |            0 |            0 |            0 |            0 |            0 |            0 |            0 |            0 |            0 |            0 |            0 |            0 |            0 |
itlb.miss_rate                              0.0000 |       0.0000 |       0.0000 |       0.0000 |       0.0000 |       0.0000 |       0.0000 |       0.0000 |       0.0000 |       0.0000 |       0.0000 |       0.0000 |       0.0000 |       0.0000 |       0.0000 |       0.0000 |       0.0000 |       0.0000 |       0.0000 |       0.0000 |       0.0000 |       0.0000 |       0.0000 |       0.0000 |       0.0000 |       0.0000 |       0.0000 |       0.0000 |       0.0000 |       0.0000 |       0.0000 |       0.0000 |       0.0000 |       0.0000 |       0.0000 |       0.0000 |       0.0000 |       0.0000 |       0.0000 |       0.0000 |       0.0000 |       0.0000 |       0.0000 |       0.0000 |
itlb.repl_rate                              0.0000 |       0.0000 |       0.0000 |       0.0000 |       0.0000 |       0.0000 |       0.0000 |       0.0000 |       0.0000 |       0.0000 |       0.0000 |       0.0000 |       0.0000 |       0.0000 |       0.0000 |       0.0000 |       0.0000 |       0.0000 |       0.0000 |       0.0000 |       0.0000 |       0.0000 |       0.0000 |       0.0000 |       0.0000 |       0.0000 |       0.0000 |       0.0000 |       0.0000 |       0.0000 |       0.0000 |       0.0000 |       0.0000 |       0.0000 |       0.0000 |       0.0000 |       0.0000 |       0.0000 |       0.0000 |       0.0000 |       0.0000 |       0.0000 |       0.0000 |       0.0000 |
itlb.wb_rate                                0.0000 |       0.0000 |       0.0000 |       0.0000 |       0.0000 |       0.0000 |       0.0000 |       0.0000 |       0.0000 |       0.0000 |       0.0000 |       0.0000 |       0.0000 |       0.0000 |       0.0000 |       0.0000 |       0.0000 |       0.0000 |       0.0000 |       0.0000 |       0.0000 |       0.0000 |       0.0000 |       0.0000 |       0.0000 |       0.0000 |       0.0000 |       0.0000 |       0.0000 |       0.0000 |       0.0000 |       0.0000 |       0.0000 |       0.0000 |       0.0000 |       0.0000 |       0.0000 |       0.0000 |       0.0000 |       0.0000 |       0.0000 |       0.0000 |       0.0000 |       0.0000 |
itlb.inv_rate                               0.0000 |       0.0000 |       0.0000 |       0.0000 |       0.0000 |       0.0000 |       0.0000 |       0.0000 |       0.0000 |       0.0000 |       0.0000 |       0.0000 |       0.0000 |       0.0000 |       0.0000 |       0.0000 |       0.0000 |       0.0000 |       0.0000 |       0.0000 |       0.0000 |       0.0000 |       0.0000 |       0.0000 |       0.0000 |       0.0000 |       0.0000 |       0.0000 |       0.0000 |       0.0000 |       0.0000 |       0.0000 |       0.0000 |       0.0000 |       0.0000 |       0.0000 |       0.0000 |       0.0000 |       0.0000 |       0.0000 |       0.0000 |       0.0000 |       0.0000 |       0.0000 |
dtlb.accesses                               234543 |       234543 |       234543 |       234543 |       497039 |       497039 |       497039 |       497039 |      1057164 |      1057164 |      1057164 |      1057164 |      2240113 |      2240113 |      2240113 |      2240113 |      4739642 |      4739642 |      4739642 |      4739642 |      9991843 |      9991843 |      9991843 |      9991843 |     21044594 |     21044594 |     21044594 |     21044594 |     44153010 |     44153010 |     44153010 |     44153010 |     92558438 |     92558438 |     92558438 |     92558438 |    193381760 |    193381760 |    193381760 |    193381760 |    403748879 |    403748879 |    403748879 |    403748879 |
dtlb.hits                                   234527 |       234527 |       234527 |       234527 |       497015 |       497015 |       497015 |       497015 |      1057124 |      1057124 |      1057124 |      1057124 |      2240041 |      2240041 |      2240041 |      2240041 |      4739495 |      4739495 |      4739495 |      4739495 |      9990991 |      9990991 |      9990991 |      9990991 |     20987395 |     20987395 |     20987395 |     20987395 |     43801863 |     43801863 |     43801863 |     43801863 |     91263632 |     91263632 |     91263632 |     91263632 |    189527075 |    189527075 |    189527075 |    189527075 |    393449776 |    393449776 |    393449776 |    393449776 |
dtlb.misses                                     16 |           16 |           16 |           16 |           24 |           24 |           24 |           24 |           40 |           40 |           40 |           40 |           72 |           72 |           72 |           72 |          147 |          147 |          147 |          147 |          852 |          852 |          852 |          852 |        57199 |        57199 |        57199 |        57199 |       351147 |       351147 |       351147 |       351147 |      1294806 |      1294806 |      1294806 |      1294806 |      3854685 |      3854685 |      3854685 |      3854685 |     10299103 |     10299103 |     10299103 |     10299103 |
dtlb.replacements                                0 |            0 |            0 |            0 |            0 |            0 |            0 |            0 |            0 |            0 |            0 |            0 |            0 |            0 |            0 |            0 |           19 |           19 |           19 |           19 |          724 |          724 |          724 |          724 |        57071 |        57071 |        57071 |        57071 |       351019 |       351019 |       351019 |       351019 |      1294678 |      1294678 |      1294678 |      1294678 |      3854557 |      3854557 |      3854557 |      3854557 |     10298975 |     10298975 |     10298975 |     10298975 |
dtlb.writebacks                                  0 |            0 |            0 |            0 |            0 |            0 |            0 |            0 |            0 |            0 |            0 |            0 |            0 |            0 |            0 |            0 |           16 |           16 |           16 |           16 |          594 |          594 |          594 |          594 |        53963 |        53963 |        53963 |        53963 |       332250 |       332250 |       332250 |       332250 |      1235390 |      1235390 |      1235390 |      1235390 |      3704768 |      3704768 |      3704768 |      3704768 |      9962175 |      9962175 |      9962175 |      9962175 |
dtlb.invalidations                               0 |            0 |            0 |            0 |            0 |            0 |            0 |            0 |            0 |            0 |            0 |            0 |            0 |            0 |            0 |            0 |            0 |            0 |            0 |            0 |            0 |            0 |            0 |            0 |            0 |            0 |            0 |            0 |            0 |            0 |            0 |            0 |            0 |            0 |            0 |            0 |            0 |            0 |            0 |            0 |            0 |            0 |            0 |            0 |
dtlb.miss_rate                              0.0001 |       0.0001 |       0.0001 |       0.0001 |       0.0000 |       0.0000 |       0.0000 |       0.0000 |       0.0000 |       0.0000 |       0.0000 |       0.0000 |       0.0000 |       0.0000 |       0.0000 |       0.0000 |       0.0000 |       0.0000 |       0.0000 |       0.0000 |       0.0001 |       0.0001 |       0.0001 |       0.0001 |       0.0027 |       0.0027 |       0.0027 |       0.0027 |       0.0080 |       0.0080 |       0.0080 |       0.0080 |       0.0140 |       0.0140 |       0.0140 |       0.0140 |       0.0199 |       0.0199 |       0.0199 |       0.0199 |       0.0255 |       0.0255 |       0.0255 |       0.0255 |
dtlb.repl_rate                              0.0000 |       0.0000 |       0.0000 |       0.0000 |       0.0000 |       0.0000 |       0.0000 |       0.0000 |       0.0000 |       0.0000 |       0.0000 |       0.0000 |       0.0000 |       0.0000 |       0.0000 |       0.0000 |       0.0000 |       0.0000 |       0.0000 |       0.0000 |       0.0001 |       0.0001 |       0.0001 |       0.0001 |       0.0027 |       0.0027 |       0.0027 |       0.0027 |       0.0080 |       0.0080 |       0.0080 |       0.0080 |       0.0140 |       0.0140 |       0.0140 |       0.0140 |       0.0199 |       0.0199 |       0.0199 |       0.0199 |       0.0255 |       0.0255 |       0.0255 |       0.0255 |
dtlb.wb_rate                                0.0000 |       0.0000 |       0.0000 |       0.0000 |       0.0000 |       0.0000 |       0.0000 |       0.0000 |       0.0000 |       0.0000 |       0.0000 |       0.0000 |       0.0000 |       0.0000 |       0.0000 |       0.0000 |       0.0000 |       0.0000 |       0.0000 |       0.0000 |       0.0001 |       0.0001 |       0.0001 |       0.0001 |       0.0026 |       0.0026 |       0.0026 |       0.0026 |       0.0075 |       0.0075 |       0.0075 |       0.0075 |       0.0133 |       0.0133 |       0.0133 |       0.0133 |       0.0192 |       0.0192 |       0.0192 |       0.0192 |       0.0247 |       0.0247 |       0.0247 |       0.0247 |
dtlb.inv_rate                               0.0000 |       0.0000 |       0.0000 |       0.0000 |       0.0000 |       0.0000 |       0.0000 |       0.0000 |       0.0000 |       0.0000 |       0.0000 |       0.0000 |       0.0000 |       0.0000 |       0.0000 |       0.0000 |       0.0000 |       0.0000 |       0.0000 |       0.0000 |       0.0000 |       0.0000 |       0.0000 |       0.0000 |       0.0000 |       0.0000 |       0.0000 |       0.0000 |       0.0000 |       0.0000 |       0.0000 |       0.0000 |       0.0000 |       0.0000 |       0.0000 |       0.0000 |       0.0000 |       0.0000 |       0.0000 |       0.0000 |       0.0000 |       0.0000 |       0.0000 |       0.0000 |
ld_text_base                            0x00400000 |   0x00400000 |   0x00400000 |   0x00400000 |   0x00400000 |   0x00400000 |   0x00400000 |   0x00400000 |   0x00400000 |   0x00400000 |   0x00400000 |   0x00400000 |   0x00400000 |   0x00400000 |   0x00400000 |   0x00400000 |   0x00400000 |   0x00400000 |   0x00400000 |   0x00400000 |   0x00400000 |   0x00400000 |   0x00400000 |   0x00400000 |   0x00400000 |   0x00400000 |   0x00400000 |   0x00400000 |   0x00400000 |   0x00400000 |   0x00400000 |   0x00400000 |   0x00400000 |   0x00400000 |   0x00400000 |   0x00400000 |   0x00400000 |   0x00400000 |   0x00400000 |   0x00400000 |   0x00400000 |   0x00400000 |   0x00400000 |   0x00400000 |
ld_text_size                                 74304 |        74304 |        74304 |        74304 |        74336 |        74336 |        74336 |        74336 |        74352 |        74352 |        74352 |        74352 |        74368 |        74368 |        74368 |        74368 |        74368 |        74368 |        74368 |        74368 |        74368 |        74368 |        74368 |        74368 |        74368 |        74368 |        74368 |        74368 |        74368 |        74368 |        74368 |        74368 |        74368 |        74368 |        74368 |        74368 |        74368 |        74368 |        74368 |        74368 |        74368 |        74368 |        74368 |        74368 |
ld_data_base                            0x10000000 |   0x10000000 |   0x10000000 |   0x10000000 |   0x10000000 |   0x10000000 |   0x10000000 |   0x10000000 |   0x10000000 |   0x10000000 |   0x10000000 |   0x10000000 |   0x10000000 |   0x10000000 |   0x10000000 |   0x10000000 |   0x10000000 |   0x10000000 |   0x10000000 |   0x10000000 |   0x10000000 |   0x10000000 |   0x10000000 |   0x10000000 |   0x10000000 |   0x10000000 |   0x10000000 |   0x10000000 |   0x10000000 |   0x10000000 |   0x10000000 |   0x10000000 |   0x10000000 |   0x10000000 |   0x10000000 |   0x10000000 |   0x10000000 |   0x10000000 |   0x10000000 |   0x10000000 |   0x10000000 |   0x10000000 |   0x10000000 |   0x10000000 |
ld_data_size                                  8192 |         8192 |         8192 |         8192 |         8192 |         8192 |         8192 |         8192 |         8192 |         8192 |         8192 |         8192 |         8192 |         8192 |         8192 |         8192 |         8192 |         8192 |         8192 |         8192 |         8192 |         8192 |         8192 |         8192 |         8192 |         8192 |         8192 |         8192 |         8192 |         8192 |         8192 |         8192 |         8192 |         8192 |         8192 |         8192 |         8192 |         8192 |         8192 |         8192 |         8192 |         8192 |         8192 |         8192 |
ld_stack_base                           0x7fffc000 |   0x7fffc000 |   0x7fffc000 |   0x7fffc000 |   0x7fffc000 |   0x7fffc000 |   0x7fffc000 |   0x7fffc000 |   0x7fffc000 |   0x7fffc000 |   0x7fffc000 |   0x7fffc000 |   0x7fffc000 |   0x7fffc000 |   0x7fffc000 |   0x7fffc000 |   0x7fffc000 |   0x7fffc000 |   0x7fffc000 |   0x7fffc000 |   0x7fffc000 |   0x7fffc000 |   0x7fffc000 |   0x7fffc000 |   0x7fffc000 |   0x7fffc000 |   0x7fffc000 |   0x7fffc000 |   0x7fffc000 |   0x7fffc000 |   0x7fffc000 |   0x7fffc000 |   0x7fffc000 |   0x7fffc000 |   0x7fffc000 |   0x7fffc000 |   0x7fffc000 |   0x7fffc000 |   0x7fffc000 |   0x7fffc000 |   0x7fffc000 |   0x7fffc000 |   0x7fffc000 |   0x7fffc000 |
ld_stack_size                                16384 |        16384 |        16384 |        16384 |        16384 |        16384 |        16384 |        16384 |        16384 |        16384 |        16384 |        16384 |        16384 |        16384 |        16384 |        16384 |        16384 |        16384 |        16384 |        16384 |        16384 |        16384 |        16384 |        16384 |        16384 |        16384 |        16384 |        16384 |        16384 |        16384 |        16384 |        16384 |        16384 |        16384 |        16384 |        16384 |        16384 |        16384 |        16384 |        16384 |        16384 |        16384 |        16384 |        16384 |
ld_prog_entry                           0x00400140 |   0x00400140 |   0x00400140 |   0x00400140 |   0x00400140 |   0x00400140 |   0x00400140 |   0x00400140 |   0x00400140 |   0x00400140 |   0x00400140 |   0x00400140 |   0x00400140 |   0x00400140 |   0x00400140 |   0x00400140 |   0x00400140 |   0x00400140 |   0x00400140 |   0x00400140 |   0x00400140 |   0x00400140 |   0x00400140 |   0x00400140 |   0x00400140 |   0x00400140 |   0x00400140 |   0x00400140 |   0x00400140 |   0x00400140 |   0x00400140 |   0x00400140 |   0x00400140 |   0x00400140 |   0x00400140 |   0x00400140 |   0x00400140 |   0x00400140 |   0x00400140 |   0x00400140 |   0x00400140 |   0x00400140 |   0x00400140 |   0x00400140 |
ld_environ_base                         0x7fff8000 |   0x7fff8000 |   0x7fff8000 |   0x7fff8000 |   0x7fff8000 |   0x7fff8000 |   0x7fff8000 |   0x7fff8000 |   0x7fff8000 |   0x7fff8000 |   0x7fff8000 |   0x7fff8000 |   0x7fff8000 |   0x7fff8000 |   0x7fff8000 |   0x7fff8000 |   0x7fff8000 |   0x7fff8000 |   0x7fff8000 |   0x7fff8000 |   0x7fff8000 |   0x7fff8000 |   0x7fff8000 |   0x7fff8000 |   0x7fff8000 |   0x7fff8000 |   0x7fff8000 |   0x7fff8000 |   0x7fff8000 |   0x7fff8000 |   0x7fff8000 |   0x7fff8000 |   0x7fff8000 |   0x7fff8000 |   0x7fff8000 |   0x7fff8000 |   0x7fff8000 |   0x7fff8000 |   0x7fff8000 |   0x7fff8000 |   0x7fff8000 |   0x7fff8000 |   0x7fff8000 |   0x7fff8000 |
ld_target_big_endian                             0 |            0 |            0 |            0 |            0 |            0 |            0 |            0 |            0 |            0 |            0 |            0 |            0 |            0 |            0 |            0 |            0 |            0 |            0 |            0 |            0 |            0 |            0 |            0 |            0 |            0 |            0 |            0 |            0 |            0 |            0 |            0 |            0 |            0 |            0 |            0 |            0 |            0 |            0 |            0 |            0 |            0 |            0 |            0 |
mem.page_count                                  35 |           35 |           35 |           35 |           43 |           43 |           43 |           43 |           59 |           59 |           59 |           59 |           91 |           91 |           91 |           91 |          155 |          155 |          155 |          155 |          283 |          283 |          283 |          283 |          539 |          539 |          539 |          539 |         1051 |         1051 |         1051 |         1051 |         2081 |         2081 |         2081 |         2081 |         4135 |         4135 |         4135 |         4135 |         8243 |         8243 |         8243 |         8243 |
mem.page_mem                                  140k |         140k |         140k |         140k |         172k |         172k |         172k |         172k |         236k |         236k |         236k |         236k |         364k |         364k |         364k |         364k |         620k |         620k |         620k |         620k |        1132k |        1132k |        1132k |        1132k |        2156k |        2156k |        2156k |        2156k |        4204k |        4204k |        4204k |        4204k |        8324k |        8324k |        8324k |        8324k |       16540k |       16540k |       16540k |       16540k |       32972k |       32972k |       32972k |       32972k |
mem.ptab_misses                                 35 |           35 |           35 |           35 |           43 |           43 |           43 |           43 |           59 |           59 |           59 |           59 |           91 |           91 |           91 |           91 |          155 |          155 |          155 |          155 |          283 |          283 |          283 |          283 |          539 |          539 |          539 |          539 |         1051 |         1051 |         1051 |         1051 |         9180 |         9180 |         9180 |         9180 |        23770 |        23770 |        23770 |        23770 |        64834 |        64834 |        64834 |        64834 |
mem.ptab_accesses                          4412508 |      4412508 |      4412508 |      4412508 |      8918436 |      8918436 |      8918436 |      8918436 |     18589414 |     18589414 |     18589414 |     18589414 |     39087020 |     39087020 |     39087020 |     39087020 |     82567838 |     82567838 |     82567838 |     82567838 |    174195768 |    174195768 |    174195768 |    174195768 |    367686766 |    367686766 |    367686766 |    367686766 |    773138710 |    773138710 |    773138710 |    773138710 |   1624710518 |   1624710518 |   1624710518 |   1624710518 |   3402001278 |   3402001278 |   3402001278 |   3402001278 |   7119147840 |   7119147840 |   7119147840 |   7119147840 |
mem.ptab_miss_rate                          0.0000 |       0.0000 |       0.0000 |       0.0000 |       0.0000 |       0.0000 |       0.0000 |       0.0000 |       0.0000 |       0.0000 |       0.0000 |       0.0000 |       0.0000 |       0.0000 |       0.0000 |       0.0000 |       0.0000 |       0.0000 |       0.0000 |       0.0000 |       0.0000 |       0.0000 |       0.0000 |       0.0000 |       0.0000 |       0.0000 |       0.0000 |       0.0000 |       0.0000 |       0.0000 |       0.0000 |       0.0000 |       0.0000 |       0.0000 |       0.0000 |       0.0000 |       0.0000 |       0.0000 |       0.0000 |       0.0000 |       0.0000 |       0.0000 |       0.0000 |       0.0000 |
-------------------------------------------------------------------------------------------------
sim-bpred                                     4096 |         4096 |         4096 |         4096 |         4096 |         4096 |         4096 |         8192 |         8192 |         8192 |         8192 |         8192 |         8192 |         8192 |        16384 |        16384 |        16384 |        16384 |        16384 |        16384 |        16384 |        32768 |        32768 |        32768 |        32768 |        32768 |        32768 |        32768 |        65536 |        65536 |        65536 |        65536 |        65536 |        65536 |        65536 |       131072 |       131072 |       131072 |       131072 |       131072 |       131072 |       131072 |       262144 |       262144 |       262144 |       262144 |       262144 |       262144 |       262144 |       524288 |       524288 |       524288 |       524288 |       524288 |       524288 |       524288 |      1048576 |      1048576 |      1048576 |      1048576 |      1048576 |      1048576 |      1048576 |      2097152 |      2097152 |      2097152 |      2097152 |      2097152 |      2097152 |      2097152 |      4194304 |      4194304 |      4194304 |      4194304 |      4194304 |      4194304 |      4194304 |
-bpred bimod -bpred:bimod 512
-bpred bimod -bpred:bimod 1024
-bpred bimod -bpred:bimod 2048
-bpred 2lev -bpred:2lev 1 512 10 1
-bpred 2lev -bpred:2lev 1 1024 10 1
-bpred 2lev -bpred:2lev 1 2048 10 1
-bpred 2lev -bpred:2lev 1 4096 10 1
-------------------------------------------------------------------------------------------------
sim_num_insn                                870752 |       870752 |       870752 |       870752 |       870752 |       870752 |       870752 |      1865938 |      1865938 |      1865938 |      1865938 |      1865938 |      1865938 |      1865938 |      4003596 |      4003596 |      4003596 |      4003596 |      4003596 |      4003596 |      4003596 |      8536499 |      8536499 |      8536499 |      8536499 |      8536499 |      8536499 |      8536499 |     18156939 |     18156939 |     18156939 |     18156939 |     18156939 |     18156939 |     18156939 |     38437821 |     38437821 |     38437821 |     38437821 |     38437821 |     38437821 |     38437821 |     81284195 |     81284195 |     81284195 |     81284195 |     81284195 |     81284195 |     81284195 |    171092973 |    171092973 |    171092973 |    171092973 |    171092973 |    171092973 |    171092973 |    359783211 |    359783211 |    359783211 |    359783211 |    359783211 |    359783211 |    359783211 |    753694240 |    753694240 |    753694240 |    753694240 |    753694240 |    753694240 |    753694240 |   1577797321 |   1577797321 |   1577797321 |   1577797321 |   1577797321 |   1577797321 |   1577797321 |
sim_num_refs                                218077 |       218077 |       218077 |       218077 |       218077 |       218077 |       218077 |       464189 |       464189 |       464189 |       464189 |       464189 |       464189 |       464189 |       991546 |       991546 |       991546 |       991546 |       991546 |       991546 |       991546 |      2108959 |      2108959 |      2108959 |      2108959 |      2108959 |      2108959 |      2108959 |      4477416 |      4477416 |      4477416 |      4477416 |      4477416 |      4477416 |      4477416 |      9467473 |      9467473 |      9467473 |      9467473 |      9467473 |      9467473 |      9467473 |     19995936 |     19995936 |     19995936 |     19995936 |     19995936 |     19995936 |     19995936 |     42055776 |     42055776 |     42055776 |     42055776 |     42055776 |     42055776 |     42055776 |     88364052 |     88364052 |     88364052 |     88364052 |     88364052 |     88364052 |     88364052 |    184993070 |    184993070 |    184993070 |    184993070 |    184993070 |    184993070 |    184993070 |    386971581 |    386971581 |    386971581 |    386971581 |    386971581 |    386971581 |    386971581 |
sim_elapsed_time                                 1 |            1 |            1 |            1 |            1 |            1 |            1 |            1 |            1 |            1 |            1 |            1 |            1 |            1 |            1 |            1 |            1 |            1 |            1 |            1 |            1 |            1 |            1 |            1 |            1 |            1 |            1 |            1 |            2 |            2 |            3 |            2 |            2 |            2 |            3 |            5 |            5 |            4 |            4 |            5 |            5 |            5 |           10 |            9 |           10 |           10 |           10 |           10 |           10 |           21 |           21 |           20 |           21 |           21 |           21 |           21 |           44 |           43 |           44 |           44 |           44 |           44 |           44 |           91 |           91 |           92 |           92 |           93 |           92 |           93 |          187 |          188 |          190 |          191 |          191 |          192 |          191 |
sim_inst_rate                          870752.0000 |  870752.0000 |  870752.0000 |  870752.0000 |  870752.0000 |  870752.0000 |  870752.0000 | 1865938.0000 | 1865938.0000 | 1865938.0000 | 1865938.0000 | 1865938.0000 | 1865938.0000 | 1865938.0000 | 4003596.0000 | 4003596.0000 | 4003596.0000 | 4003596.0000 | 4003596.0000 | 4003596.0000 | 4003596.0000 | 8536499.0000 | 8536499.0000 | 8536499.0000 | 8536499.0000 | 8536499.0000 | 8536499.0000 | 8536499.0000 | 9078469.5000 | 9078469.5000 | 6052313.0000 | 9078469.5000 | 9078469.5000 | 9078469.5000 | 6052313.0000 | 7687564.2000 | 7687564.2000 | 9609455.2500 | 9609455.2500 | 7687564.2000 | 7687564.2000 | 7687564.2000 | 8128419.5000 | 9031577.2222 | 8128419.5000 | 8128419.5000 | 8128419.5000 | 8128419.5000 | 8128419.5000 | 8147284.4286 | 8147284.4286 | 8554648.6500 | 8147284.4286 | 8147284.4286 | 8147284.4286 | 8147284.4286 | 8176891.1591 | 8367051.4186 | 8176891.1591 | 8176891.1591 | 8176891.1591 | 8176891.1591 | 8176891.1591 | 8282354.2857 | 8282354.2857 | 8192328.6957 | 8192328.6957 | 8104239.1398 | 8192328.6957 | 8104239.1398 | 8437418.8289 | 8392538.9415 | 8304196.4263 | 8260718.9581 | 8260718.9581 | 8217694.3802 | 8260718.9581 |
sim_num_branches                            155005 |       155005 |       155005 |       155005 |       155005 |       155005 |       155005 |       333052 |       333052 |       333052 |       333052 |       333052 |       333052 |       333052 |       715654 |       715654 |       715654 |       715654 |       715654 |       715654 |       715654 |      1528017 |      1528017 |      1528017 |      1528017 |      1528017 |      1528017 |      1528017 |      3252468 |      3252468 |      3252468 |      3252468 |      3252468 |      3252468 |      3252468 |      6891541 |      6891541 |      6891541 |      6891541 |      6891541 |      6891541 |      6891541 |     14581447 |     14581447 |     14581447 |     14581447 |     14581447 |     14581447 |     14581447 |     30712054 |     30712054 |     30712054 |     30712054 |     30712054 |     30712054 |     30712054 |     64609173 |     64609173 |     64609173 |     64609173 |     64609173 |     64609173 |     64609173 |    135419919 |    135419919 |    135419919 |    135419919 |    135419919 |    135419919 |    135419919 |    283584100 |    283584100 |    283584100 |    283584100 |    283584100 |    283584100 |    283584100 |
sim_IPB                                     5.6176 |       5.6176 |       5.6176 |       5.6176 |       5.6176 |       5.6176 |       5.6176 |       5.6025 |       5.6025 |       5.6025 |       5.6025 |       5.6025 |       5.6025 |       5.6025 |       5.5943 |       5.5943 |       5.5943 |       5.5943 |       5.5943 |       5.5943 |       5.5943 |       5.5867 |       5.5867 |       5.5867 |       5.5867 |       5.5867 |       5.5867 |       5.5867 |       5.5825 |       5.5825 |       5.5825 |       5.5825 |       5.5825 |       5.5825 |       5.5825 |       5.5775 |       5.5775 |       5.5775 |       5.5775 |       5.5775 |       5.5775 |       5.5775 |       5.5745 |       5.5745 |       5.5745 |       5.5745 |       5.5745 |       5.5745 |       5.5745 |       5.5709 |       5.5709 |       5.5709 |       5.5709 |       5.5709 |       5.5709 |       5.5709 |       5.5686 |       5.5686 |       5.5686 |       5.5686 |       5.5686 |       5.5686 |       5.5686 |       5.5656 |       5.5656 |       5.5656 |       5.5656 |       5.5656 |       5.5656 |       5.5656 |       5.5638 |       5.5638 |       5.5638 |       5.5638 |       5.5638 |       5.5638 |       5.5638 |
bpred_bimod.lookups                         155005 |       155005 |       155005 |xxxxxxxxxxxxx |xxxxxxxxxxxxx |xxxxxxxxxxxxx |xxxxxxxxxxxxx |       333052 |       333052 |       333052 |xxxxxxxxxxxxx |xxxxxxxxxxxxx |xxxxxxxxxxxxx |xxxxxxxxxxxxx |       715654 |       715654 |       715654 |xxxxxxxxxxxxx |xxxxxxxxxxxxx |xxxxxxxxxxxxx |xxxxxxxxxxxxx |      1528017 |      1528017 |      1528017 |xxxxxxxxxxxxx |xxxxxxxxxxxxx |xxxxxxxxxxxxx |xxxxxxxxxxxxx |      3252468 |      3252468 |      3252468 |xxxxxxxxxxxxx |xxxxxxxxxxxxx |xxxxxxxxxxxxx |xxxxxxxxxxxxx |      6891541 |      6891541 |      6891541 |xxxxxxxxxxxxx |xxxxxxxxxxxxx |xxxxxxxxxxxxx |xxxxxxxxxxxxx |     14581447 |     14581447 |     14581447 |xxxxxxxxxxxxx |xxxxxxxxxxxxx |xxxxxxxxxxxxx |xxxxxxxxxxxxx |     30712054 |     30712054 |     30712054 |xxxxxxxxxxxxx |xxxxxxxxxxxxx |xxxxxxxxxxxxx |xxxxxxxxxxxxx |     64609173 |     64609173 |     64609173 |xxxxxxxxxxxxx |xxxxxxxxxxxxx |xxxxxxxxxxxxx |xxxxxxxxxxxxx |    135419919 |    135419919 |    135419919 |xxxxxxxxxxxxx |xxxxxxxxxxxxx |xxxxxxxxxxxxx |xxxxxxxxxxxxx |    283584100 |    283584100 |    283584100 |
bpred_bimod.updates                         155005 |       155005 |       155005 |xxxxxxxxxxxxx |xxxxxxxxxxxxx |xxxxxxxxxxxxx |xxxxxxxxxxxxx |       333052 |       333052 |       333052 |xxxxxxxxxxxxx |xxxxxxxxxxxxx |xxxxxxxxxxxxx |xxxxxxxxxxxxx |       715654 |       715654 |       715654 |xxxxxxxxxxxxx |xxxxxxxxxxxxx |xxxxxxxxxxxxx |xxxxxxxxxxxxx |      1528017 |      1528017 |      1528017 |xxxxxxxxxxxxx |xxxxxxxxxxxxx |xxxxxxxxxxxxx |xxxxxxxxxxxxx |      3252468 |      3252468 |      3252468 |xxxxxxxxxxxxx |xxxxxxxxxxxxx |xxxxxxxxxxxxx |xxxxxxxxxxxxx |      6891541 |      6891541 |      6891541 |xxxxxxxxxxxxx |xxxxxxxxxxxxx |xxxxxxxxxxxxx |xxxxxxxxxxxxx |     14581447 |     14581447 |     14581447 |xxxxxxxxxxxxx |xxxxxxxxxxxxx |xxxxxxxxxxxxx |xxxxxxxxxxxxx |     30712054 |     30712054 |     30712054 |xxxxxxxxxxxxx |xxxxxxxxxxxxx |xxxxxxxxxxxxx |xxxxxxxxxxxxx |     64609173 |     64609173 |     64609173 |xxxxxxxxxxxxx |xxxxxxxxxxxxx |xxxxxxxxxxxxx |xxxxxxxxxxxxx |    135419919 |    135419919 |    135419919 |xxxxxxxxxxxxx |xxxxxxxxxxxxx |xxxxxxxxxxxxx |xxxxxxxxxxxxx |    283584100 |    283584100 |    283584100 |
bpred_bimod.addr_hits                       124126 |       124134 |       124134 |xxxxxxxxxxxxx |xxxxxxxxxxxxx |xxxxxxxxxxxxx |xxxxxxxxxxxxx |       266725 |       266731 |       266732 |xxxxxxxxxxxxx |xxxxxxxxxxxxx |xxxxxxxxxxxxx |xxxxxxxxxxxxx |       573301 |       573307 |       573308 |xxxxxxxxxxxxx |xxxxxxxxxxxxx |xxxxxxxxxxxxx |xxxxxxxxxxxxx |      1223137 |      1223143 |      1223146 |xxxxxxxxxxxxx |xxxxxxxxxxxxx |xxxxxxxxxxxxx |xxxxxxxxxxxxx |      2604581 |      2604587 |      2604590 |xxxxxxxxxxxxx |xxxxxxxxxxxxx |xxxxxxxxxxxxx |xxxxxxxxxxxxx |      5514180 |      5514187 |      5514189 |xxxxxxxxxxxxx |xxxxxxxxxxxxx |xxxxxxxxxxxxx |xxxxxxxxxxxxx |     11669909 |     11669916 |     11669918 |xxxxxxxxxxxxx |xxxxxxxxxxxxx |xxxxxxxxxxxxx |xxxxxxxxxxxxx |     24564869 |     24564876 |     24564878 |xxxxxxxxxxxxx |xxxxxxxxxxxxx |xxxxxxxxxxxxx |xxxxxxxxxxxxx |     51722119 |     51722125 |     51722126 |xxxxxxxxxxxxx |xxxxxxxxxxxxx |xxxxxxxxxxxxx |xxxxxxxxxxxxx |    108319115 |    108319121 |    108319122 |xxxxxxxxxxxxx |xxxxxxxxxxxxx |xxxxxxxxxxxxx |xxxxxxxxxxxxx |    226965679 |    226965685 |    226965686 |
bpred_bimod.dir_hits                        124248 |       124256 |       124257 |xxxxxxxxxxxxx |xxxxxxxxxxxxx |xxxxxxxxxxxxx |xxxxxxxxxxxxx |       266852 |       266858 |       266859 |xxxxxxxxxxxxx |xxxxxxxxxxxxx |xxxxxxxxxxxxx |xxxxxxxxxxxxx |       573427 |       573433 |       573434 |xxxxxxxxxxxxx |xxxxxxxxxxxxx |xxxxxxxxxxxxx |xxxxxxxxxxxxx |      1223262 |      1223268 |      1223271 |xxxxxxxxxxxxx |xxxxxxxxxxxxx |xxxxxxxxxxxxx |xxxxxxxxxxxxx |      2604706 |      2604712 |      2604715 |xxxxxxxxxxxxx |xxxxxxxxxxxxx |xxxxxxxxxxxxx |xxxxxxxxxxxxx |      5514306 |      5514313 |      5514315 |xxxxxxxxxxxxx |xxxxxxxxxxxxx |xxxxxxxxxxxxx |xxxxxxxxxxxxx |     11670034 |     11670041 |     11670043 |xxxxxxxxxxxxx |xxxxxxxxxxxxx |xxxxxxxxxxxxx |xxxxxxxxxxxxx |     24564994 |     24565001 |     24565003 |xxxxxxxxxxxxx |xxxxxxxxxxxxx |xxxxxxxxxxxxx |xxxxxxxxxxxxx |     51722257 |     51722263 |     51722264 |xxxxxxxxxxxxx |xxxxxxxxxxxxx |xxxxxxxxxxxxx |xxxxxxxxxxxxx |    108319253 |    108319259 |    108319260 |xxxxxxxxxxxxx |xxxxxxxxxxxxx |xxxxxxxxxxxxx |xxxxxxxxxxxxx |    226965817 |    226965823 |    226965824 |
bpred_bimod.misses                           30757 |        30749 |        30748 |xxxxxxxxxxxxx |xxxxxxxxxxxxx |xxxxxxxxxxxxx |xxxxxxxxxxxxx |        66200 |        66194 |        66193 |xxxxxxxxxxxxx |xxxxxxxxxxxxx |xxxxxxxxxxxxx |xxxxxxxxxxxxx |       142227 |       142221 |       142220 |xxxxxxxxxxxxx |xxxxxxxxxxxxx |xxxxxxxxxxxxx |xxxxxxxxxxxxx |       304755 |       304749 |       304746 |xxxxxxxxxxxxx |xxxxxxxxxxxxx |xxxxxxxxxxxxx |xxxxxxxxxxxxx |       647762 |       647756 |       647753 |xxxxxxxxxxxxx |xxxxxxxxxxxxx |xxxxxxxxxxxxx |xxxxxxxxxxxxx |      1377235 |      1377228 |      1377226 |xxxxxxxxxxxxx |xxxxxxxxxxxxx |xxxxxxxxxxxxx |xxxxxxxxxxxxx |      2911413 |      2911406 |      2911404 |xxxxxxxxxxxxx |xxxxxxxxxxxxx |xxxxxxxxxxxxx |xxxxxxxxxxxxx |      6147060 |      6147053 |      6147051 |xxxxxxxxxxxxx |xxxxxxxxxxxxx |xxxxxxxxxxxxx |xxxxxxxxxxxxx |     12886916 |     12886910 |     12886909 |xxxxxxxxxxxxx |xxxxxxxxxxxxx |xxxxxxxxxxxxx |xxxxxxxxxxxxx |     27100666 |     27100660 |     27100659 |xxxxxxxxxxxxx |xxxxxxxxxxxxx |xxxxxxxxxxxxx |xxxxxxxxxxxxx |     56618283 |     56618277 |     56618276 |
bpred_bimod.jr_hits                           4157 |         4157 |         4157 |xxxxxxxxxxxxx |xxxxxxxxxxxxx |xxxxxxxxxxxxx |xxxxxxxxxxxxx |         8261 |         8261 |         8261 |xxxxxxxxxxxxx |xxxxxxxxxxxxx |xxxxxxxxxxxxx |xxxxxxxxxxxxx |        16453 |        16453 |        16453 |xxxxxxxxxxxxx |xxxxxxxxxxxxx |xxxxxxxxxxxxx |xxxxxxxxxxxxx |        32837 |        32837 |        32837 |xxxxxxxxxxxxx |xxxxxxxxxxxxx |xxxxxxxxxxxxx |xxxxxxxxxxxxx |        65605 |        65605 |        65605 |xxxxxxxxxxxxx |xxxxxxxxxxxxx |xxxxxxxxxxxxx |xxxxxxxxxxxxx |       131141 |       131141 |       131141 |xxxxxxxxxxxxx |xxxxxxxxxxxxx |xxxxxxxxxxxxx |xxxxxxxxxxxxx |       262213 |       262213 |       262213 |xxxxxxxxxxxxx |xxxxxxxxxxxxx |xxxxxxxxxxxxx |xxxxxxxxxxxxx |       524357 |       524357 |       524357 |xxxxxxxxxxxxx |xxxxxxxxxxxxx |xxxxxxxxxxxxx |xxxxxxxxxxxxx |      1048648 |      1048648 |      1048648 |xxxxxxxxxxxxx |xxxxxxxxxxxxx |xxxxxxxxxxxxx |xxxxxxxxxxxxx |      2097224 |      2097224 |      2097224 |xxxxxxxxxxxxx |xxxxxxxxxxxxx |xxxxxxxxxxxxx |xxxxxxxxxxxxx |      4194376 |      4194376 |      4194376 |
bpred_bimod.jr_seen                           4157 |         4157 |         4157 |xxxxxxxxxxxxx |xxxxxxxxxxxxx |xxxxxxxxxxxxx |xxxxxxxxxxxxx |         8262 |         8262 |         8262 |xxxxxxxxxxxxx |xxxxxxxxxxxxx |xxxxxxxxxxxxx |xxxxxxxxxxxxx |        16454 |        16454 |        16454 |xxxxxxxxxxxxx |xxxxxxxxxxxxx |xxxxxxxxxxxxx |xxxxxxxxxxxxx |        32838 |        32838 |        32838 |xxxxxxxxxxxxx |xxxxxxxxxxxxx |xxxxxxxxxxxxx |xxxxxxxxxxxxx |        65606 |        65606 |        65606 |xxxxxxxxxxxxx |xxxxxxxxxxxxx |xxxxxxxxxxxxx |xxxxxxxxxxxxx |       131142 |       131142 |       131142 |xxxxxxxxxxxxx |xxxxxxxxxxxxx |xxxxxxxxxxxxx |xxxxxxxxxxxxx |       262214 |       262214 |       262214 |xxxxxxxxxxxxx |xxxxxxxxxxxxx |xxxxxxxxxxxxx |xxxxxxxxxxxxx |       524358 |       524358 |       524358 |xxxxxxxxxxxxx |xxxxxxxxxxxxx |xxxxxxxxxxxxx |xxxxxxxxxxxxx |      1048649 |      1048649 |      1048649 |xxxxxxxxxxxxx |xxxxxxxxxxxxx |xxxxxxxxxxxxx |xxxxxxxxxxxxx |      2097225 |      2097225 |      2097225 |xxxxxxxxxxxxx |xxxxxxxxxxxxx |xxxxxxxxxxxxx |xxxxxxxxxxxxx |      4194377 |      4194377 |      4194377 |
bpred_bimod.jr_non_ras_hits.PP                   0 |            0 |            0 |xxxxxxxxxxxxx |xxxxxxxxxxxxx |xxxxxxxxxxxxx |xxxxxxxxxxxxx |            0 |            0 |            0 |xxxxxxxxxxxxx |xxxxxxxxxxxxx |xxxxxxxxxxxxx |xxxxxxxxxxxxx |            0 |            0 |            0 |xxxxxxxxxxxxx |xxxxxxxxxxxxx |xxxxxxxxxxxxx |xxxxxxxxxxxxx |            0 |            0 |            0 |xxxxxxxxxxxxx |xxxxxxxxxxxxx |xxxxxxxxxxxxx |xxxxxxxxxxxxx |            0 |            0 |            0 |xxxxxxxxxxxxx |xxxxxxxxxxxxx |xxxxxxxxxxxxx |xxxxxxxxxxxxx |            0 |            0 |            0 |xxxxxxxxxxxxx |xxxxxxxxxxxxx |xxxxxxxxxxxxx |xxxxxxxxxxxxx |            0 |            0 |            0 |xxxxxxxxxxxxx |xxxxxxxxxxxxx |xxxxxxxxxxxxx |xxxxxxxxxxxxx |            0 |            0 |            0 |xxxxxxxxxxxxx |xxxxxxxxxxxxx |xxxxxxxxxxxxx |xxxxxxxxxxxxx |            0 |            0 |            0 |xxxxxxxxxxxxx |xxxxxxxxxxxxx |xxxxxxxxxxxxx |xxxxxxxxxxxxx |            0 |            0 |            0 |xxxxxxxxxxxxx |xxxxxxxxxxxxx |xxxxxxxxxxxxx |xxxxxxxxxxxxx |            0 |            0 |            0 |
bpred_bimod.jr_non_ras_seen.PP                   0 |            0 |            0 |xxxxxxxxxxxxx |xxxxxxxxxxxxx |xxxxxxxxxxxxx |xxxxxxxxxxxxx |            0 |            0 |            0 |xxxxxxxxxxxxx |xxxxxxxxxxxxx |xxxxxxxxxxxxx |xxxxxxxxxxxxx |            0 |            0 |            0 |xxxxxxxxxxxxx |xxxxxxxxxxxxx |xxxxxxxxxxxxx |xxxxxxxxxxxxx |            0 |            0 |            0 |xxxxxxxxxxxxx |xxxxxxxxxxxxx |xxxxxxxxxxxxx |xxxxxxxxxxxxx |            0 |            0 |            0 |xxxxxxxxxxxxx |xxxxxxxxxxxxx |xxxxxxxxxxxxx |xxxxxxxxxxxxx |            0 |            0 |            0 |xxxxxxxxxxxxx |xxxxxxxxxxxxx |xxxxxxxxxxxxx |xxxxxxxxxxxxx |            0 |            0 |            0 |xxxxxxxxxxxxx |xxxxxxxxxxxxx |xxxxxxxxxxxxx |xxxxxxxxxxxxx |            0 |            0 |            0 |xxxxxxxxxxxxx |xxxxxxxxxxxxx |xxxxxxxxxxxxx |xxxxxxxxxxxxx |            1 |            1 |            1 |xxxxxxxxxxxxx |xxxxxxxxxxxxx |xxxxxxxxxxxxx |xxxxxxxxxxxxx |            1 |            1 |            1 |xxxxxxxxxxxxx |xxxxxxxxxxxxx |xxxxxxxxxxxxx |xxxxxxxxxxxxx |            1 |            1 |            1 |
bpred_bimod.bpred_addr_rate                 0.8008 |       0.8008 |       0.8008 |xxxxxxxxxxxxx |xxxxxxxxxxxxx |xxxxxxxxxxxxx |xxxxxxxxxxxxx |       0.8009 |       0.8009 |       0.8009 |xxxxxxxxxxxxx |xxxxxxxxxxxxx |xxxxxxxxxxxxx |xxxxxxxxxxxxx |       0.8011 |       0.8011 |       0.8011 |xxxxxxxxxxxxx |xxxxxxxxxxxxx |xxxxxxxxxxxxx |xxxxxxxxxxxxx |       0.8005 |       0.8005 |       0.8005 |xxxxxxxxxxxxx |xxxxxxxxxxxxx |xxxxxxxxxxxxx |xxxxxxxxxxxxx |       0.8008 |       0.8008 |       0.8008 |xxxxxxxxxxxxx |xxxxxxxxxxxxx |xxxxxxxxxxxxx |xxxxxxxxxxxxx |       0.8001 |       0.8001 |       0.8001 |xxxxxxxxxxxxx |xxxxxxxxxxxxx |xxxxxxxxxxxxx |xxxxxxxxxxxxx |       0.8003 |       0.8003 |       0.8003 |xxxxxxxxxxxxx |xxxxxxxxxxxxx |xxxxxxxxxxxxx |xxxxxxxxxxxxx |       0.7998 |       0.7998 |       0.7998 |xxxxxxxxxxxxx |xxxxxxxxxxxxx |xxxxxxxxxxxxx |xxxxxxxxxxxxx |       0.8005 |       0.8005 |       0.8005 |xxxxxxxxxxxxx |xxxxxxxxxxxxx |xxxxxxxxxxxxx |xxxxxxxxxxxxx |       0.7999 |       0.7999 |       0.7999 |xxxxxxxxxxxxx |xxxxxxxxxxxxx |xxxxxxxxxxxxx |xxxxxxxxxxxxx |       0.8003 |       0.8003 |       0.8003 |
bpred_bimod.bpred_dir_rate                  0.8016 |       0.8016 |       0.8016 |xxxxxxxxxxxxx |xxxxxxxxxxxxx |xxxxxxxxxxxxx |xxxxxxxxxxxxx |       0.8012 |       0.8013 |       0.8013 |xxxxxxxxxxxxx |xxxxxxxxxxxxx |xxxxxxxxxxxxx |xxxxxxxxxxxxx |       0.8013 |       0.8013 |       0.8013 |xxxxxxxxxxxxx |xxxxxxxxxxxxx |xxxxxxxxxxxxx |xxxxxxxxxxxxx |       0.8006 |       0.8006 |       0.8006 |xxxxxxxxxxxxx |xxxxxxxxxxxxx |xxxxxxxxxxxxx |xxxxxxxxxxxxx |       0.8008 |       0.8008 |       0.8008 |xxxxxxxxxxxxx |xxxxxxxxxxxxx |xxxxxxxxxxxxx |xxxxxxxxxxxxx |       0.8002 |       0.8002 |       0.8002 |xxxxxxxxxxxxx |xxxxxxxxxxxxx |xxxxxxxxxxxxx |xxxxxxxxxxxxx |       0.8003 |       0.8003 |       0.8003 |xxxxxxxxxxxxx |xxxxxxxxxxxxx |xxxxxxxxxxxxx |xxxxxxxxxxxxx |       0.7998 |       0.7998 |       0.7998 |xxxxxxxxxxxxx |xxxxxxxxxxxxx |xxxxxxxxxxxxx |xxxxxxxxxxxxx |       0.8005 |       0.8005 |       0.8005 |xxxxxxxxxxxxx |xxxxxxxxxxxxx |xxxxxxxxxxxxx |xxxxxxxxxxxxx |       0.7999 |       0.7999 |       0.7999 |xxxxxxxxxxxxx |xxxxxxxxxxxxx |xxxxxxxxxxxxx |xxxxxxxxxxxxx |       0.8003 |       0.8003 |       0.8003 |
bpred_bimod.bpred_jr_rate                   1.0000 |       1.0000 |       1.0000 |xxxxxxxxxxxxx |xxxxxxxxxxxxx |xxxxxxxxxxxxx |xxxxxxxxxxxxx |       0.9999 |       0.9999 |       0.9999 |xxxxxxxxxxxxx |xxxxxxxxxxxxx |xxxxxxxxxxxxx |xxxxxxxxxxxxx |       0.9999 |       0.9999 |       0.9999 |xxxxxxxxxxxxx |xxxxxxxxxxxxx |xxxxxxxxxxxxx |xxxxxxxxxxxxx |       1.0000 |       1.0000 |       1.0000 |xxxxxxxxxxxxx |xxxxxxxxxxxxx |xxxxxxxxxxxxx |xxxxxxxxxxxxx |       1.0000 |       1.0000 |       1.0000 |xxxxxxxxxxxxx |xxxxxxxxxxxxx |xxxxxxxxxxxxx |xxxxxxxxxxxxx |       1.0000 |       1.0000 |       1.0000 |xxxxxxxxxxxxx |xxxxxxxxxxxxx |xxxxxxxxxxxxx |xxxxxxxxxxxxx |       1.0000 |       1.0000 |       1.0000 |xxxxxxxxxxxxx |xxxxxxxxxxxxx |xxxxxxxxxxxxx |xxxxxxxxxxxxx |       1.0000 |       1.0000 |       1.0000 |xxxxxxxxxxxxx |xxxxxxxxxxxxx |xxxxxxxxxxxxx |xxxxxxxxxxxxx |       1.0000 |       1.0000 |       1.0000 |xxxxxxxxxxxxx |xxxxxxxxxxxxx |xxxxxxxxxxxxx |xxxxxxxxxxxxx |       1.0000 |       1.0000 |       1.0000 |xxxxxxxxxxxxx |xxxxxxxxxxxxx |xxxxxxxxxxxxx |xxxxxxxxxxxxx |       1.0000 |       1.0000 |       1.0000 |
bpred_bimod.bpred_jr_non_ras_rate.PP       <error: |      <error: |      <error: |xxxxxxxxxxxxx |xxxxxxxxxxxxx |xxxxxxxxxxxxx |xxxxxxxxxxxxx |      <error: |      <error: |      <error: |xxxxxxxxxxxxx |xxxxxxxxxxxxx |xxxxxxxxxxxxx |xxxxxxxxxxxxx |      <error: |      <error: |      <error: |xxxxxxxxxxxxx |xxxxxxxxxxxxx |xxxxxxxxxxxxx |xxxxxxxxxxxxx |      <error: |      <error: |      <error: |xxxxxxxxxxxxx |xxxxxxxxxxxxx |xxxxxxxxxxxxx |xxxxxxxxxxxxx |      <error: |      <error: |      <error: |xxxxxxxxxxxxx |xxxxxxxxxxxxx |xxxxxxxxxxxxx |xxxxxxxxxxxxx |      <error: |      <error: |      <error: |xxxxxxxxxxxxx |xxxxxxxxxxxxx |xxxxxxxxxxxxx |xxxxxxxxxxxxx |      <error: |      <error: |      <error: |xxxxxxxxxxxxx |xxxxxxxxxxxxx |xxxxxxxxxxxxx |xxxxxxxxxxxxx |      <error: |      <error: |      <error: |xxxxxxxxxxxxx |xxxxxxxxxxxxx |xxxxxxxxxxxxx |xxxxxxxxxxxxx |       0.0000 |       0.0000 |       0.0000 |xxxxxxxxxxxxx |xxxxxxxxxxxxx |xxxxxxxxxxxxx |xxxxxxxxxxxxx |       0.0000 |       0.0000 |       0.0000 |xxxxxxxxxxxxx |xxxxxxxxxxxxx |xxxxxxxxxxxxx |xxxxxxxxxxxxx |       0.0000 |       0.0000 |       0.0000 |
bpred_bimod.retstack_pushes                   4159 |         4159 |         4159 |xxxxxxxxxxxxx |xxxxxxxxxxxxx |xxxxxxxxxxxxx |xxxxxxxxxxxxx |         8264 |         8264 |         8264 |xxxxxxxxxxxxx |xxxxxxxxxxxxx |xxxxxxxxxxxxx |xxxxxxxxxxxxx |        16456 |        16456 |        16456 |xxxxxxxxxxxxx |xxxxxxxxxxxxx |xxxxxxxxxxxxx |xxxxxxxxxxxxx |        32840 |        32840 |        32840 |xxxxxxxxxxxxx |xxxxxxxxxxxxx |xxxxxxxxxxxxx |xxxxxxxxxxxxx |        65608 |        65608 |        65608 |xxxxxxxxxxxxx |xxxxxxxxxxxxx |xxxxxxxxxxxxx |xxxxxxxxxxxxx |       131144 |       131144 |       131144 |xxxxxxxxxxxxx |xxxxxxxxxxxxx |xxxxxxxxxxxxx |xxxxxxxxxxxxx |       262216 |       262216 |       262216 |xxxxxxxxxxxxx |xxxxxxxxxxxxx |xxxxxxxxxxxxx |xxxxxxxxxxxxx |       524360 |       524360 |       524360 |xxxxxxxxxxxxx |xxxxxxxxxxxxx |xxxxxxxxxxxxx |xxxxxxxxxxxxx |      1048650 |      1048650 |      1048650 |xxxxxxxxxxxxx |xxxxxxxxxxxxx |xxxxxxxxxxxxx |xxxxxxxxxxxxx |      2097226 |      2097226 |      2097226 |xxxxxxxxxxxxx |xxxxxxxxxxxxx |xxxxxxxxxxxxx |xxxxxxxxxxxxx |      4194378 |      4194378 |      4194378 |
bpred_bimod.retstack_pops                     4157 |         4157 |         4157 |xxxxxxxxxxxxx |xxxxxxxxxxxxx |xxxxxxxxxxxxx |xxxxxxxxxxxxx |         8262 |         8262 |         8262 |xxxxxxxxxxxxx |xxxxxxxxxxxxx |xxxxxxxxxxxxx |xxxxxxxxxxxxx |        16454 |        16454 |        16454 |xxxxxxxxxxxxx |xxxxxxxxxxxxx |xxxxxxxxxxxxx |xxxxxxxxxxxxx |        32838 |        32838 |        32838 |xxxxxxxxxxxxx |xxxxxxxxxxxxx |xxxxxxxxxxxxx |xxxxxxxxxxxxx |        65606 |        65606 |        65606 |xxxxxxxxxxxxx |xxxxxxxxxxxxx |xxxxxxxxxxxxx |xxxxxxxxxxxxx |       131142 |       131142 |       131142 |xxxxxxxxxxxxx |xxxxxxxxxxxxx |xxxxxxxxxxxxx |xxxxxxxxxxxxx |       262214 |       262214 |       262214 |xxxxxxxxxxxxx |xxxxxxxxxxxxx |xxxxxxxxxxxxx |xxxxxxxxxxxxx |       524358 |       524358 |       524358 |xxxxxxxxxxxxx |xxxxxxxxxxxxx |xxxxxxxxxxxxx |xxxxxxxxxxxxx |      1048648 |      1048648 |      1048648 |xxxxxxxxxxxxx |xxxxxxxxxxxxx |xxxxxxxxxxxxx |xxxxxxxxxxxxx |      2097224 |      2097224 |      2097224 |xxxxxxxxxxxxx |xxxxxxxxxxxxx |xxxxxxxxxxxxx |xxxxxxxxxxxxx |      4194376 |      4194376 |      4194376 |
bpred_bimod.used_ras.PP                       4157 |         4157 |         4157 |xxxxxxxxxxxxx |xxxxxxxxxxxxx |xxxxxxxxxxxxx |xxxxxxxxxxxxx |         8262 |         8262 |         8262 |xxxxxxxxxxxxx |xxxxxxxxxxxxx |xxxxxxxxxxxxx |xxxxxxxxxxxxx |        16454 |        16454 |        16454 |xxxxxxxxxxxxx |xxxxxxxxxxxxx |xxxxxxxxxxxxx |xxxxxxxxxxxxx |        32838 |        32838 |        32838 |xxxxxxxxxxxxx |xxxxxxxxxxxxx |xxxxxxxxxxxxx |xxxxxxxxxxxxx |        65606 |        65606 |        65606 |xxxxxxxxxxxxx |xxxxxxxxxxxxx |xxxxxxxxxxxxx |xxxxxxxxxxxxx |       131142 |       131142 |       131142 |xxxxxxxxxxxxx |xxxxxxxxxxxxx |xxxxxxxxxxxxx |xxxxxxxxxxxxx |       262214 |       262214 |       262214 |xxxxxxxxxxxxx |xxxxxxxxxxxxx |xxxxxxxxxxxxx |xxxxxxxxxxxxx |       524358 |       524358 |       524358 |xxxxxxxxxxxxx |xxxxxxxxxxxxx |xxxxxxxxxxxxx |xxxxxxxxxxxxx |      1048648 |      1048648 |      1048648 |xxxxxxxxxxxxx |xxxxxxxxxxxxx |xxxxxxxxxxxxx |xxxxxxxxxxxxx |      2097224 |      2097224 |      2097224 |xxxxxxxxxxxxx |xxxxxxxxxxxxx |xxxxxxxxxxxxx |xxxxxxxxxxxxx |      4194376 |      4194376 |      4194376 |
bpred_bimod.ras_hits.PP                       4157 |         4157 |         4157 |xxxxxxxxxxxxx |xxxxxxxxxxxxx |xxxxxxxxxxxxx |xxxxxxxxxxxxx |         8261 |         8261 |         8261 |xxxxxxxxxxxxx |xxxxxxxxxxxxx |xxxxxxxxxxxxx |xxxxxxxxxxxxx |        16453 |        16453 |        16453 |xxxxxxxxxxxxx |xxxxxxxxxxxxx |xxxxxxxxxxxxx |xxxxxxxxxxxxx |        32837 |        32837 |        32837 |xxxxxxxxxxxxx |xxxxxxxxxxxxx |xxxxxxxxxxxxx |xxxxxxxxxxxxx |        65605 |        65605 |        65605 |xxxxxxxxxxxxx |xxxxxxxxxxxxx |xxxxxxxxxxxxx |xxxxxxxxxxxxx |       131141 |       131141 |       131141 |xxxxxxxxxxxxx |xxxxxxxxxxxxx |xxxxxxxxxxxxx |xxxxxxxxxxxxx |       262213 |       262213 |       262213 |xxxxxxxxxxxxx |xxxxxxxxxxxxx |xxxxxxxxxxxxx |xxxxxxxxxxxxx |       524357 |       524357 |       524357 |xxxxxxxxxxxxx |xxxxxxxxxxxxx |xxxxxxxxxxxxx |xxxxxxxxxxxxx |      1048648 |      1048648 |      1048648 |xxxxxxxxxxxxx |xxxxxxxxxxxxx |xxxxxxxxxxxxx |xxxxxxxxxxxxx |      2097224 |      2097224 |      2097224 |xxxxxxxxxxxxx |xxxxxxxxxxxxx |xxxxxxxxxxxxx |xxxxxxxxxxxxx |      4194376 |      4194376 |      4194376 |
bpred_bimod.ras_rate.PP                     1.0000 |       1.0000 |       1.0000 |xxxxxxxxxxxxx |xxxxxxxxxxxxx |xxxxxxxxxxxxx |xxxxxxxxxxxxx |       0.9999 |       0.9999 |       0.9999 |xxxxxxxxxxxxx |xxxxxxxxxxxxx |xxxxxxxxxxxxx |xxxxxxxxxxxxx |       0.9999 |       0.9999 |       0.9999 |xxxxxxxxxxxxx |xxxxxxxxxxxxx |xxxxxxxxxxxxx |xxxxxxxxxxxxx |       1.0000 |       1.0000 |       1.0000 |xxxxxxxxxxxxx |xxxxxxxxxxxxx |xxxxxxxxxxxxx |xxxxxxxxxxxxx |       1.0000 |       1.0000 |       1.0000 |xxxxxxxxxxxxx |xxxxxxxxxxxxx |xxxxxxxxxxxxx |xxxxxxxxxxxxx |       1.0000 |       1.0000 |       1.0000 |xxxxxxxxxxxxx |xxxxxxxxxxxxx |xxxxxxxxxxxxx |xxxxxxxxxxxxx |       1.0000 |       1.0000 |       1.0000 |xxxxxxxxxxxxx |xxxxxxxxxxxxx |xxxxxxxxxxxxx |xxxxxxxxxxxxx |       1.0000 |       1.0000 |       1.0000 |xxxxxxxxxxxxx |xxxxxxxxxxxxx |xxxxxxxxxxxxx |xxxxxxxxxxxxx |       1.0000 |       1.0000 |       1.0000 |xxxxxxxxxxxxx |xxxxxxxxxxxxx |xxxxxxxxxxxxx |xxxxxxxxxxxxx |       1.0000 |       1.0000 |       1.0000 |xxxxxxxxxxxxx |xxxxxxxxxxxxx |xxxxxxxxxxxxx |xxxxxxxxxxxxx |       1.0000 |       1.0000 |       1.0000 |
bpred_2lev.lookups                   xxxxxxxxxxxxx |xxxxxxxxxxxxx |xxxxxxxxxxxxx |       155005 |       155005 |       155005 |       155005 |xxxxxxxxxxxxx |xxxxxxxxxxxxx |xxxxxxxxxxxxx |       333052 |       333052 |       333052 |       333052 |xxxxxxxxxxxxx |xxxxxxxxxxxxx |xxxxxxxxxxxxx |       715654 |       715654 |       715654 |       715654 |xxxxxxxxxxxxx |xxxxxxxxxxxxx |xxxxxxxxxxxxx |      1528017 |      1528017 |      1528017 |      1528017 |xxxxxxxxxxxxx |xxxxxxxxxxxxx |xxxxxxxxxxxxx |      3252468 |      3252468 |      3252468 |      3252468 |xxxxxxxxxxxxx |xxxxxxxxxxxxx |xxxxxxxxxxxxx |      6891541 |      6891541 |      6891541 |      6891541 |xxxxxxxxxxxxx |xxxxxxxxxxxxx |xxxxxxxxxxxxx |     14581447 |     14581447 |     14581447 |     14581447 |xxxxxxxxxxxxx |xxxxxxxxxxxxx |xxxxxxxxxxxxx |     30712054 |     30712054 |     30712054 |     30712054 |xxxxxxxxxxxxx |xxxxxxxxxxxxx |xxxxxxxxxxxxx |     64609173 |     64609173 |     64609173 |     64609173 |xxxxxxxxxxxxx |xxxxxxxxxxxxx |xxxxxxxxxxxxx |    135419919 |    135419919 |    135419919 |    135419919 |xxxxxxxxxxxxx |xxxxxxxxxxxxx |xxxxxxxxxxxxx |    283584100 |    283584100 |    283584100 |    283584100 |
[...]
bpred_2lev.retstack_pushes           xxxxxxxxxxxxx |xxxxxxxxxxxxx |xxxxxxxxxxxxx |         4159 |         4159 |         4159 |         4159 |xxxxxxxxxxxxx |xxxxxxxxxxxxx |xxxxxxxxxxxxx |         8264 |         8264 |         8264 |         8264 |xxxxxxxxxxxxx |xxxxxxxxxxxxx |xxxxxxxxxxxxx |        16456 |        16456 |        16456 |        16456 |xxxxxxxxxxxxx |xxxxxxxxxxxxx |xxxxxxxxxxxxx |        32840 |        32840 |        32840 |        32840 |xxxxxxxxxxxxx |xxxxxxxxxxxxx |xxxxxxxxxxxxx |        65608 |        65608 |        65608 |        65608 |xxxxxxxxxxxxx |xxxxxxxxxxxxx |xxxxxxxxxxxxx |       131144 |       131144 |       131144 |       131144 |xxxxxxxxxxxxx |xxxxxxxxxxxxx |xxxxxxxxxxxxx |       262216 |       262216 |       262216 |       262216 |xxxxxxxxxxxxx |xxxxxxxxxxxxx |xxxxxxxxxxxxx |       524360 |       524360 |       524360 |       524360 |xxxxxxxxxxxxx |xxxxxxxxxxxxx |xxxxxxxxxxxxx |      1048650 |      1048650 |      1048650 |      1048650 |xxxxxxxxxxxxx |xxxxxxxxxxxxx |xxxxxxxxxxxxx |      2097226 |      2097226 |      2097226 |      2097226 |xxxxxxxxxxxxx |xxxxxxxxxxxxx |xxxxxxxxxxxxx |      4194378 |      4194378 |      4194378 |      4194378 |
bpred_2lev.retstack_pops             xxxxxxxxxxxxx |xxxxxxxxxxxxx |xxxxxxxxxxxxx |         4157 |         4157 |         4157 |         4157 |xxxxxxxxxxxxx |xxxxxxxxxxxxx |xxxxxxxxxxxxx |         8262 |         8262 |         8262 |         8262 |xxxxxxxxxxxxx |xxxxxxxxxxxxx |xxxxxxxxxxxxx |        16454 |        16454 |        16454 |        16454 |xxxxxxxxxxxxx |xxxxxxxxxxxxx |xxxxxxxxxxxxx |        32838 |        32838 |        32838 |        32838 |xxxxxxxxxxxxx |xxxxxxxxxxxxx |xxxxxxxxxxxxx |        65606 |        65606 |        65606 |        65606 |xxxxxxxxxxxxx |xxxxxxxxxxxxx |xxxxxxxxxxxxx |       131142 |       131142 |       131142 |       131142 |xxxxxxxxxxxxx |xxxxxxxxxxxxx |xxxxxxxxxxxxx |       262214 |       262214 |       262214 |       262214 |xxxxxxxxxxxxx |xxxxxxxxxxxxx |xxxxxxxxxxxxx |       524358 |       524358 |       524358 |       524358 |xxxxxxxxxxxxx |xxxxxxxxxxxxx |xxxxxxxxxxxxx |      1048648 |      1048648 |      1048648 |      1048648 |xxxxxxxxxxxxx |xxxxxxxxxxxxx |xxxxxxxxxxxxx |      2097224 |      2097224 |      2097224 |      2097224 |xxxxxxxxxxxxx |xxxxxxxxxxxxx |xxxxxxxxxxxxx |      4194376 |      4194376 |      4194376 |      4194376 |
bpred_2lev.used_ras.PP               xxxxxxxxxxxxx |xxxxxxxxxxxxx |xxxxxxxxxxxxx |         4157 |         4157 |         4157 |         4157 |xxxxxxxxxxxxx |xxxxxxxxxxxxx |xxxxxxxxxxxxx |         8262 |         8262 |         8262 |         8262 |xxxxxxxxxxxxx |xxxxxxxxxxxxx |xxxxxxxxxxxxx |        16454 |        16454 |        16454 |        16454 |xxxxxxxxxxxxx |xxxxxxxxxxxxx |xxxxxxxxxxxxx |        32838 |        32838 |        32838 |        32838 |xxxxxxxxxxxxx |xxxxxxxxxxxxx |xxxxxxxxxxxxx |        65606 |        65606 |        65606 |        65606 |xxxxxxxxxxxxx |xxxxxxxxxxxxx |xxxxxxxxxxxxx |       131142 |       131142 |       131142 |       131142 |xxxxxxxxxxxxx |xxxxxxxxxxxxx |xxxxxxxxxxxxx |       262214 |       262214 |       262214 |       262214 |xxxxxxxxxxxxx |xxxxxxxxxxxxx |xxxxxxxxxxxxx |       524358 |       524358 |       524358 |       524358 |xxxxxxxxxxxxx |xxxxxxxxxxxxx |xxxxxxxxxxxxx |      1048648 |      1048648 |      1048648 |      1048648 |xxxxxxxxxxxxx |xxxxxxxxxxxxx |xxxxxxxxxxxxx |      2097224 |      2097224 |      2097224 |      2097224 |xxxxxxxxxxxxx |xxxxxxxxxxxxx |xxxxxxxxxxxxx |      4194376 |      4194376 |      4194376 |      4194376 |
bpred_2lev.ras_hits.PP               xxxxxxxxxxxxx |xxxxxxxxxxxxx |xxxxxxxxxxxxx |         4157 |         4157 |         4157 |         4157 |xxxxxxxxxxxxx |xxxxxxxxxxxxx |xxxxxxxxxxxxx |         8261 |         8261 |         8261 |         8261 |xxxxxxxxxxxxx |xxxxxxxxxxxxx |xxxxxxxxxxxxx |        16453 |        16453 |        16453 |        16453 |xxxxxxxxxxxxx |xxxxxxxxxxxxx |xxxxxxxxxxxxx |        32837 |        32837 |        32837 |        32837 |xxxxxxxxxxxxx |xxxxxxxxxxxxx |xxxxxxxxxxxxx |        65605 |        65605 |        65605 |        65605 |xxxxxxxxxxxxx |xxxxxxxxxxxxx |xxxxxxxxxxxxx |       131141 |       131141 |       131141 |       131141 |xxxxxxxxxxxxx |xxxxxxxxxxxxx |xxxxxxxxxxxxx |       262213 |       262213 |       262213 |       262213 |xxxxxxxxxxxxx |xxxxxxxxxxxxx |xxxxxxxxxxxxx |       524357 |       524357 |       524357 |       524357 |xxxxxxxxxxxxx |xxxxxxxxxxxxx |xxxxxxxxxxxxx |      1048648 |      1048648 |      1048648 |      1048648 |xxxxxxxxxxxxx |xxxxxxxxxxxxx |xxxxxxxxxxxxx |      2097224 |      2097224 |      2097224 |      2097224 |xxxxxxxxxxxxx |xxxxxxxxxxxxx |xxxxxxxxxxxxx |      4194376 |      4194376 |      4194376 |      4194376 |
bpred_2lev.ras_rate.PP               xxxxxxxxxxxxx |xxxxxxxxxxxxx |xxxxxxxxxxxxx |       1.0000 |       1.0000 |       1.0000 |       1.0000 |xxxxxxxxxxxxx |xxxxxxxxxxxxx |xxxxxxxxxxxxx |       0.9999 |       0.9999 |       0.9999 |       0.9999 |xxxxxxxxxxxxx |xxxxxxxxxxxxx |xxxxxxxxxxxxx |       0.9999 |       0.9999 |       0.9999 |       0.9999 |xxxxxxxxxxxxx |xxxxxxxxxxxxx |xxxxxxxxxxxxx |       1.0000 |       1.0000 |       1.0000 |       1.0000 |xxxxxxxxxxxxx |xxxxxxxxxxxxx |xxxxxxxxxxxxx |       1.0000 |       1.0000 |       1.0000 |       1.0000 |xxxxxxxxxxxxx |xxxxxxxxxxxxx |xxxxxxxxxxxxx |       1.0000 |       1.0000 |       1.0000 |       1.0000 |xxxxxxxxxxxxx |xxxxxxxxxxxxx |xxxxxxxxxxxxx |       1.0000 |       1.0000 |       1.0000 |       1.0000 |xxxxxxxxxxxxx |xxxxxxxxxxxxx |xxxxxxxxxxxxx |       1.0000 |       1.0000 |       1.0000 |       1.0000 |xxxxxxxxxxxxx |xxxxxxxxxxxxx |xxxxxxxxxxxxx |       1.0000 |       1.0000 |       1.0000 |       1.0000 |xxxxxxxxxxxxx |xxxxxxxxxxxxx |xxxxxxxxxxxxx |       1.0000 |       1.0000 |       1.0000 |       1.0000 |xxxxxxxxxxxxx |xxxxxxxxxxxxx |xxxxxxxxxxxxx |       1.0000 |       1.0000 |       1.0000 |       1.0000 |

Command list: 
	sslittle-na-sstrix-gcc -Wall -O3 -funroll-loops -finline-functions  -DRANDOM_SIZE=4096 -DOFFSET=1 -DSORT=cache4_heapsort sorts/cache4_heapsort1324085880.c simpleMain.c -o cache4_heapsort448100098
	sim-cache -cache:dl1 dl1:512:16:1:l -cache:dl2 dl2:262144:16:1:l -cache:il1 il1:512:16:1:l -cache:il2 dl2 cache4_heapsort448100098
	sim-cache -cache:dl1 dl1:512:16:1:l -cache:dl2 dl2:131072:16:1:l -cache:il1 il1:512:16:1:l -cache:il2 dl2 cache4_heapsort448100098
	sim-cache -cache:dl1 dl1:1:16:512:l -cache:dl2 dl2:1:16:262144:l -cache:il1 il1:1:16:512:l -cache:il2 dl2 cache4_heapsort448100098
	sim-cache -cache:dl1 dl1:1:16:512:l -cache:dl2 dl2:1:16:131072:l -cache:il1 il1:1:16:512:l -cache:il2 dl2 cache4_heapsort448100098
	sim-bpred -bpred bimod -bpred:bimod 512 cache4_heapsort448100098
	sim-bpred -bpred bimod -bpred:bimod 1024 cache4_heapsort448100098
	sim-bpred -bpred bimod -bpred:bimod 2048 cache4_heapsort448100098
	sim-bpred -bpred 2lev -bpred:2lev 1 512 10 1 cache4_heapsort448100098
	sim-bpred -bpred 2lev -bpred:2lev 1 1024 10 1 cache4_heapsort448100098
	sim-bpred -bpred 2lev -bpred:2lev 1 2048 10 1 cache4_heapsort448100098
	sim-bpred -bpred 2lev -bpred:2lev 1 4096 10 1 cache4_heapsort448100098
	sslittle-na-sstrix-gcc -Wall -O3 -funroll-loops -finline-functions  -DRANDOM_SIZE=8192 -DOFFSET=1 -DSORT=cache4_heapsort sorts/cache4_heapsort1324085880.c simpleMain.c -o cache4_heapsort448100098
	sim-cache -cache:dl1 dl1:512:16:1:l -cache:dl2 dl2:262144:16:1:l -cache:il1 il1:512:16:1:l -cache:il2 dl2 cache4_heapsort448100098
	sim-cache -cache:dl1 dl1:512:16:1:l -cache:dl2 dl2:131072:16:1:l -cache:il1 il1:512:16:1:l -cache:il2 dl2 cache4_heapsort448100098
	sim-cache -cache:dl1 dl1:1:16:512:l -cache:dl2 dl2:1:16:262144:l -cache:il1 il1:1:16:512:l -cache:il2 dl2 cache4_heapsort448100098
	sim-cache -cache:dl1 dl1:1:16:512:l -cache:dl2 dl2:1:16:131072:l -cache:il1 il1:1:16:512:l -cache:il2 dl2 cache4_heapsort448100098
	sim-bpred -bpred bimod -bpred:bimod 512 cache4_heapsort448100098
	sim-bpred -bpred bimod -bpred:bimod 1024 cache4_heapsort448100098
	sim-bpred -bpred bimod -bpred:bimod 2048 cache4_heapsort448100098
	sim-bpred -bpred 2lev -bpred:2lev 1 512 10 1 cache4_heapsort448100098
	sim-bpred -bpred 2lev -bpred:2lev 1 1024 10 1 cache4_heapsort448100098
	sim-bpred -bpred 2lev -bpred:2lev 1 2048 10 1 cache4_heapsort448100098
	sim-bpred -bpred 2lev -bpred:2lev 1 4096 10 1 cache4_heapsort448100098
	sslittle-na-sstrix-gcc -Wall -O3 -funroll-loops -finline-functions  -DRANDOM_SIZE=16384 -DOFFSET=1 -DSORT=cache4_heapsort sorts/cache4_heapsort1324085880.c simpleMain.c -o cache4_heapsort448100098
	sim-cache -cache:dl1 dl1:512:16:1:l -cache:dl2 dl2:262144:16:1:l -cache:il1 il1:512:16:1:l -cache:il2 dl2 cache4_heapsort448100098
	sim-cache -cache:dl1 dl1:512:16:1:l -cache:dl2 dl2:131072:16:1:l -cache:il1 il1:512:16:1:l -cache:il2 dl2 cache4_heapsort448100098
	sim-cache -cache:dl1 dl1:1:16:512:l -cache:dl2 dl2:1:16:262144:l -cache:il1 il1:1:16:512:l -cache:il2 dl2 cache4_heapsort448100098
	sim-cache -cache:dl1 dl1:1:16:512:l -cache:dl2 dl2:1:16:131072:l -cache:il1 il1:1:16:512:l -cache:il2 dl2 cache4_heapsort448100098
	sim-bpred -bpred bimod -bpred:bimod 512 cache4_heapsort448100098
	sim-bpred -bpred bimod -bpred:bimod 1024 cache4_heapsort448100098
	sim-bpred -bpred bimod -bpred:bimod 2048 cache4_heapsort448100098
	sim-bpred -bpred 2lev -bpred:2lev 1 512 10 1 cache4_heapsort448100098
	sim-bpred -bpred 2lev -bpred:2lev 1 1024 10 1 cache4_heapsort448100098
	sim-bpred -bpred 2lev -bpred:2lev 1 2048 10 1 cache4_heapsort448100098
	sim-bpred -bpred 2lev -bpred:2lev 1 4096 10 1 cache4_heapsort448100098
	sslittle-na-sstrix-gcc -Wall -O3 -funroll-loops -finline-functions  -DRANDOM_SIZE=32768 -DOFFSET=1 -DSORT=cache4_heapsort sorts/cache4_heapsort1324085880.c simpleMain.c -o cache4_heapsort448100098
	sim-cache -cache:dl1 dl1:512:16:1:l -cache:dl2 dl2:262144:16:1:l -cache:il1 il1:512:16:1:l -cache:il2 dl2 cache4_heapsort448100098
	sim-cache -cache:dl1 dl1:512:16:1:l -cache:dl2 dl2:131072:16:1:l -cache:il1 il1:512:16:1:l -cache:il2 dl2 cache4_heapsort448100098
	sim-cache -cache:dl1 dl1:1:16:512:l -cache:dl2 dl2:1:16:262144:l -cache:il1 il1:1:16:512:l -cache:il2 dl2 cache4_heapsort448100098
	sim-cache -cache:dl1 dl1:1:16:512:l -cache:dl2 dl2:1:16:131072:l -cache:il1 il1:1:16:512:l -cache:il2 dl2 cache4_heapsort448100098
	sim-bpred -bpred bimod -bpred:bimod 512 cache4_heapsort448100098
	sim-bpred -bpred bimod -bpred:bimod 1024 cache4_heapsort448100098
	sim-bpred -bpred bimod -bpred:bimod 2048 cache4_heapsort448100098
	sim-bpred -bpred 2lev -bpred:2lev 1 512 10 1 cache4_heapsort448100098
	sim-bpred -bpred 2lev -bpred:2lev 1 1024 10 1 cache4_heapsort448100098
	sim-bpred -bpred 2lev -bpred:2lev 1 2048 10 1 cache4_heapsort448100098
	sim-bpred -bpred 2lev -bpred:2lev 1 4096 10 1 cache4_heapsort448100098
	sslittle-na-sstrix-gcc -Wall -O3 -funroll-loops -finline-functions  -DRANDOM_SIZE=65536 -DOFFSET=1 -DSORT=cache4_heapsort sorts/cache4_heapsort1324085880.c simpleMain.c -o cache4_heapsort448100098
	sim-cache -cache:dl1 dl1:512:16:1:l -cache:dl2 dl2:262144:16:1:l -cache:il1 il1:512:16:1:l -cache:il2 dl2 cache4_heapsort448100098
	sim-cache -cache:dl1 dl1:512:16:1:l -cache:dl2 dl2:131072:16:1:l -cache:il1 il1:512:16:1:l -cache:il2 dl2 cache4_heapsort448100098
	sim-cache -cache:dl1 dl1:1:16:512:l -cache:dl2 dl2:1:16:262144:l -cache:il1 il1:1:16:512:l -cache:il2 dl2 cache4_heapsort448100098
	sim-cache -cache:dl1 dl1:1:16:512:l -cache:dl2 dl2:1:16:131072:l -cache:il1 il1:1:16:512:l -cache:il2 dl2 cache4_heapsort448100098
	sim-bpred -bpred bimod -bpred:bimod 512 cache4_heapsort448100098
	sim-bpred -bpred bimod -bpred:bimod 1024 cache4_heapsort448100098
	sim-bpred -bpred bimod -bpred:bimod 2048 cache4_heapsort448100098
	sim-bpred -bpred 2lev -bpred:2lev 1 512 10 1 cache4_heapsort448100098
	sim-bpred -bpred 2lev -bpred:2lev 1 1024 10 1 cache4_heapsort448100098
	sim-bpred -bpred 2lev -bpred:2lev 1 2048 10 1 cache4_heapsort448100098
	sim-bpred -bpred 2lev -bpred:2lev 1 4096 10 1 cache4_heapsort448100098
	sslittle-na-sstrix-gcc -Wall -O3 -funroll-loops -finline-functions  -DRANDOM_SIZE=131072 -DOFFSET=1 -DSORT=cache4_heapsort sorts/cache4_heapsort1324085880.c simpleMain.c -o cache4_heapsort448100098
	sim-cache -cache:dl1 dl1:512:16:1:l -cache:dl2 dl2:262144:16:1:l -cache:il1 il1:512:16:1:l -cache:il2 dl2 cache4_heapsort448100098
	sim-cache -cache:dl1 dl1:512:16:1:l -cache:dl2 dl2:131072:16:1:l -cache:il1 il1:512:16:1:l -cache:il2 dl2 cache4_heapsort448100098
	sim-cache -cache:dl1 dl1:1:16:512:l -cache:dl2 dl2:1:16:262144:l -cache:il1 il1:1:16:512:l -cache:il2 dl2 cache4_heapsort448100098
	sim-cache -cache:dl1 dl1:1:16:512:l -cache:dl2 dl2:1:16:131072:l -cache:il1 il1:1:16:512:l -cache:il2 dl2 cache4_heapsort448100098
	sim-bpred -bpred bimod -bpred:bimod 512 cache4_heapsort448100098
	sim-bpred -bpred bimod -bpred:bimod 1024 cache4_heapsort448100098
	sim-bpred -bpred bimod -bpred:bimod 2048 cache4_heapsort448100098
	sim-bpred -bpred 2lev -bpred:2lev 1 512 10 1 cache4_heapsort448100098
	sim-bpred -bpred 2lev -bpred:2lev 1 1024 10 1 cache4_heapsort448100098
	sim-bpred -bpred 2lev -bpred:2lev 1 2048 10 1 cache4_heapsort448100098
	sim-bpred -bpred 2lev -bpred:2lev 1 4096 10 1 cache4_heapsort448100098
	sslittle-na-sstrix-gcc -Wall -O3 -funroll-loops -finline-functions  -DRANDOM_SIZE=262144 -DOFFSET=1 -DSORT=cache4_heapsort sorts/cache4_heapsort1324085880.c simpleMain.c -o cache4_heapsort448100098
	sim-cache -cache:dl1 dl1:512:16:1:l -cache:dl2 dl2:262144:16:1:l -cache:il1 il1:512:16:1:l -cache:il2 dl2 cache4_heapsort448100098
	sim-cache -cache:dl1 dl1:512:16:1:l -cache:dl2 dl2:131072:16:1:l -cache:il1 il1:512:16:1:l -cache:il2 dl2 cache4_heapsort448100098
	sim-cache -cache:dl1 dl1:1:16:512:l -cache:dl2 dl2:1:16:262144:l -cache:il1 il1:1:16:512:l -cache:il2 dl2 cache4_heapsort448100098
	sim-cache -cache:dl1 dl1:1:16:512:l -cache:dl2 dl2:1:16:131072:l -cache:il1 il1:1:16:512:l -cache:il2 dl2 cache4_heapsort448100098
	sim-bpred -bpred bimod -bpred:bimod 512 cache4_heapsort448100098
	sim-bpred -bpred bimod -bpred:bimod 1024 cache4_heapsort448100098
	sim-bpred -bpred bimod -bpred:bimod 2048 cache4_heapsort448100098
	sim-bpred -bpred 2lev -bpred:2lev 1 512 10 1 cache4_heapsort448100098
	sim-bpred -bpred 2lev -bpred:2lev 1 1024 10 1 cache4_heapsort448100098
	sim-bpred -bpred 2lev -bpred:2lev 1 2048 10 1 cache4_heapsort448100098
	sim-bpred -bpred 2lev -bpred:2lev 1 4096 10 1 cache4_heapsort448100098
	sslittle-na-sstrix-gcc -Wall -O3 -funroll-loops -finline-functions  -DRANDOM_SIZE=524288 -DOFFSET=1 -DSORT=cache4_heapsort sorts/cache4_heapsort1324085880.c simpleMain.c -o cache4_heapsort448100098
	sim-cache -cache:dl1 dl1:512:16:1:l -cache:dl2 dl2:262144:16:1:l -cache:il1 il1:512:16:1:l -cache:il2 dl2 cache4_heapsort448100098
	sim-cache -cache:dl1 dl1:512:16:1:l -cache:dl2 dl2:131072:16:1:l -cache:il1 il1:512:16:1:l -cache:il2 dl2 cache4_heapsort448100098
	sim-cache -cache:dl1 dl1:1:16:512:l -cache:dl2 dl2:1:16:262144:l -cache:il1 il1:1:16:512:l -cache:il2 dl2 cache4_heapsort448100098
	sim-cache -cache:dl1 dl1:1:16:512:l -cache:dl2 dl2:1:16:131072:l -cache:il1 il1:1:16:512:l -cache:il2 dl2 cache4_heapsort448100098
	sim-bpred -bpred bimod -bpred:bimod 512 cache4_heapsort448100098
	sim-bpred -bpred bimod -bpred:bimod 1024 cache4_heapsort448100098
	sim-bpred -bpred bimod -bpred:bimod 2048 cache4_heapsort448100098
	sim-bpred -bpred 2lev -bpred:2lev 1 512 10 1 cache4_heapsort448100098
	sim-bpred -bpred 2lev -bpred:2lev 1 1024 10 1 cache4_heapsort448100098
	sim-bpred -bpred 2lev -bpred:2lev 1 2048 10 1 cache4_heapsort448100098
	sim-bpred -bpred 2lev -bpred:2lev 1 4096 10 1 cache4_heapsort448100098
	sslittle-na-sstrix-gcc -Wall -O3 -funroll-loops -finline-functions  -DRANDOM_SIZE=1048576 -DOFFSET=1 -DSORT=cache4_heapsort sorts/cache4_heapsort1324085880.c simpleMain.c -o cache4_heapsort448100098
	sim-cache -cache:dl1 dl1:512:16:1:l -cache:dl2 dl2:262144:16:1:l -cache:il1 il1:512:16:1:l -cache:il2 dl2 cache4_heapsort448100098
	sim-cache -cache:dl1 dl1:512:16:1:l -cache:dl2 dl2:131072:16:1:l -cache:il1 il1:512:16:1:l -cache:il2 dl2 cache4_heapsort448100098
	sim-cache -cache:dl1 dl1:1:16:512:l -cache:dl2 dl2:1:16:262144:l -cache:il1 il1:1:16:512:l -cache:il2 dl2 cache4_heapsort448100098
	sim-cache -cache:dl1 dl1:1:16:512:l -cache:dl2 dl2:1:16:131072:l -cache:il1 il1:1:16:512:l -cache:il2 dl2 cache4_heapsort448100098
	sim-bpred -bpred bimod -bpred:bimod 512 cache4_heapsort448100098
	sim-bpred -bpred bimod -bpred:bimod 1024 cache4_heapsort448100098
	sim-bpred -bpred bimod -bpred:bimod 2048 cache4_heapsort448100098
	sim-bpred -bpred 2lev -bpred:2lev 1 512 10 1 cache4_heapsort448100098
	sim-bpred -bpred 2lev -bpred:2lev 1 1024 10 1 cache4_heapsort448100098
	sim-bpred -bpred 2lev -bpred:2lev 1 2048 10 1 cache4_heapsort448100098
	sim-bpred -bpred 2lev -bpred:2lev 1 4096 10 1 cache4_heapsort448100098
	sslittle-na-sstrix-gcc -Wall -O3 -funroll-loops -finline-functions  -DRANDOM_SIZE=2097152 -DOFFSET=1 -DSORT=cache4_heapsort sorts/cache4_heapsort1324085880.c simpleMain.c -o cache4_heapsort448100098
	sim-cache -cache:dl1 dl1:512:16:1:l -cache:dl2 dl2:262144:16:1:l -cache:il1 il1:512:16:1:l -cache:il2 dl2 cache4_heapsort448100098
	sim-cache -cache:dl1 dl1:512:16:1:l -cache:dl2 dl2:131072:16:1:l -cache:il1 il1:512:16:1:l -cache:il2 dl2 cache4_heapsort448100098
	sim-cache -cache:dl1 dl1:1:16:512:l -cache:dl2 dl2:1:16:262144:l -cache:il1 il1:1:16:512:l -cache:il2 dl2 cache4_heapsort448100098
	sim-cache -cache:dl1 dl1:1:16:512:l -cache:dl2 dl2:1:16:131072:l -cache:il1 il1:1:16:512:l -cache:il2 dl2 cache4_heapsort448100098
	sim-bpred -bpred bimod -bpred:bimod 512 cache4_heapsort448100098
	sim-bpred -bpred bimod -bpred:bimod 1024 cache4_heapsort448100098
	sim-bpred -bpred bimod -bpred:bimod 2048 cache4_heapsort448100098
	sim-bpred -bpred 2lev -bpred:2lev 1 512 10 1 cache4_heapsort448100098
	sim-bpred -bpred 2lev -bpred:2lev 1 1024 10 1 cache4_heapsort448100098
	sim-bpred -bpred 2lev -bpred:2lev 1 2048 10 1 cache4_heapsort448100098
	sim-bpred -bpred 2lev -bpred:2lev 1 4096 10 1 cache4_heapsort448100098
	sslittle-na-sstrix-gcc -Wall -O3 -funroll-loops -finline-functions  -DRANDOM_SIZE=4194304 -DOFFSET=1 -DSORT=cache4_heapsort sorts/cache4_heapsort1324085880.c simpleMain.c -o cache4_heapsort448100098
	sim-cache -cache:dl1 dl1:512:16:1:l -cache:dl2 dl2:262144:16:1:l -cache:il1 il1:512:16:1:l -cache:il2 dl2 cache4_heapsort448100098
	sim-cache -cache:dl1 dl1:512:16:1:l -cache:dl2 dl2:131072:16:1:l -cache:il1 il1:512:16:1:l -cache:il2 dl2 cache4_heapsort448100098
	sim-cache -cache:dl1 dl1:1:16:512:l -cache:dl2 dl2:1:16:262144:l -cache:il1 il1:1:16:512:l -cache:il2 dl2 cache4_heapsort448100098
	sim-cache -cache:dl1 dl1:1:16:512:l -cache:dl2 dl2:1:16:131072:l -cache:il1 il1:1:16:512:l -cache:il2 dl2 cache4_heapsort448100098
	sim-bpred -bpred bimod -bpred:bimod 512 cache4_heapsort448100098
	sim-bpred -bpred bimod -bpred:bimod 1024 cache4_heapsort448100098
	sim-bpred -bpred bimod -bpred:bimod 2048 cache4_heapsort448100098
	sim-bpred -bpred 2lev -bpred:2lev 1 512 10 1 cache4_heapsort448100098
	sim-bpred -bpred 2lev -bpred:2lev 1 1024 10 1 cache4_heapsort448100098
	sim-bpred -bpred 2lev -bpred:2lev 1 2048 10 1 cache4_heapsort448100098
	sim-bpred -bpred 2lev -bpred:2lev 1 4096 10 1 cache4_heapsort448100098
