Mon Jul 25 05:30:09 2005
Run as: "./do_simple -c random.org7 -o 7 cache4_heapsort"
-------------------------------------------------------------------------------------------------
sim-cache                                     4096 |         4096 |         4096 |         4096 |         8192 |         8192 |         8192 |         8192 |        16384 |        16384 |        16384 |        16384 |        32768 |        32768 |        32768 |        32768 |        65536 |        65536 |        65536 |        65536 |       131072 |       131072 |       131072 |       131072 |       262144 |       262144 |       262144 |       262144 |       524288 |       524288 |       524288 |       524288 |      1048576 |      1048576 |      1048576 |      1048576 |      2097152 |      2097152 |      2097152 |      2097152 |      4194304 |      4194304 |      4194304 |      4194304 |
-cache:dl1 dl1:256:32:1:l -cache:dl2 dl2:131072:32:1:l -cache:il1 il1:256:32:1:l -cache:il2 dl2
-cache:dl1 dl1:256:32:1:l -cache:dl2 dl2:65536:32:1:l -cache:il1 il1:256:32:1:l -cache:il2 dl2
-cache:dl1 dl1:1:32:256:l -cache:dl2 dl2:1:32:131072:l -cache:il1 il1:1:32:256:l -cache:il2 dl2
-cache:dl1 dl1:1:32:256:l -cache:dl2 dl2:1:32:65536:l -cache:il1 il1:1:32:256:l -cache:il2 dl2
-------------------------------------------------------------------------------------------------
sim_num_insn                                870760 |       870760 |       870760 |       870760 |      1869484 |      1869484 |      1869484 |      1869484 |      3999581 |      3999581 |      3999581 |      3999581 |      8533328 |      8533328 |      8533328 |      8533328 |     18157478 |     18157478 |     18157478 |     18157478 |     38428119 |     38428119 |     38428119 |     38428119 |     81261736 |     81261736 |     81261736 |     81261736 |    171086489 |    171086489 |    171086489 |    171086489 |    359750233 |    359750233 |    359750233 |    359750233 |    753719673 |    753719673 |    753719673 |    753719673 |   1577785445 |   1577785445 |   1577785445 |   1577785445 |
sim_num_refs                                218021 |       218021 |       218021 |       218021 |       464965 |       464965 |       464965 |       464965 |       990631 |       990631 |       990631 |       990631 |      2108327 |      2108327 |      2108327 |      2108327 |      4477774 |      4477774 |      4477774 |      4477774 |      9465604 |      9465604 |      9465604 |      9465604 |     19991078 |     19991078 |     19991078 |     19991078 |     42054522 |     42054522 |     42054522 |     42054522 |     88356141 |     88356141 |     88356141 |     88356141 |    184998092 |    184998092 |    184998092 |    184998092 |    386966422 |    386966422 |    386966422 |    386966422 |
sim_elapsed_time                                 1 |            1 |            9 |            5 |            1 |            1 |           15 |            8 |            1 |            1 |           26 |           14 |            3 |            2 |           48 |           25 |            6 |            5 |           89 |           45 |           11 |           11 |          164 |           77 |           23 |           24 |          284 |          111 |           50 |           49 |          397 |          140 |          104 |          104 |          461 |          203 |          219 |          219 |          600 |          336 |          462 |          462 |          874 |          613 |
sim_inst_rate                          870760.0000 |  870760.0000 |   96751.1111 |  174152.0000 | 1869484.0000 | 1869484.0000 |  124632.2667 |  233685.5000 | 3999581.0000 | 3999581.0000 |  153830.0385 |  285684.3571 | 2844442.6667 | 4266664.0000 |  177777.6667 |  341333.1200 | 3026246.3333 | 3631495.6000 |  204016.6067 |  403499.5111 | 3493465.3636 | 3493465.3636 |  234317.7988 |  499066.4805 | 3533118.9565 | 3385905.6667 |  286132.8732 |  732087.7117 | 3421729.7800 | 3491561.0000 |  430948.3350 | 1222046.3500 | 3459136.8558 | 3459136.8558 |  780369.2690 | 1772168.6355 | 3441642.3425 | 3441642.3425 | 1256199.4550 | 2243213.3125 | 3415120.0108 | 3415120.0108 | 1805246.5046 | 2573875.1142 |
il1.accesses                                870760 |       870760 |       870760 |       870760 |      1869484 |      1869484 |      1869484 |      1869484 |      3999581 |      3999581 |      3999581 |      3999581 |      8533328 |      8533328 |      8533328 |      8533328 |     18157478 |     18157478 |     18157478 |     18157478 |     38428119 |     38428119 |     38428119 |     38428119 |     81261736 |     81261736 |     81261736 |     81261736 |    171086489 |    171086489 |    171086489 |    171086489 |    359750233 |    359750233 |    359750233 |    359750233 |    753719673 |    753719673 |    753719673 |    753719673 |   1577785445 |   1577785445 |   1577785445 |   1577785445 |
il1.hits                                    870241 |       870241 |       870330 |       870330 |      1868924 |      1868924 |      1869034 |      1869034 |      3999020 |      3999020 |      3999134 |      3999134 |      8532770 |      8532770 |      8532877 |      8532877 |     18156920 |     18156920 |     18157027 |     18157027 |     38427561 |     38427561 |     38427669 |     38427669 |     81261178 |     81261178 |     81261286 |     81261286 |    171085931 |    171085931 |    171086039 |    171086039 |    359749639 |    359749639 |    359749752 |    359749752 |    753719079 |    753719079 |    753719192 |    753719192 |   1577784851 |   1577784851 |   1577784964 |   1577784964 |
il1.misses                                     519 |          519 |          430 |          430 |          560 |          560 |          450 |          450 |          561 |          561 |          447 |          447 |          558 |          558 |          451 |          451 |          558 |          558 |          451 |          451 |          558 |          558 |          450 |          450 |          558 |          558 |          450 |          450 |          558 |          558 |          450 |          450 |          594 |          594 |          481 |          481 |          594 |          594 |          481 |          481 |          594 |          594 |          481 |          481 |
il1.replacements                               306 |          306 |          174 |          174 |          339 |          339 |          194 |          194 |          340 |          340 |          191 |          191 |          337 |          337 |          195 |          195 |          337 |          337 |          195 |          195 |          337 |          337 |          194 |          194 |          337 |          337 |          194 |          194 |          337 |          337 |          194 |          194 |          378 |          378 |          225 |          225 |          378 |          378 |          225 |          225 |          378 |          378 |          225 |          225 |
il1.writebacks                                   0 |            0 |            0 |            0 |            0 |            0 |            0 |            0 |            0 |            0 |            0 |            0 |            0 |            0 |            0 |            0 |            0 |            0 |            0 |            0 |            0 |            0 |            0 |            0 |            0 |            0 |            0 |            0 |            0 |            0 |            0 |            0 |            0 |            0 |            0 |            0 |            0 |            0 |            0 |            0 |            0 |            0 |            0 |            0 |
il1.invalidations                                0 |            0 |            0 |            0 |            0 |            0 |            0 |            0 |            0 |            0 |            0 |            0 |            0 |            0 |            0 |            0 |            0 |            0 |            0 |            0 |            0 |            0 |            0 |            0 |            0 |            0 |            0 |            0 |            0 |            0 |            0 |            0 |            0 |            0 |            0 |            0 |            0 |            0 |            0 |            0 |            0 |            0 |            0 |            0 |
il1.miss_rate                               0.0006 |       0.0006 |       0.0005 |       0.0005 |       0.0003 |       0.0003 |       0.0002 |       0.0002 |       0.0001 |       0.0001 |       0.0001 |       0.0001 |       0.0001 |       0.0001 |       0.0001 |       0.0001 |       0.0000 |       0.0000 |       0.0000 |       0.0000 |       0.0000 |       0.0000 |       0.0000 |       0.0000 |       0.0000 |       0.0000 |       0.0000 |       0.0000 |       0.0000 |       0.0000 |       0.0000 |       0.0000 |       0.0000 |       0.0000 |       0.0000 |       0.0000 |       0.0000 |       0.0000 |       0.0000 |       0.0000 |       0.0000 |       0.0000 |       0.0000 |       0.0000 |
il1.repl_rate                               0.0004 |       0.0004 |       0.0002 |       0.0002 |       0.0002 |       0.0002 |       0.0001 |       0.0001 |       0.0001 |       0.0001 |       0.0000 |       0.0000 |       0.0000 |       0.0000 |       0.0000 |       0.0000 |       0.0000 |       0.0000 |       0.0000 |       0.0000 |       0.0000 |       0.0000 |       0.0000 |       0.0000 |       0.0000 |       0.0000 |       0.0000 |       0.0000 |       0.0000 |       0.0000 |       0.0000 |       0.0000 |       0.0000 |       0.0000 |       0.0000 |       0.0000 |       0.0000 |       0.0000 |       0.0000 |       0.0000 |       0.0000 |       0.0000 |       0.0000 |       0.0000 |
il1.wb_rate                                 0.0000 |       0.0000 |       0.0000 |       0.0000 |       0.0000 |       0.0000 |       0.0000 |       0.0000 |       0.0000 |       0.0000 |       0.0000 |       0.0000 |       0.0000 |       0.0000 |       0.0000 |       0.0000 |       0.0000 |       0.0000 |       0.0000 |       0.0000 |       0.0000 |       0.0000 |       0.0000 |       0.0000 |       0.0000 |       0.0000 |       0.0000 |       0.0000 |       0.0000 |       0.0000 |       0.0000 |       0.0000 |       0.0000 |       0.0000 |       0.0000 |       0.0000 |       0.0000 |       0.0000 |       0.0000 |       0.0000 |       0.0000 |       0.0000 |       0.0000 |       0.0000 |
il1.inv_rate                                0.0000 |       0.0000 |       0.0000 |       0.0000 |       0.0000 |       0.0000 |       0.0000 |       0.0000 |       0.0000 |       0.0000 |       0.0000 |       0.0000 |       0.0000 |       0.0000 |       0.0000 |       0.0000 |       0.0000 |       0.0000 |       0.0000 |       0.0000 |       0.0000 |       0.0000 |       0.0000 |       0.0000 |       0.0000 |       0.0000 |       0.0000 |       0.0000 |       0.0000 |       0.0000 |       0.0000 |       0.0000 |       0.0000 |       0.0000 |       0.0000 |       0.0000 |       0.0000 |       0.0000 |       0.0000 |       0.0000 |       0.0000 |       0.0000 |       0.0000 |       0.0000 |
dl1.accesses                                234487 |       234487 |       234487 |       234487 |       497815 |       497815 |       497815 |       497815 |      1056249 |      1056249 |      1056249 |      1056249 |      2239481 |      2239481 |      2239481 |      2239481 |      4740000 |      4740000 |      4740000 |      4740000 |      9989974 |      9989974 |      9989974 |      9989974 |     21039736 |     21039736 |     21039736 |     21039736 |     44151756 |     44151756 |     44151756 |     44151756 |     92550527 |     92550527 |     92550527 |     92550527 |    193386782 |    193386782 |    193386782 |    193386782 |    403743720 |    403743720 |    403743720 |    403743720 |
dl1.hits                                    229560 |       229560 |       230247 |       230247 |       484348 |       484348 |       485809 |       485809 |      1019586 |      1019586 |      1023457 |      1023457 |      2146615 |      2146615 |      2154912 |      2154912 |      4511282 |      4511282 |      4531250 |      4531250 |      9454051 |      9454051 |      9494737 |      9494737 |     19801439 |     19801439 |     19895626 |     19895626 |     41370064 |     41370064 |     41558412 |     41558412 |     86341721 |     86341721 |     86762111 |     86762111 |    179783094 |    179783094 |    180621986 |    180621986 |    374054438 |    374054438 |    375856320 |    375856320 |
dl1.misses                                    4927 |         4927 |         4240 |         4240 |        13467 |        13467 |        12006 |        12006 |        36663 |        36663 |        32792 |        32792 |        92866 |        92866 |        84569 |        84569 |       228718 |       228718 |       208750 |       208750 |       535923 |       535923 |       495237 |       495237 |      1238297 |      1238297 |      1144110 |      1144110 |      2781692 |      2781692 |      2593344 |      2593344 |      6208806 |      6208806 |      5788416 |      5788416 |     13603688 |     13603688 |     12764796 |     12764796 |     29689282 |     29689282 |     27887400 |     27887400 |
dl1.replacements                              4671 |         4671 |         3984 |         3984 |        13211 |        13211 |        11750 |        11750 |        36407 |        36407 |        32536 |        32536 |        92610 |        92610 |        84313 |        84313 |       228462 |       228462 |       208494 |       208494 |       535667 |       535667 |       494981 |       494981 |      1238041 |      1238041 |      1143854 |      1143854 |      2781436 |      2781436 |      2593088 |      2593088 |      6208550 |      6208550 |      5788160 |      5788160 |     13603432 |     13603432 |     12764540 |     12764540 |     29689026 |     29689026 |     27887144 |     27887144 |
dl1.writebacks                                4037 |         4037 |         3384 |         3384 |        11656 |        11656 |        10362 |        10362 |        32929 |        32929 |        29461 |        29461 |        85234 |        85234 |        77877 |        77877 |       212815 |       212815 |       194990 |       194990 |       503126 |       503126 |       467293 |       467293 |      1171620 |      1171620 |      1087959 |      1087959 |      2646095 |      2646095 |      2480817 |      2480817 |      5930534 |      5930534 |      5562015 |      5562015 |     13042250 |     13042250 |     12311895 |     12311895 |     28552855 |     28552855 |     26981520 |     26981520 |
dl1.invalidations                                0 |            0 |            0 |            0 |            0 |            0 |            0 |            0 |            0 |            0 |            0 |            0 |            0 |            0 |            0 |            0 |            0 |            0 |            0 |            0 |            0 |            0 |            0 |            0 |            0 |            0 |            0 |            0 |            0 |            0 |            0 |            0 |            0 |            0 |            0 |            0 |            0 |            0 |            0 |            0 |            0 |            0 |            0 |            0 |
dl1.miss_rate                               0.0210 |       0.0210 |       0.0181 |       0.0181 |       0.0271 |       0.0271 |       0.0241 |       0.0241 |       0.0347 |       0.0347 |       0.0310 |       0.0310 |       0.0415 |       0.0415 |       0.0378 |       0.0378 |       0.0483 |       0.0483 |       0.0440 |       0.0440 |       0.0536 |       0.0536 |       0.0496 |       0.0496 |       0.0589 |       0.0589 |       0.0544 |       0.0544 |       0.0630 |       0.0630 |       0.0587 |       0.0587 |       0.0671 |       0.0671 |       0.0625 |       0.0625 |       0.0703 |       0.0703 |       0.0660 |       0.0660 |       0.0735 |       0.0735 |       0.0691 |       0.0691 |
dl1.repl_rate                               0.0199 |       0.0199 |       0.0170 |       0.0170 |       0.0265 |       0.0265 |       0.0236 |       0.0236 |       0.0345 |       0.0345 |       0.0308 |       0.0308 |       0.0414 |       0.0414 |       0.0376 |       0.0376 |       0.0482 |       0.0482 |       0.0440 |       0.0440 |       0.0536 |       0.0536 |       0.0495 |       0.0495 |       0.0588 |       0.0588 |       0.0544 |       0.0544 |       0.0630 |       0.0630 |       0.0587 |       0.0587 |       0.0671 |       0.0671 |       0.0625 |       0.0625 |       0.0703 |       0.0703 |       0.0660 |       0.0660 |       0.0735 |       0.0735 |       0.0691 |       0.0691 |
dl1.wb_rate                                 0.0172 |       0.0172 |       0.0144 |       0.0144 |       0.0234 |       0.0234 |       0.0208 |       0.0208 |       0.0312 |       0.0312 |       0.0279 |       0.0279 |       0.0381 |       0.0381 |       0.0348 |       0.0348 |       0.0449 |       0.0449 |       0.0411 |       0.0411 |       0.0504 |       0.0504 |       0.0468 |       0.0468 |       0.0557 |       0.0557 |       0.0517 |       0.0517 |       0.0599 |       0.0599 |       0.0562 |       0.0562 |       0.0641 |       0.0641 |       0.0601 |       0.0601 |       0.0674 |       0.0674 |       0.0637 |       0.0637 |       0.0707 |       0.0707 |       0.0668 |       0.0668 |
dl1.inv_rate                                0.0000 |       0.0000 |       0.0000 |       0.0000 |       0.0000 |       0.0000 |       0.0000 |       0.0000 |       0.0000 |       0.0000 |       0.0000 |       0.0000 |       0.0000 |       0.0000 |       0.0000 |       0.0000 |       0.0000 |       0.0000 |       0.0000 |       0.0000 |       0.0000 |       0.0000 |       0.0000 |       0.0000 |       0.0000 |       0.0000 |       0.0000 |       0.0000 |       0.0000 |       0.0000 |       0.0000 |       0.0000 |       0.0000 |       0.0000 |       0.0000 |       0.0000 |       0.0000 |       0.0000 |       0.0000 |       0.0000 |       0.0000 |       0.0000 |       0.0000 |       0.0000 |
dl2.accesses                                  9483 |         9483 |         8054 |         8054 |        25683 |        25683 |        22818 |        22818 |        70153 |        70153 |        62700 |        62700 |       178658 |       178658 |       162897 |       162897 |       442091 |       442091 |       404191 |       404191 |      1039607 |      1039607 |       962980 |       962980 |      2410475 |      2410475 |      2232519 |      2232519 |      5428345 |      5428345 |      5074611 |      5074611 |     12139934 |     12139934 |     11350912 |     11350912 |     26646532 |     26646532 |     25077172 |     25077172 |     58242731 |     58242731 |     54869401 |     54869401 |
dl2.hits                                      7582 |         7582 |         6195 |         6195 |        22755 |        22755 |        19944 |        19944 |        65174 |        65174 |        57781 |        57781 |       169575 |       169575 |       153878 |       153878 |       424816 |       424816 |       386980 |       386980 |      1005949 |      1005949 |       929386 |       929386 |      2344047 |      2341529 |      2166157 |      2132793 |      5293865 |      5069999 |      4887140 |      4748240 |     11420675 |     11072260 |     10698046 |     10379039 |     24512310 |     23542836 |     23135496 |     22130050 |     52034229 |     49440912 |     48973082 |     46609676 |
dl2.misses                                    1901 |         1901 |         1859 |         1859 |         2928 |         2928 |         2874 |         2874 |         4979 |         4979 |         4919 |         4919 |         9083 |         9083 |         9019 |         9019 |        17275 |        17275 |        17211 |        17211 |        33658 |        33658 |        33594 |        33594 |        66428 |        68946 |        66362 |        99726 |       134480 |       358346 |       187471 |       326371 |       719259 |      1067674 |       652866 |       971873 |      2134222 |      3103696 |      1941676 |      2947122 |      6208502 |      8801819 |      5896319 |      8259725 |
dl2.replacements                               267 |          267 |            0 |            0 |          263 |          263 |            0 |            0 |          291 |          291 |            0 |            0 |          298 |          298 |            0 |            0 |          298 |          298 |            0 |            0 |          298 |          298 |            0 |            0 |          300 |         4492 |            0 |        34190 |         4490 |       292810 |        56399 |       260835 |       588187 |      1002138 |       521794 |       906337 |      2003150 |      3038160 |      1810604 |      2881586 |      6077430 |      8736283 |      5765247 |      8194189 |
dl2.writebacks                                 152 |          152 |            0 |            0 |          144 |          144 |            0 |            0 |          165 |          165 |            0 |            0 |          169 |          169 |            0 |            0 |          169 |          169 |            0 |            0 |          169 |          169 |            0 |            0 |          169 |         4361 |            0 |        33461 |         4361 |       228297 |        55670 |       194408 |       458036 |       854320 |       389075 |       756976 |      1707797 |      2691004 |      1512786 |      2534080 |      5383666 |      7960079 |      5070139 |      7417845 |
dl2.invalidations                                0 |            0 |            0 |            0 |            0 |            0 |            0 |            0 |            0 |            0 |            0 |            0 |            0 |            0 |            0 |            0 |            0 |            0 |            0 |            0 |            0 |            0 |            0 |            0 |            0 |            0 |            0 |            0 |            0 |            0 |            0 |            0 |            0 |            0 |            0 |            0 |            0 |            0 |            0 |            0 |            0 |            0 |            0 |            0 |
dl2.miss_rate                               0.2005 |       0.2005 |       0.2308 |       0.2308 |       0.1140 |       0.1140 |       0.1260 |       0.1260 |       0.0710 |       0.0710 |       0.0785 |       0.0785 |       0.0508 |       0.0508 |       0.0554 |       0.0554 |       0.0391 |       0.0391 |       0.0426 |       0.0426 |       0.0324 |       0.0324 |       0.0349 |       0.0349 |       0.0276 |       0.0286 |       0.0297 |       0.0447 |       0.0248 |       0.0660 |       0.0369 |       0.0643 |       0.0592 |       0.0879 |       0.0575 |       0.0856 |       0.0801 |       0.1165 |       0.0774 |       0.1175 |       0.1066 |       0.1511 |       0.1075 |       0.1505 |
dl2.repl_rate                               0.0282 |       0.0282 |       0.0000 |       0.0000 |       0.0102 |       0.0102 |       0.0000 |       0.0000 |       0.0041 |       0.0041 |       0.0000 |       0.0000 |       0.0017 |       0.0017 |       0.0000 |       0.0000 |       0.0007 |       0.0007 |       0.0000 |       0.0000 |       0.0003 |       0.0003 |       0.0000 |       0.0000 |       0.0001 |       0.0019 |       0.0000 |       0.0153 |       0.0008 |       0.0539 |       0.0111 |       0.0514 |       0.0485 |       0.0825 |       0.0460 |       0.0798 |       0.0752 |       0.1140 |       0.0722 |       0.1149 |       0.1043 |       0.1500 |       0.1051 |       0.1493 |
dl2.wb_rate                                 0.0160 |       0.0160 |       0.0000 |       0.0000 |       0.0056 |       0.0056 |       0.0000 |       0.0000 |       0.0024 |       0.0024 |       0.0000 |       0.0000 |       0.0009 |       0.0009 |       0.0000 |       0.0000 |       0.0004 |       0.0004 |       0.0000 |       0.0000 |       0.0002 |       0.0002 |       0.0000 |       0.0000 |       0.0001 |       0.0018 |       0.0000 |       0.0150 |       0.0008 |       0.0421 |       0.0110 |       0.0383 |       0.0377 |       0.0704 |       0.0343 |       0.0667 |       0.0641 |       0.1010 |       0.0603 |       0.1011 |       0.0924 |       0.1367 |       0.0924 |       0.1352 |
dl2.inv_rate                                0.0000 |       0.0000 |       0.0000 |       0.0000 |       0.0000 |       0.0000 |       0.0000 |       0.0000 |       0.0000 |       0.0000 |       0.0000 |       0.0000 |       0.0000 |       0.0000 |       0.0000 |       0.0000 |       0.0000 |       0.0000 |       0.0000 |       0.0000 |       0.0000 |       0.0000 |       0.0000 |       0.0000 |       0.0000 |       0.0000 |       0.0000 |       0.0000 |       0.0000 |       0.0000 |       0.0000 |       0.0000 |       0.0000 |       0.0000 |       0.0000 |       0.0000 |       0.0000 |       0.0000 |       0.0000 |       0.0000 |       0.0000 |       0.0000 |       0.0000 |       0.0000 |
itlb.accesses                               870760 |       870760 |       870760 |       870760 |      1869484 |      1869484 |      1869484 |      1869484 |      3999581 |      3999581 |      3999581 |      3999581 |      8533328 |      8533328 |      8533328 |      8533328 |     18157478 |     18157478 |     18157478 |     18157478 |     38428119 |     38428119 |     38428119 |     38428119 |     81261736 |     81261736 |     81261736 |     81261736 |    171086489 |    171086489 |    171086489 |    171086489 |    359750233 |    359750233 |    359750233 |    359750233 |    753719673 |    753719673 |    753719673 |    753719673 |   1577785445 |   1577785445 |   1577785445 |   1577785445 |
itlb.hits                                   870751 |       870751 |       870751 |       870751 |      1869475 |      1869475 |      1869475 |      1869475 |      3999572 |      3999572 |      3999572 |      3999572 |      8533319 |      8533319 |      8533319 |      8533319 |     18157469 |     18157469 |     18157469 |     18157469 |     38428110 |     38428110 |     38428110 |     38428110 |     81261727 |     81261727 |     81261727 |     81261727 |    171086480 |    171086480 |    171086480 |    171086480 |    359750224 |    359750224 |    359750224 |    359750224 |    753719664 |    753719664 |    753719664 |    753719664 |   1577785436 |   1577785436 |   1577785436 |   1577785436 |
itlb.misses                                      9 |            9 |            9 |            9 |            9 |            9 |            9 |            9 |            9 |            9 |            9 |            9 |            9 |            9 |            9 |            9 |            9 |            9 |            9 |            9 |            9 |            9 |            9 |            9 |            9 |            9 |            9 |            9 |            9 |            9 |            9 |            9 |            9 |            9 |            9 |            9 |            9 |            9 |            9 |            9 |            9 |            9 |            9 |            9 |
itlb.replacements                                0 |            0 |            0 |            0 |            0 |            0 |            0 |            0 |            0 |            0 |            0 |            0 |            0 |            0 |            0 |            0 |            0 |            0 |            0 |            0 |            0 |            0 |            0 |            0 |            0 |            0 |            0 |            0 |            0 |            0 |            0 |            0 |            0 |            0 |            0 |            0 |            0 |            0 |            0 |            0 |            0 |            0 |            0 |            0 |
itlb.writebacks                                  0 |            0 |            0 |            0 |            0 |            0 |            0 |            0 |            0 |            0 |            0 |            0 |            0 |            0 |            0 |            0 |            0 |            0 |            0 |            0 |            0 |            0 |            0 |            0 |            0 |            0 |            0 |            0 |            0 |            0 |            0 |            0 |            0 |            0 |            0 |            0 |            0 |            0 |            0 |            0 |            0 |            0 |            0 |            0 |
itlb.invalidations                               0 |            0 |            0 |            0 |            0 |            0 |            0 |            0 |            0 |            0 |            0 |            0 |            0 |            0 |            0 |            0 |            0 |            0 |            0 |            0 |            0 |            0 |            0 |            0 |            0 |            0 |            0 |            0 |            0 |            0 |            0 |            0 |            0 |            0 |            0 |            0 |            0 |            0 |            0 |            0 |            0 |            0 |            0 |            0 |
itlb.miss_rate                              0.0000 |       0.0000 |       0.0000 |       0.0000 |       0.0000 |       0.0000 |       0.0000 |       0.0000 |       0.0000 |       0.0000 |       0.0000 |       0.0000 |       0.0000 |       0.0000 |       0.0000 |       0.0000 |       0.0000 |       0.0000 |       0.0000 |       0.0000 |       0.0000 |       0.0000 |       0.0000 |       0.0000 |       0.0000 |       0.0000 |       0.0000 |       0.0000 |       0.0000 |       0.0000 |       0.0000 |       0.0000 |       0.0000 |       0.0000 |       0.0000 |       0.0000 |       0.0000 |       0.0000 |       0.0000 |       0.0000 |       0.0000 |       0.0000 |       0.0000 |       0.0000 |
itlb.repl_rate                              0.0000 |       0.0000 |       0.0000 |       0.0000 |       0.0000 |       0.0000 |       0.0000 |       0.0000 |       0.0000 |       0.0000 |       0.0000 |       0.0000 |       0.0000 |       0.0000 |       0.0000 |       0.0000 |       0.0000 |       0.0000 |       0.0000 |       0.0000 |       0.0000 |       0.0000 |       0.0000 |       0.0000 |       0.0000 |       0.0000 |       0.0000 |       0.0000 |       0.0000 |       0.0000 |       0.0000 |       0.0000 |       0.0000 |       0.0000 |       0.0000 |       0.0000 |       0.0000 |       0.0000 |       0.0000 |       0.0000 |       0.0000 |       0.0000 |       0.0000 |       0.0000 |
itlb.wb_rate                                0.0000 |       0.0000 |       0.0000 |       0.0000 |       0.0000 |       0.0000 |       0.0000 |       0.0000 |       0.0000 |       0.0000 |       0.0000 |       0.0000 |       0.0000 |       0.0000 |       0.0000 |       0.0000 |       0.0000 |       0.0000 |       0.0000 |       0.0000 |       0.0000 |       0.0000 |       0.0000 |       0.0000 |       0.0000 |       0.0000 |       0.0000 |       0.0000 |       0.0000 |       0.0000 |       0.0000 |       0.0000 |       0.0000 |       0.0000 |       0.0000 |       0.0000 |       0.0000 |       0.0000 |       0.0000 |       0.0000 |       0.0000 |       0.0000 |       0.0000 |       0.0000 |
itlb.inv_rate                               0.0000 |       0.0000 |       0.0000 |       0.0000 |       0.0000 |       0.0000 |       0.0000 |       0.0000 |       0.0000 |       0.0000 |       0.0000 |       0.0000 |       0.0000 |       0.0000 |       0.0000 |       0.0000 |       0.0000 |       0.0000 |       0.0000 |       0.0000 |       0.0000 |       0.0000 |       0.0000 |       0.0000 |       0.0000 |       0.0000 |       0.0000 |       0.0000 |       0.0000 |       0.0000 |       0.0000 |       0.0000 |       0.0000 |       0.0000 |       0.0000 |       0.0000 |       0.0000 |       0.0000 |       0.0000 |       0.0000 |       0.0000 |       0.0000 |       0.0000 |       0.0000 |
dtlb.accesses                               234487 |       234487 |       234487 |       234487 |       497815 |       497815 |       497815 |       497815 |      1056249 |      1056249 |      1056249 |      1056249 |      2239481 |      2239481 |      2239481 |      2239481 |      4740000 |      4740000 |      4740000 |      4740000 |      9989974 |      9989974 |      9989974 |      9989974 |     21039736 |     21039736 |     21039736 |     21039736 |     44151756 |     44151756 |     44151756 |     44151756 |     92550527 |     92550527 |     92550527 |     92550527 |    193386782 |    193386782 |    193386782 |    193386782 |    403743720 |    403743720 |    403743720 |    403743720 |
dtlb.hits                                   234471 |       234471 |       234471 |       234471 |       497791 |       497791 |       497791 |       497791 |      1056209 |      1056209 |      1056209 |      1056209 |      2239409 |      2239409 |      2239409 |      2239409 |      4739853 |      4739853 |      4739853 |      4739853 |      9989123 |      9989123 |      9989123 |      9989123 |     20982443 |     20982443 |     20982443 |     20982443 |     43800849 |     43800849 |     43800849 |     43800849 |     91257747 |     91257747 |     91257747 |     91257747 |    189533441 |    189533441 |    189533441 |    189533441 |    393443821 |    393443821 |    393443821 |    393443821 |
dtlb.misses                                     16 |           16 |           16 |           16 |           24 |           24 |           24 |           24 |           40 |           40 |           40 |           40 |           72 |           72 |           72 |           72 |          147 |          147 |          147 |          147 |          851 |          851 |          851 |          851 |        57293 |        57293 |        57293 |        57293 |       350907 |       350907 |       350907 |       350907 |      1292780 |      1292780 |      1292780 |      1292780 |      3853341 |      3853341 |      3853341 |      3853341 |     10299899 |     10299899 |     10299899 |     10299899 |
dtlb.replacements                                0 |            0 |            0 |            0 |            0 |            0 |            0 |            0 |            0 |            0 |            0 |            0 |            0 |            0 |            0 |            0 |           19 |           19 |           19 |           19 |          723 |          723 |          723 |          723 |        57165 |        57165 |        57165 |        57165 |       350779 |       350779 |       350779 |       350779 |      1292652 |      1292652 |      1292652 |      1292652 |      3853213 |      3853213 |      3853213 |      3853213 |     10299771 |     10299771 |     10299771 |     10299771 |
dtlb.writebacks                                  0 |            0 |            0 |            0 |            0 |            0 |            0 |            0 |            0 |            0 |            0 |            0 |            0 |            0 |            0 |            0 |           16 |           16 |           16 |           16 |          592 |          592 |          592 |          592 |        54171 |        54171 |        54171 |        54171 |       332213 |       332213 |       332213 |       332213 |      1233066 |      1233066 |      1233066 |      1233066 |      3703773 |      3703773 |      3703773 |      3703773 |      9963483 |      9963483 |      9963483 |      9963483 |
dtlb.invalidations                               0 |            0 |            0 |            0 |            0 |            0 |            0 |            0 |            0 |            0 |            0 |            0 |            0 |            0 |            0 |            0 |            0 |            0 |            0 |            0 |            0 |            0 |            0 |            0 |            0 |            0 |            0 |            0 |            0 |            0 |            0 |            0 |            0 |            0 |            0 |            0 |            0 |            0 |            0 |            0 |            0 |            0 |            0 |            0 |
dtlb.miss_rate                              0.0001 |       0.0001 |       0.0001 |       0.0001 |       0.0000 |       0.0000 |       0.0000 |       0.0000 |       0.0000 |       0.0000 |       0.0000 |       0.0000 |       0.0000 |       0.0000 |       0.0000 |       0.0000 |       0.0000 |       0.0000 |       0.0000 |       0.0000 |       0.0001 |       0.0001 |       0.0001 |       0.0001 |       0.0027 |       0.0027 |       0.0027 |       0.0027 |       0.0079 |       0.0079 |       0.0079 |       0.0079 |       0.0140 |       0.0140 |       0.0140 |       0.0140 |       0.0199 |       0.0199 |       0.0199 |       0.0199 |       0.0255 |       0.0255 |       0.0255 |       0.0255 |
dtlb.repl_rate                              0.0000 |       0.0000 |       0.0000 |       0.0000 |       0.0000 |       0.0000 |       0.0000 |       0.0000 |       0.0000 |       0.0000 |       0.0000 |       0.0000 |       0.0000 |       0.0000 |       0.0000 |       0.0000 |       0.0000 |       0.0000 |       0.0000 |       0.0000 |       0.0001 |       0.0001 |       0.0001 |       0.0001 |       0.0027 |       0.0027 |       0.0027 |       0.0027 |       0.0079 |       0.0079 |       0.0079 |       0.0079 |       0.0140 |       0.0140 |       0.0140 |       0.0140 |       0.0199 |       0.0199 |       0.0199 |       0.0199 |       0.0255 |       0.0255 |       0.0255 |       0.0255 |
dtlb.wb_rate                                0.0000 |       0.0000 |       0.0000 |       0.0000 |       0.0000 |       0.0000 |       0.0000 |       0.0000 |       0.0000 |       0.0000 |       0.0000 |       0.0000 |       0.0000 |       0.0000 |       0.0000 |       0.0000 |       0.0000 |       0.0000 |       0.0000 |       0.0000 |       0.0001 |       0.0001 |       0.0001 |       0.0001 |       0.0026 |       0.0026 |       0.0026 |       0.0026 |       0.0075 |       0.0075 |       0.0075 |       0.0075 |       0.0133 |       0.0133 |       0.0133 |       0.0133 |       0.0192 |       0.0192 |       0.0192 |       0.0192 |       0.0247 |       0.0247 |       0.0247 |       0.0247 |
dtlb.inv_rate                               0.0000 |       0.0000 |       0.0000 |       0.0000 |       0.0000 |       0.0000 |       0.0000 |       0.0000 |       0.0000 |       0.0000 |       0.0000 |       0.0000 |       0.0000 |       0.0000 |       0.0000 |       0.0000 |       0.0000 |       0.0000 |       0.0000 |       0.0000 |       0.0000 |       0.0000 |       0.0000 |       0.0000 |       0.0000 |       0.0000 |       0.0000 |       0.0000 |       0.0000 |       0.0000 |       0.0000 |       0.0000 |       0.0000 |       0.0000 |       0.0000 |       0.0000 |       0.0000 |       0.0000 |       0.0000 |       0.0000 |       0.0000 |       0.0000 |       0.0000 |       0.0000 |
ld_text_base                            0x00400000 |   0x00400000 |   0x00400000 |   0x00400000 |   0x00400000 |   0x00400000 |   0x00400000 |   0x00400000 |   0x00400000 |   0x00400000 |   0x00400000 |   0x00400000 |   0x00400000 |   0x00400000 |   0x00400000 |   0x00400000 |   0x00400000 |   0x00400000 |   0x00400000 |   0x00400000 |   0x00400000 |   0x00400000 |   0x00400000 |   0x00400000 |   0x00400000 |   0x00400000 |   0x00400000 |   0x00400000 |   0x00400000 |   0x00400000 |   0x00400000 |   0x00400000 |   0x00400000 |   0x00400000 |   0x00400000 |   0x00400000 |   0x00400000 |   0x00400000 |   0x00400000 |   0x00400000 |   0x00400000 |   0x00400000 |   0x00400000 |   0x00400000 |
ld_text_size                                 74304 |        74304 |        74304 |        74304 |        74336 |        74336 |        74336 |        74336 |        74352 |        74352 |        74352 |        74352 |        74368 |        74368 |        74368 |        74368 |        74368 |        74368 |        74368 |        74368 |        74368 |        74368 |        74368 |        74368 |        74368 |        74368 |        74368 |        74368 |        74368 |        74368 |        74368 |        74368 |        74368 |        74368 |        74368 |        74368 |        74368 |        74368 |        74368 |        74368 |        74368 |        74368 |        74368 |        74368 |
ld_data_base                            0x10000000 |   0x10000000 |   0x10000000 |   0x10000000 |   0x10000000 |   0x10000000 |   0x10000000 |   0x10000000 |   0x10000000 |   0x10000000 |   0x10000000 |   0x10000000 |   0x10000000 |   0x10000000 |   0x10000000 |   0x10000000 |   0x10000000 |   0x10000000 |   0x10000000 |   0x10000000 |   0x10000000 |   0x10000000 |   0x10000000 |   0x10000000 |   0x10000000 |   0x10000000 |   0x10000000 |   0x10000000 |   0x10000000 |   0x10000000 |   0x10000000 |   0x10000000 |   0x10000000 |   0x10000000 |   0x10000000 |   0x10000000 |   0x10000000 |   0x10000000 |   0x10000000 |   0x10000000 |   0x10000000 |   0x10000000 |   0x10000000 |   0x10000000 |
ld_data_size                                  8192 |         8192 |         8192 |         8192 |         8192 |         8192 |         8192 |         8192 |         8192 |         8192 |         8192 |         8192 |         8192 |         8192 |         8192 |         8192 |         8192 |         8192 |         8192 |         8192 |         8192 |         8192 |         8192 |         8192 |         8192 |         8192 |         8192 |         8192 |         8192 |         8192 |         8192 |         8192 |         8192 |         8192 |         8192 |         8192 |         8192 |         8192 |         8192 |         8192 |         8192 |         8192 |         8192 |         8192 |
ld_stack_base                           0x7fffc000 |   0x7fffc000 |   0x7fffc000 |   0x7fffc000 |   0x7fffc000 |   0x7fffc000 |   0x7fffc000 |   0x7fffc000 |   0x7fffc000 |   0x7fffc000 |   0x7fffc000 |   0x7fffc000 |   0x7fffc000 |   0x7fffc000 |   0x7fffc000 |   0x7fffc000 |   0x7fffc000 |   0x7fffc000 |   0x7fffc000 |   0x7fffc000 |   0x7fffc000 |   0x7fffc000 |   0x7fffc000 |   0x7fffc000 |   0x7fffc000 |   0x7fffc000 |   0x7fffc000 |   0x7fffc000 |   0x7fffc000 |   0x7fffc000 |   0x7fffc000 |   0x7fffc000 |   0x7fffc000 |   0x7fffc000 |   0x7fffc000 |   0x7fffc000 |   0x7fffc000 |   0x7fffc000 |   0x7fffc000 |   0x7fffc000 |   0x7fffc000 |   0x7fffc000 |   0x7fffc000 |   0x7fffc000 |
ld_stack_size                                16384 |        16384 |        16384 |        16384 |        16384 |        16384 |        16384 |        16384 |        16384 |        16384 |        16384 |        16384 |        16384 |        16384 |        16384 |        16384 |        16384 |        16384 |        16384 |        16384 |        16384 |        16384 |        16384 |        16384 |        16384 |        16384 |        16384 |        16384 |        16384 |        16384 |        16384 |        16384 |        16384 |        16384 |        16384 |        16384 |        16384 |        16384 |        16384 |        16384 |        16384 |        16384 |        16384 |        16384 |
ld_prog_entry                           0x00400140 |   0x00400140 |   0x00400140 |   0x00400140 |   0x00400140 |   0x00400140 |   0x00400140 |   0x00400140 |   0x00400140 |   0x00400140 |   0x00400140 |   0x00400140 |   0x00400140 |   0x00400140 |   0x00400140 |   0x00400140 |   0x00400140 |   0x00400140 |   0x00400140 |   0x00400140 |   0x00400140 |   0x00400140 |   0x00400140 |   0x00400140 |   0x00400140 |   0x00400140 |   0x00400140 |   0x00400140 |   0x00400140 |   0x00400140 |   0x00400140 |   0x00400140 |   0x00400140 |   0x00400140 |   0x00400140 |   0x00400140 |   0x00400140 |   0x00400140 |   0x00400140 |   0x00400140 |   0x00400140 |   0x00400140 |   0x00400140 |   0x00400140 |
ld_environ_base                         0x7fff8000 |   0x7fff8000 |   0x7fff8000 |   0x7fff8000 |   0x7fff8000 |   0x7fff8000 |   0x7fff8000 |   0x7fff8000 |   0x7fff8000 |   0x7fff8000 |   0x7fff8000 |   0x7fff8000 |   0x7fff8000 |   0x7fff8000 |   0x7fff8000 |   0x7fff8000 |   0x7fff8000 |   0x7fff8000 |   0x7fff8000 |   0x7fff8000 |   0x7fff8000 |   0x7fff8000 |   0x7fff8000 |   0x7fff8000 |   0x7fff8000 |   0x7fff8000 |   0x7fff8000 |   0x7fff8000 |   0x7fff8000 |   0x7fff8000 |   0x7fff8000 |   0x7fff8000 |   0x7fff8000 |   0x7fff8000 |   0x7fff8000 |   0x7fff8000 |   0x7fff8000 |   0x7fff8000 |   0x7fff8000 |   0x7fff8000 |   0x7fff8000 |   0x7fff8000 |   0x7fff8000 |   0x7fff8000 |
ld_target_big_endian                             0 |            0 |            0 |            0 |            0 |            0 |            0 |            0 |            0 |            0 |            0 |            0 |            0 |            0 |            0 |            0 |            0 |            0 |            0 |            0 |            0 |            0 |            0 |            0 |            0 |            0 |            0 |            0 |            0 |            0 |            0 |            0 |            0 |            0 |            0 |            0 |            0 |            0 |            0 |            0 |            0 |            0 |            0 |            0 |
mem.page_count                                  35 |           35 |           35 |           35 |           43 |           43 |           43 |           43 |           59 |           59 |           59 |           59 |           91 |           91 |           91 |           91 |          155 |          155 |          155 |          155 |          283 |          283 |          283 |          283 |          539 |          539 |          539 |          539 |         1051 |         1051 |         1051 |         1051 |         2081 |         2081 |         2081 |         2081 |         4135 |         4135 |         4135 |         4135 |         8243 |         8243 |         8243 |         8243 |
mem.page_mem                                  140k |         140k |         140k |         140k |         172k |         172k |         172k |         172k |         236k |         236k |         236k |         236k |         364k |         364k |         364k |         364k |         620k |         620k |         620k |         620k |        1132k |        1132k |        1132k |        1132k |        2156k |        2156k |        2156k |        2156k |        4204k |        4204k |        4204k |        4204k |        8324k |        8324k |        8324k |        8324k |       16540k |       16540k |       16540k |       16540k |       32972k |       32972k |       32972k |       32972k |
mem.ptab_misses                                 35 |           35 |           35 |           35 |           43 |           43 |           43 |           43 |           59 |           59 |           59 |           59 |           91 |           91 |           91 |           91 |          155 |          155 |          155 |          155 |          283 |          283 |          283 |          283 |          539 |          539 |          539 |          539 |         1051 |         1051 |         1051 |         1051 |         9118 |         9118 |         9118 |         9118 |        23386 |        23386 |        23386 |        23386 |        64662 |        64662 |        64662 |        64662 |
mem.ptab_accesses                          4412416 |      4412416 |      4412416 |      4412416 |      8934160 |      8934160 |      8934160 |      8934160 |     18571512 |     18571512 |     18571512 |     18571512 |     39073060 |     39073060 |     39073060 |     39073060 |     82570698 |     82570698 |     82570698 |     82570698 |    174153210 |    174153210 |    174153210 |    174153210 |    367587202 |    367587202 |    367587202 |    367587202 |    773110254 |    773110254 |    773110254 |    773110254 |   1624562772 |   1624562772 |   1624562772 |   1624562772 |   3402113042 |   3402113042 |   3402113042 |   3402113042 |   7119090006 |   7119090006 |   7119090006 |   7119090006 |
mem.ptab_miss_rate                          0.0000 |       0.0000 |       0.0000 |       0.0000 |       0.0000 |       0.0000 |       0.0000 |       0.0000 |       0.0000 |       0.0000 |       0.0000 |       0.0000 |       0.0000 |       0.0000 |       0.0000 |       0.0000 |       0.0000 |       0.0000 |       0.0000 |       0.0000 |       0.0000 |       0.0000 |       0.0000 |       0.0000 |       0.0000 |       0.0000 |       0.0000 |       0.0000 |       0.0000 |       0.0000 |       0.0000 |       0.0000 |       0.0000 |       0.0000 |       0.0000 |       0.0000 |       0.0000 |       0.0000 |       0.0000 |       0.0000 |       0.0000 |       0.0000 |       0.0000 |       0.0000 |
-------------------------------------------------------------------------------------------------
sim-bpred                                     4096 |         4096 |         4096 |         4096 |         4096 |         4096 |         4096 |         8192 |         8192 |         8192 |         8192 |         8192 |         8192 |         8192 |        16384 |        16384 |        16384 |        16384 |        16384 |        16384 |        16384 |        32768 |        32768 |        32768 |        32768 |        32768 |        32768 |        32768 |        65536 |        65536 |        65536 |        65536 |        65536 |        65536 |        65536 |       131072 |       131072 |       131072 |       131072 |       131072 |       131072 |       131072 |       262144 |       262144 |       262144 |       262144 |       262144 |       262144 |       262144 |       524288 |       524288 |       524288 |       524288 |       524288 |       524288 |       524288 |      1048576 |      1048576 |      1048576 |      1048576 |      1048576 |      1048576 |      1048576 |      2097152 |      2097152 |      2097152 |      2097152 |      2097152 |      2097152 |      2097152 |      4194304 |      4194304 |      4194304 |      4194304 |      4194304 |      4194304 |      4194304 |
-bpred bimod -bpred:bimod 512
-bpred bimod -bpred:bimod 1024
-bpred bimod -bpred:bimod 2048
-bpred 2lev -bpred:2lev 1 512 10 1
-bpred 2lev -bpred:2lev 1 1024 10 1
-bpred 2lev -bpred:2lev 1 2048 10 1
-bpred 2lev -bpred:2lev 1 4096 10 1
-------------------------------------------------------------------------------------------------
sim_num_insn                                870760 |       870760 |       870760 |       870760 |       870760 |       870760 |       870760 |      1869484 |      1869484 |      1869484 |      1869484 |      1869484 |      1869484 |      1869484 |      3999581 |      3999581 |      3999581 |      3999581 |      3999581 |      3999581 |      3999581 |      8533328 |      8533328 |      8533328 |      8533328 |      8533328 |      8533328 |      8533328 |     18157478 |     18157478 |     18157478 |     18157478 |     18157478 |     18157478 |     18157478 |     38428119 |     38428119 |     38428119 |     38428119 |     38428119 |     38428119 |     38428119 |     81261736 |     81261736 |     81261736 |     81261736 |     81261736 |     81261736 |     81261736 |    171086489 |    171086489 |    171086489 |    171086489 |    171086489 |    171086489 |    171086489 |    359750233 |    359750233 |    359750233 |    359750233 |    359750233 |    359750233 |    359750233 |    753719673 |    753719673 |    753719673 |    753719673 |    753719673 |    753719673 |    753719673 |   1577785445 |   1577785445 |   1577785445 |   1577785445 |   1577785445 |   1577785445 |   1577785445 |
sim_num_refs                                218021 |       218021 |       218021 |       218021 |       218021 |       218021 |       218021 |       464965 |       464965 |       464965 |       464965 |       464965 |       464965 |       464965 |       990631 |       990631 |       990631 |       990631 |       990631 |       990631 |       990631 |      2108327 |      2108327 |      2108327 |      2108327 |      2108327 |      2108327 |      2108327 |      4477774 |      4477774 |      4477774 |      4477774 |      4477774 |      4477774 |      4477774 |      9465604 |      9465604 |      9465604 |      9465604 |      9465604 |      9465604 |      9465604 |     19991078 |     19991078 |     19991078 |     19991078 |     19991078 |     19991078 |     19991078 |     42054522 |     42054522 |     42054522 |     42054522 |     42054522 |     42054522 |     42054522 |     88356141 |     88356141 |     88356141 |     88356141 |     88356141 |     88356141 |     88356141 |    184998092 |    184998092 |    184998092 |    184998092 |    184998092 |    184998092 |    184998092 |    386966422 |    386966422 |    386966422 |    386966422 |    386966422 |    386966422 |    386966422 |
sim_elapsed_time                                 1 |            1 |            1 |            1 |            1 |            1 |            1 |            1 |            1 |            1 |            1 |            1 |            1 |            1 |            1 |            1 |            1 |            1 |            1 |            1 |            1 |            1 |            1 |            1 |            2 |            1 |            1 |            1 |            3 |            2 |            2 |            3 |            2 |            3 |            2 |            6 |            5 |            5 |            5 |            5 |            5 |            5 |           10 |           11 |           11 |           11 |           11 |           11 |           11 |           23 |           23 |           23 |           23 |           23 |           23 |           23 |           48 |           48 |           48 |           49 |           48 |           49 |           48 |          100 |          101 |          100 |          102 |          102 |          101 |          102 |          212 |          208 |          208 |          211 |          211 |          211 |          210 |
sim_inst_rate                          870760.0000 |  870760.0000 |  870760.0000 |  870760.0000 |  870760.0000 |  870760.0000 |  870760.0000 | 1869484.0000 | 1869484.0000 | 1869484.0000 | 1869484.0000 | 1869484.0000 | 1869484.0000 | 1869484.0000 | 3999581.0000 | 3999581.0000 | 3999581.0000 | 3999581.0000 | 3999581.0000 | 3999581.0000 | 3999581.0000 | 8533328.0000 | 8533328.0000 | 8533328.0000 | 4266664.0000 | 8533328.0000 | 8533328.0000 | 8533328.0000 | 6052492.6667 | 9078739.0000 | 9078739.0000 | 6052492.6667 | 9078739.0000 | 6052492.6667 | 9078739.0000 | 6404686.5000 | 7685623.8000 | 7685623.8000 | 7685623.8000 | 7685623.8000 | 7685623.8000 | 7685623.8000 | 8126173.6000 | 7387430.5455 | 7387430.5455 | 7387430.5455 | 7387430.5455 | 7387430.5455 | 7387430.5455 | 7438543.0000 | 7438543.0000 | 7438543.0000 | 7438543.0000 | 7438543.0000 | 7438543.0000 | 7438543.0000 | 7494796.5208 | 7494796.5208 | 7494796.5208 | 7341841.4898 | 7494796.5208 | 7341841.4898 | 7494796.5208 | 7537196.7300 | 7462571.0198 | 7537196.7300 | 7389408.5588 | 7389408.5588 | 7462571.0198 | 7389408.5588 | 7442384.1745 | 7585506.9471 | 7585506.9471 | 7477656.1374 | 7477656.1374 | 7477656.1374 | 7513264.0238 |
sim_num_branches                            155006 |       155006 |       155006 |       155006 |       155006 |       155006 |       155006 |       333706 |       333706 |       333706 |       333706 |       333706 |       333706 |       333706 |       714914 |       714914 |       714914 |       714914 |       714914 |       714914 |       714914 |      1527461 |      1527461 |      1527461 |      1527461 |      1527461 |      1527461 |      1527461 |      3252696 |      3252696 |      3252696 |      3252696 |      3252696 |      3252696 |      3252696 |      6889637 |      6889637 |      6889637 |      6889637 |      6889637 |      6889637 |      6889637 |     14576495 |     14576495 |     14576495 |     14576495 |     14576495 |     14576495 |     14576495 |     30710582 |     30710582 |     30710582 |     30710582 |     30710582 |     30710582 |     30710582 |     64602255 |     64602255 |     64602255 |     64602255 |     64602255 |     64602255 |     64602255 |    135424420 |    135424420 |    135424420 |    135424420 |    135424420 |    135424420 |    135424420 |    283580797 |    283580797 |    283580797 |    283580797 |    283580797 |    283580797 |    283580797 |
sim_IPB                                     5.6176 |       5.6176 |       5.6176 |       5.6176 |       5.6176 |       5.6176 |       5.6176 |       5.6022 |       5.6022 |       5.6022 |       5.6022 |       5.6022 |       5.6022 |       5.6022 |       5.5945 |       5.5945 |       5.5945 |       5.5945 |       5.5945 |       5.5945 |       5.5945 |       5.5866 |       5.5866 |       5.5866 |       5.5866 |       5.5866 |       5.5866 |       5.5866 |       5.5823 |       5.5823 |       5.5823 |       5.5823 |       5.5823 |       5.5823 |       5.5823 |       5.5777 |       5.5777 |       5.5777 |       5.5777 |       5.5777 |       5.5777 |       5.5777 |       5.5748 |       5.5748 |       5.5748 |       5.5748 |       5.5748 |       5.5748 |       5.5748 |       5.5709 |       5.5709 |       5.5709 |       5.5709 |       5.5709 |       5.5709 |       5.5709 |       5.5687 |       5.5687 |       5.5687 |       5.5687 |       5.5687 |       5.5687 |       5.5687 |       5.5656 |       5.5656 |       5.5656 |       5.5656 |       5.5656 |       5.5656 |       5.5656 |       5.5638 |       5.5638 |       5.5638 |       5.5638 |       5.5638 |       5.5638 |       5.5638 |
bpred_bimod.lookups                         155006 |       155006 |       155006 |xxxxxxxxxxxxx |xxxxxxxxxxxxx |xxxxxxxxxxxxx |xxxxxxxxxxxxx |       333706 |       333706 |       333706 |xxxxxxxxxxxxx |xxxxxxxxxxxxx |xxxxxxxxxxxxx |xxxxxxxxxxxxx |       714914 |       714914 |       714914 |xxxxxxxxxxxxx |xxxxxxxxxxxxx |xxxxxxxxxxxxx |xxxxxxxxxxxxx |      1527461 |      1527461 |      1527461 |xxxxxxxxxxxxx |xxxxxxxxxxxxx |xxxxxxxxxxxxx |xxxxxxxxxxxxx |      3252696 |      3252696 |      3252696 |xxxxxxxxxxxxx |xxxxxxxxxxxxx |xxxxxxxxxxxxx |xxxxxxxxxxxxx |      6889637 |      6889637 |      6889637 |xxxxxxxxxxxxx |xxxxxxxxxxxxx |xxxxxxxxxxxxx |xxxxxxxxxxxxx |     14576495 |     14576495 |     14576495 |xxxxxxxxxxxxx |xxxxxxxxxxxxx |xxxxxxxxxxxxx |xxxxxxxxxxxxx |     30710582 |     30710582 |     30710582 |xxxxxxxxxxxxx |xxxxxxxxxxxxx |xxxxxxxxxxxxx |xxxxxxxxxxxxx |     64602255 |     64602255 |     64602255 |xxxxxxxxxxxxx |xxxxxxxxxxxxx |xxxxxxxxxxxxx |xxxxxxxxxxxxx |    135424420 |    135424420 |    135424420 |xxxxxxxxxxxxx |xxxxxxxxxxxxx |xxxxxxxxxxxxx |xxxxxxxxxxxxx |    283580797 |    283580797 |    283580797 |
bpred_bimod.updates                         155006 |       155006 |       155006 |xxxxxxxxxxxxx |xxxxxxxxxxxxx |xxxxxxxxxxxxx |xxxxxxxxxxxxx |       333706 |       333706 |       333706 |xxxxxxxxxxxxx |xxxxxxxxxxxxx |xxxxxxxxxxxxx |xxxxxxxxxxxxx |       714914 |       714914 |       714914 |xxxxxxxxxxxxx |xxxxxxxxxxxxx |xxxxxxxxxxxxx |xxxxxxxxxxxxx |      1527461 |      1527461 |      1527461 |xxxxxxxxxxxxx |xxxxxxxxxxxxx |xxxxxxxxxxxxx |xxxxxxxxxxxxx |      3252696 |      3252696 |      3252696 |xxxxxxxxxxxxx |xxxxxxxxxxxxx |xxxxxxxxxxxxx |xxxxxxxxxxxxx |      6889637 |      6889637 |      6889637 |xxxxxxxxxxxxx |xxxxxxxxxxxxx |xxxxxxxxxxxxx |xxxxxxxxxxxxx |     14576495 |     14576495 |     14576495 |xxxxxxxxxxxxx |xxxxxxxxxxxxx |xxxxxxxxxxxxx |xxxxxxxxxxxxx |     30710582 |     30710582 |     30710582 |xxxxxxxxxxxxx |xxxxxxxxxxxxx |xxxxxxxxxxxxx |xxxxxxxxxxxxx |     64602255 |     64602255 |     64602255 |xxxxxxxxxxxxx |xxxxxxxxxxxxx |xxxxxxxxxxxxx |xxxxxxxxxxxxx |    135424420 |    135424420 |    135424420 |xxxxxxxxxxxxx |xxxxxxxxxxxxx |xxxxxxxxxxxxx |xxxxxxxxxxxxx |    283580797 |    283580797 |    283580797 |
bpred_bimod.addr_hits                       124004 |       124012 |       124012 |xxxxxxxxxxxxx |xxxxxxxxxxxxx |xxxxxxxxxxxxx |xxxxxxxxxxxxx |       267112 |       267118 |       267118 |xxxxxxxxxxxxx |xxxxxxxxxxxxx |xxxxxxxxxxxxx |xxxxxxxxxxxxx |       572249 |       572255 |       572256 |xxxxxxxxxxxxx |xxxxxxxxxxxxx |xxxxxxxxxxxxx |xxxxxxxxxxxxx |      1221900 |      1221906 |      1221909 |xxxxxxxxxxxxx |xxxxxxxxxxxxx |xxxxxxxxxxxxx |xxxxxxxxxxxxx |      2604986 |      2604992 |      2604995 |xxxxxxxxxxxxx |xxxxxxxxxxxxx |xxxxxxxxxxxxx |xxxxxxxxxxxxx |      5513496 |      5513503 |      5513505 |xxxxxxxxxxxxx |xxxxxxxxxxxxx |xxxxxxxxxxxxx |xxxxxxxxxxxxx |     11670670 |     11670677 |     11670679 |xxxxxxxxxxxxx |xxxxxxxxxxxxx |xxxxxxxxxxxxx |xxxxxxxxxxxxx |     24563396 |     24563403 |     24563405 |xxxxxxxxxxxxx |xxxxxxxxxxxxx |xxxxxxxxxxxxx |xxxxxxxxxxxxx |     51711948 |     51711954 |     51711955 |xxxxxxxxxxxxx |xxxxxxxxxxxxx |xxxxxxxxxxxxx |xxxxxxxxxxxxx |    108309171 |    108309177 |    108309178 |xxxxxxxxxxxxx |xxxxxxxxxxxxx |xxxxxxxxxxxxx |xxxxxxxxxxxxx |    226962291 |    226962297 |    226962298 |
bpred_bimod.dir_hits                        124126 |       124134 |       124135 |xxxxxxxxxxxxx |xxxxxxxxxxxxx |xxxxxxxxxxxxx |xxxxxxxxxxxxx |       267239 |       267245 |       267245 |xxxxxxxxxxxxx |xxxxxxxxxxxxx |xxxxxxxxxxxxx |xxxxxxxxxxxxx |       572376 |       572382 |       572383 |xxxxxxxxxxxxx |xxxxxxxxxxxxx |xxxxxxxxxxxxx |xxxxxxxxxxxxx |      1222026 |      1222032 |      1222035 |xxxxxxxxxxxxx |xxxxxxxxxxxxx |xxxxxxxxxxxxx |xxxxxxxxxxxxx |      2605112 |      2605118 |      2605121 |xxxxxxxxxxxxx |xxxxxxxxxxxxx |xxxxxxxxxxxxx |xxxxxxxxxxxxx |      5513623 |      5513630 |      5513632 |xxxxxxxxxxxxx |xxxxxxxxxxxxx |xxxxxxxxxxxxx |xxxxxxxxxxxxx |     11670797 |     11670804 |     11670806 |xxxxxxxxxxxxx |xxxxxxxxxxxxx |xxxxxxxxxxxxx |xxxxxxxxxxxxx |     24563523 |     24563530 |     24563532 |xxxxxxxxxxxxx |xxxxxxxxxxxxx |xxxxxxxxxxxxx |xxxxxxxxxxxxx |     51712086 |     51712092 |     51712093 |xxxxxxxxxxxxx |xxxxxxxxxxxxx |xxxxxxxxxxxxx |xxxxxxxxxxxxx |    108309309 |    108309315 |    108309316 |xxxxxxxxxxxxx |xxxxxxxxxxxxx |xxxxxxxxxxxxx |xxxxxxxxxxxxx |    226962429 |    226962435 |    226962436 |
bpred_bimod.misses                           30880 |        30872 |        30871 |xxxxxxxxxxxxx |xxxxxxxxxxxxx |xxxxxxxxxxxxx |xxxxxxxxxxxxx |        66467 |        66461 |        66461 |xxxxxxxxxxxxx |xxxxxxxxxxxxx |xxxxxxxxxxxxx |xxxxxxxxxxxxx |       142538 |       142532 |       142531 |xxxxxxxxxxxxx |xxxxxxxxxxxxx |xxxxxxxxxxxxx |xxxxxxxxxxxxx |       305435 |       305429 |       305426 |xxxxxxxxxxxxx |xxxxxxxxxxxxx |xxxxxxxxxxxxx |xxxxxxxxxxxxx |       647584 |       647578 |       647575 |xxxxxxxxxxxxx |xxxxxxxxxxxxx |xxxxxxxxxxxxx |xxxxxxxxxxxxx |      1376014 |      1376007 |      1376005 |xxxxxxxxxxxxx |xxxxxxxxxxxxx |xxxxxxxxxxxxx |xxxxxxxxxxxxx |      2905698 |      2905691 |      2905689 |xxxxxxxxxxxxx |xxxxxxxxxxxxx |xxxxxxxxxxxxx |xxxxxxxxxxxxx |      6147059 |      6147052 |      6147050 |xxxxxxxxxxxxx |xxxxxxxxxxxxx |xxxxxxxxxxxxx |xxxxxxxxxxxxx |     12890169 |     12890163 |     12890162 |xxxxxxxxxxxxx |xxxxxxxxxxxxx |xxxxxxxxxxxxx |xxxxxxxxxxxxx |     27115111 |     27115105 |     27115104 |xxxxxxxxxxxxx |xxxxxxxxxxxxx |xxxxxxxxxxxxx |xxxxxxxxxxxxx |     56618368 |     56618362 |     56618361 |
bpred_bimod.jr_hits                           4157 |         4157 |         4157 |xxxxxxxxxxxxx |xxxxxxxxxxxxx |xxxxxxxxxxxxx |xxxxxxxxxxxxx |         8261 |         8261 |         8261 |xxxxxxxxxxxxx |xxxxxxxxxxxxx |xxxxxxxxxxxxx |xxxxxxxxxxxxx |        16453 |        16453 |        16453 |xxxxxxxxxxxxx |xxxxxxxxxxxxx |xxxxxxxxxxxxx |xxxxxxxxxxxxx |        32837 |        32837 |        32837 |xxxxxxxxxxxxx |xxxxxxxxxxxxx |xxxxxxxxxxxxx |xxxxxxxxxxxxx |        65605 |        65605 |        65605 |xxxxxxxxxxxxx |xxxxxxxxxxxxx |xxxxxxxxxxxxx |xxxxxxxxxxxxx |       131141 |       131141 |       131141 |xxxxxxxxxxxxx |xxxxxxxxxxxxx |xxxxxxxxxxxxx |xxxxxxxxxxxxx |       262213 |       262213 |       262213 |xxxxxxxxxxxxx |xxxxxxxxxxxxx |xxxxxxxxxxxxx |xxxxxxxxxxxxx |       524357 |       524357 |       524357 |xxxxxxxxxxxxx |xxxxxxxxxxxxx |xxxxxxxxxxxxx |xxxxxxxxxxxxx |      1048648 |      1048648 |      1048648 |xxxxxxxxxxxxx |xxxxxxxxxxxxx |xxxxxxxxxxxxx |xxxxxxxxxxxxx |      2097224 |      2097224 |      2097224 |xxxxxxxxxxxxx |xxxxxxxxxxxxx |xxxxxxxxxxxxx |xxxxxxxxxxxxx |      4194376 |      4194376 |      4194376 |
bpred_bimod.jr_seen                           4157 |         4157 |         4157 |xxxxxxxxxxxxx |xxxxxxxxxxxxx |xxxxxxxxxxxxx |xxxxxxxxxxxxx |         8262 |         8262 |         8262 |xxxxxxxxxxxxx |xxxxxxxxxxxxx |xxxxxxxxxxxxx |xxxxxxxxxxxxx |        16454 |        16454 |        16454 |xxxxxxxxxxxxx |xxxxxxxxxxxxx |xxxxxxxxxxxxx |xxxxxxxxxxxxx |        32838 |        32838 |        32838 |xxxxxxxxxxxxx |xxxxxxxxxxxxx |xxxxxxxxxxxxx |xxxxxxxxxxxxx |        65606 |        65606 |        65606 |xxxxxxxxxxxxx |xxxxxxxxxxxxx |xxxxxxxxxxxxx |xxxxxxxxxxxxx |       131142 |       131142 |       131142 |xxxxxxxxxxxxx |xxxxxxxxxxxxx |xxxxxxxxxxxxx |xxxxxxxxxxxxx |       262214 |       262214 |       262214 |xxxxxxxxxxxxx |xxxxxxxxxxxxx |xxxxxxxxxxxxx |xxxxxxxxxxxxx |       524358 |       524358 |       524358 |xxxxxxxxxxxxx |xxxxxxxxxxxxx |xxxxxxxxxxxxx |xxxxxxxxxxxxx |      1048649 |      1048649 |      1048649 |xxxxxxxxxxxxx |xxxxxxxxxxxxx |xxxxxxxxxxxxx |xxxxxxxxxxxxx |      2097225 |      2097225 |      2097225 |xxxxxxxxxxxxx |xxxxxxxxxxxxx |xxxxxxxxxxxxx |xxxxxxxxxxxxx |      4194377 |      4194377 |      4194377 |
bpred_bimod.jr_non_ras_hits.PP                   0 |            0 |            0 |xxxxxxxxxxxxx |xxxxxxxxxxxxx |xxxxxxxxxxxxx |xxxxxxxxxxxxx |            0 |            0 |            0 |xxxxxxxxxxxxx |xxxxxxxxxxxxx |xxxxxxxxxxxxx |xxxxxxxxxxxxx |            0 |            0 |            0 |xxxxxxxxxxxxx |xxxxxxxxxxxxx |xxxxxxxxxxxxx |xxxxxxxxxxxxx |            0 |            0 |            0 |xxxxxxxxxxxxx |xxxxxxxxxxxxx |xxxxxxxxxxxxx |xxxxxxxxxxxxx |            0 |            0 |            0 |xxxxxxxxxxxxx |xxxxxxxxxxxxx |xxxxxxxxxxxxx |xxxxxxxxxxxxx |            0 |            0 |            0 |xxxxxxxxxxxxx |xxxxxxxxxxxxx |xxxxxxxxxxxxx |xxxxxxxxxxxxx |            0 |            0 |            0 |xxxxxxxxxxxxx |xxxxxxxxxxxxx |xxxxxxxxxxxxx |xxxxxxxxxxxxx |            0 |            0 |            0 |xxxxxxxxxxxxx |xxxxxxxxxxxxx |xxxxxxxxxxxxx |xxxxxxxxxxxxx |            0 |            0 |            0 |xxxxxxxxxxxxx |xxxxxxxxxxxxx |xxxxxxxxxxxxx |xxxxxxxxxxxxx |            0 |            0 |            0 |xxxxxxxxxxxxx |xxxxxxxxxxxxx |xxxxxxxxxxxxx |xxxxxxxxxxxxx |            0 |            0 |            0 |
bpred_bimod.jr_non_ras_seen.PP                   0 |            0 |            0 |xxxxxxxxxxxxx |xxxxxxxxxxxxx |xxxxxxxxxxxxx |xxxxxxxxxxxxx |            0 |            0 |            0 |xxxxxxxxxxxxx |xxxxxxxxxxxxx |xxxxxxxxxxxxx |xxxxxxxxxxxxx |            0 |            0 |            0 |xxxxxxxxxxxxx |xxxxxxxxxxxxx |xxxxxxxxxxxxx |xxxxxxxxxxxxx |            0 |            0 |            0 |xxxxxxxxxxxxx |xxxxxxxxxxxxx |xxxxxxxxxxxxx |xxxxxxxxxxxxx |            0 |            0 |            0 |xxxxxxxxxxxxx |xxxxxxxxxxxxx |xxxxxxxxxxxxx |xxxxxxxxxxxxx |            0 |            0 |            0 |xxxxxxxxxxxxx |xxxxxxxxxxxxx |xxxxxxxxxxxxx |xxxxxxxxxxxxx |            0 |            0 |            0 |xxxxxxxxxxxxx |xxxxxxxxxxxxx |xxxxxxxxxxxxx |xxxxxxxxxxxxx |            0 |            0 |            0 |xxxxxxxxxxxxx |xxxxxxxxxxxxx |xxxxxxxxxxxxx |xxxxxxxxxxxxx |            1 |            1 |            1 |xxxxxxxxxxxxx |xxxxxxxxxxxxx |xxxxxxxxxxxxx |xxxxxxxxxxxxx |            1 |            1 |            1 |xxxxxxxxxxxxx |xxxxxxxxxxxxx |xxxxxxxxxxxxx |xxxxxxxxxxxxx |            1 |            1 |            1 |
bpred_bimod.bpred_addr_rate                 0.8000 |       0.8000 |       0.8000 |xxxxxxxxxxxxx |xxxxxxxxxxxxx |xxxxxxxxxxxxx |xxxxxxxxxxxxx |       0.8004 |       0.8005 |       0.8005 |xxxxxxxxxxxxx |xxxxxxxxxxxxx |xxxxxxxxxxxxx |xxxxxxxxxxxxx |       0.8004 |       0.8005 |       0.8005 |xxxxxxxxxxxxx |xxxxxxxxxxxxx |xxxxxxxxxxxxx |xxxxxxxxxxxxx |       0.8000 |       0.8000 |       0.8000 |xxxxxxxxxxxxx |xxxxxxxxxxxxx |xxxxxxxxxxxxx |xxxxxxxxxxxxx |       0.8009 |       0.8009 |       0.8009 |xxxxxxxxxxxxx |xxxxxxxxxxxxx |xxxxxxxxxxxxx |xxxxxxxxxxxxx |       0.8003 |       0.8003 |       0.8003 |xxxxxxxxxxxxx |xxxxxxxxxxxxx |xxxxxxxxxxxxx |xxxxxxxxxxxxx |       0.8006 |       0.8007 |       0.8007 |xxxxxxxxxxxxx |xxxxxxxxxxxxx |xxxxxxxxxxxxx |xxxxxxxxxxxxx |       0.7998 |       0.7998 |       0.7998 |xxxxxxxxxxxxx |xxxxxxxxxxxxx |xxxxxxxxxxxxx |xxxxxxxxxxxxx |       0.8005 |       0.8005 |       0.8005 |xxxxxxxxxxxxx |xxxxxxxxxxxxx |xxxxxxxxxxxxx |xxxxxxxxxxxxx |       0.7998 |       0.7998 |       0.7998 |xxxxxxxxxxxxx |xxxxxxxxxxxxx |xxxxxxxxxxxxx |xxxxxxxxxxxxx |       0.8003 |       0.8003 |       0.8003 |
bpred_bimod.bpred_dir_rate                  0.8008 |       0.8008 |       0.8008 |xxxxxxxxxxxxx |xxxxxxxxxxxxx |xxxxxxxxxxxxx |xxxxxxxxxxxxx |       0.8008 |       0.8008 |       0.8008 |xxxxxxxxxxxxx |xxxxxxxxxxxxx |xxxxxxxxxxxxx |xxxxxxxxxxxxx |       0.8006 |       0.8006 |       0.8006 |xxxxxxxxxxxxx |xxxxxxxxxxxxx |xxxxxxxxxxxxx |xxxxxxxxxxxxx |       0.8000 |       0.8000 |       0.8000 |xxxxxxxxxxxxx |xxxxxxxxxxxxx |xxxxxxxxxxxxx |xxxxxxxxxxxxx |       0.8009 |       0.8009 |       0.8009 |xxxxxxxxxxxxx |xxxxxxxxxxxxx |xxxxxxxxxxxxx |xxxxxxxxxxxxx |       0.8003 |       0.8003 |       0.8003 |xxxxxxxxxxxxx |xxxxxxxxxxxxx |xxxxxxxxxxxxx |xxxxxxxxxxxxx |       0.8007 |       0.8007 |       0.8007 |xxxxxxxxxxxxx |xxxxxxxxxxxxx |xxxxxxxxxxxxx |xxxxxxxxxxxxx |       0.7998 |       0.7998 |       0.7998 |xxxxxxxxxxxxx |xxxxxxxxxxxxx |xxxxxxxxxxxxx |xxxxxxxxxxxxx |       0.8005 |       0.8005 |       0.8005 |xxxxxxxxxxxxx |xxxxxxxxxxxxx |xxxxxxxxxxxxx |xxxxxxxxxxxxx |       0.7998 |       0.7998 |       0.7998 |xxxxxxxxxxxxx |xxxxxxxxxxxxx |xxxxxxxxxxxxx |xxxxxxxxxxxxx |       0.8003 |       0.8003 |       0.8003 |
bpred_bimod.bpred_jr_rate                   1.0000 |       1.0000 |       1.0000 |xxxxxxxxxxxxx |xxxxxxxxxxxxx |xxxxxxxxxxxxx |xxxxxxxxxxxxx |       0.9999 |       0.9999 |       0.9999 |xxxxxxxxxxxxx |xxxxxxxxxxxxx |xxxxxxxxxxxxx |xxxxxxxxxxxxx |       0.9999 |       0.9999 |       0.9999 |xxxxxxxxxxxxx |xxxxxxxxxxxxx |xxxxxxxxxxxxx |xxxxxxxxxxxxx |       1.0000 |       1.0000 |       1.0000 |xxxxxxxxxxxxx |xxxxxxxxxxxxx |xxxxxxxxxxxxx |xxxxxxxxxxxxx |       1.0000 |       1.0000 |       1.0000 |xxxxxxxxxxxxx |xxxxxxxxxxxxx |xxxxxxxxxxxxx |xxxxxxxxxxxxx |       1.0000 |       1.0000 |       1.0000 |xxxxxxxxxxxxx |xxxxxxxxxxxxx |xxxxxxxxxxxxx |xxxxxxxxxxxxx |       1.0000 |       1.0000 |       1.0000 |xxxxxxxxxxxxx |xxxxxxxxxxxxx |xxxxxxxxxxxxx |xxxxxxxxxxxxx |       1.0000 |       1.0000 |       1.0000 |xxxxxxxxxxxxx |xxxxxxxxxxxxx |xxxxxxxxxxxxx |xxxxxxxxxxxxx |       1.0000 |       1.0000 |       1.0000 |xxxxxxxxxxxxx |xxxxxxxxxxxxx |xxxxxxxxxxxxx |xxxxxxxxxxxxx |       1.0000 |       1.0000 |       1.0000 |xxxxxxxxxxxxx |xxxxxxxxxxxxx |xxxxxxxxxxxxx |xxxxxxxxxxxxx |       1.0000 |       1.0000 |       1.0000 |
bpred_bimod.bpred_jr_non_ras_rate.PP       <error: |      <error: |      <error: |xxxxxxxxxxxxx |xxxxxxxxxxxxx |xxxxxxxxxxxxx |xxxxxxxxxxxxx |      <error: |      <error: |      <error: |xxxxxxxxxxxxx |xxxxxxxxxxxxx |xxxxxxxxxxxxx |xxxxxxxxxxxxx |      <error: |      <error: |      <error: |xxxxxxxxxxxxx |xxxxxxxxxxxxx |xxxxxxxxxxxxx |xxxxxxxxxxxxx |      <error: |      <error: |      <error: |xxxxxxxxxxxxx |xxxxxxxxxxxxx |xxxxxxxxxxxxx |xxxxxxxxxxxxx |      <error: |      <error: |      <error: |xxxxxxxxxxxxx |xxxxxxxxxxxxx |xxxxxxxxxxxxx |xxxxxxxxxxxxx |      <error: |      <error: |      <error: |xxxxxxxxxxxxx |xxxxxxxxxxxxx |xxxxxxxxxxxxx |xxxxxxxxxxxxx |      <error: |      <error: |      <error: |xxxxxxxxxxxxx |xxxxxxxxxxxxx |xxxxxxxxxxxxx |xxxxxxxxxxxxx |      <error: |      <error: |      <error: |xxxxxxxxxxxxx |xxxxxxxxxxxxx |xxxxxxxxxxxxx |xxxxxxxxxxxxx |       0.0000 |       0.0000 |       0.0000 |xxxxxxxxxxxxx |xxxxxxxxxxxxx |xxxxxxxxxxxxx |xxxxxxxxxxxxx |       0.0000 |       0.0000 |       0.0000 |xxxxxxxxxxxxx |xxxxxxxxxxxxx |xxxxxxxxxxxxx |xxxxxxxxxxxxx |       0.0000 |       0.0000 |       0.0000 |
bpred_bimod.retstack_pushes                   4159 |         4159 |         4159 |xxxxxxxxxxxxx |xxxxxxxxxxxxx |xxxxxxxxxxxxx |xxxxxxxxxxxxx |         8264 |         8264 |         8264 |xxxxxxxxxxxxx |xxxxxxxxxxxxx |xxxxxxxxxxxxx |xxxxxxxxxxxxx |        16456 |        16456 |        16456 |xxxxxxxxxxxxx |xxxxxxxxxxxxx |xxxxxxxxxxxxx |xxxxxxxxxxxxx |        32840 |        32840 |        32840 |xxxxxxxxxxxxx |xxxxxxxxxxxxx |xxxxxxxxxxxxx |xxxxxxxxxxxxx |        65608 |        65608 |        65608 |xxxxxxxxxxxxx |xxxxxxxxxxxxx |xxxxxxxxxxxxx |xxxxxxxxxxxxx |       131144 |       131144 |       131144 |xxxxxxxxxxxxx |xxxxxxxxxxxxx |xxxxxxxxxxxxx |xxxxxxxxxxxxx |       262216 |       262216 |       262216 |xxxxxxxxxxxxx |xxxxxxxxxxxxx |xxxxxxxxxxxxx |xxxxxxxxxxxxx |       524360 |       524360 |       524360 |xxxxxxxxxxxxx |xxxxxxxxxxxxx |xxxxxxxxxxxxx |xxxxxxxxxxxxx |      1048650 |      1048650 |      1048650 |xxxxxxxxxxxxx |xxxxxxxxxxxxx |xxxxxxxxxxxxx |xxxxxxxxxxxxx |      2097226 |      2097226 |      2097226 |xxxxxxxxxxxxx |xxxxxxxxxxxxx |xxxxxxxxxxxxx |xxxxxxxxxxxxx |      4194378 |      4194378 |      4194378 |
bpred_bimod.retstack_pops                     4157 |         4157 |         4157 |xxxxxxxxxxxxx |xxxxxxxxxxxxx |xxxxxxxxxxxxx |xxxxxxxxxxxxx |         8262 |         8262 |         8262 |xxxxxxxxxxxxx |xxxxxxxxxxxxx |xxxxxxxxxxxxx |xxxxxxxxxxxxx |        16454 |        16454 |        16454 |xxxxxxxxxxxxx |xxxxxxxxxxxxx |xxxxxxxxxxxxx |xxxxxxxxxxxxx |        32838 |        32838 |        32838 |xxxxxxxxxxxxx |xxxxxxxxxxxxx |xxxxxxxxxxxxx |xxxxxxxxxxxxx |        65606 |        65606 |        65606 |xxxxxxxxxxxxx |xxxxxxxxxxxxx |xxxxxxxxxxxxx |xxxxxxxxxxxxx |       131142 |       131142 |       131142 |xxxxxxxxxxxxx |xxxxxxxxxxxxx |xxxxxxxxxxxxx |xxxxxxxxxxxxx |       262214 |       262214 |       262214 |xxxxxxxxxxxxx |xxxxxxxxxxxxx |xxxxxxxxxxxxx |xxxxxxxxxxxxx |       524358 |       524358 |       524358 |xxxxxxxxxxxxx |xxxxxxxxxxxxx |xxxxxxxxxxxxx |xxxxxxxxxxxxx |      1048648 |      1048648 |      1048648 |xxxxxxxxxxxxx |xxxxxxxxxxxxx |xxxxxxxxxxxxx |xxxxxxxxxxxxx |      2097224 |      2097224 |      2097224 |xxxxxxxxxxxxx |xxxxxxxxxxxxx |xxxxxxxxxxxxx |xxxxxxxxxxxxx |      4194376 |      4194376 |      4194376 |
bpred_bimod.used_ras.PP                       4157 |         4157 |         4157 |xxxxxxxxxxxxx |xxxxxxxxxxxxx |xxxxxxxxxxxxx |xxxxxxxxxxxxx |         8262 |         8262 |         8262 |xxxxxxxxxxxxx |xxxxxxxxxxxxx |xxxxxxxxxxxxx |xxxxxxxxxxxxx |        16454 |        16454 |        16454 |xxxxxxxxxxxxx |xxxxxxxxxxxxx |xxxxxxxxxxxxx |xxxxxxxxxxxxx |        32838 |        32838 |        32838 |xxxxxxxxxxxxx |xxxxxxxxxxxxx |xxxxxxxxxxxxx |xxxxxxxxxxxxx |        65606 |        65606 |        65606 |xxxxxxxxxxxxx |xxxxxxxxxxxxx |xxxxxxxxxxxxx |xxxxxxxxxxxxx |       131142 |       131142 |       131142 |xxxxxxxxxxxxx |xxxxxxxxxxxxx |xxxxxxxxxxxxx |xxxxxxxxxxxxx |       262214 |       262214 |       262214 |xxxxxxxxxxxxx |xxxxxxxxxxxxx |xxxxxxxxxxxxx |xxxxxxxxxxxxx |       524358 |       524358 |       524358 |xxxxxxxxxxxxx |xxxxxxxxxxxxx |xxxxxxxxxxxxx |xxxxxxxxxxxxx |      1048648 |      1048648 |      1048648 |xxxxxxxxxxxxx |xxxxxxxxxxxxx |xxxxxxxxxxxxx |xxxxxxxxxxxxx |      2097224 |      2097224 |      2097224 |xxxxxxxxxxxxx |xxxxxxxxxxxxx |xxxxxxxxxxxxx |xxxxxxxxxxxxx |      4194376 |      4194376 |      4194376 |
bpred_bimod.ras_hits.PP                       4157 |         4157 |         4157 |xxxxxxxxxxxxx |xxxxxxxxxxxxx |xxxxxxxxxxxxx |xxxxxxxxxxxxx |         8261 |         8261 |         8261 |xxxxxxxxxxxxx |xxxxxxxxxxxxx |xxxxxxxxxxxxx |xxxxxxxxxxxxx |        16453 |        16453 |        16453 |xxxxxxxxxxxxx |xxxxxxxxxxxxx |xxxxxxxxxxxxx |xxxxxxxxxxxxx |        32837 |        32837 |        32837 |xxxxxxxxxxxxx |xxxxxxxxxxxxx |xxxxxxxxxxxxx |xxxxxxxxxxxxx |        65605 |        65605 |        65605 |xxxxxxxxxxxxx |xxxxxxxxxxxxx |xxxxxxxxxxxxx |xxxxxxxxxxxxx |       131141 |       131141 |       131141 |xxxxxxxxxxxxx |xxxxxxxxxxxxx |xxxxxxxxxxxxx |xxxxxxxxxxxxx |       262213 |       262213 |       262213 |xxxxxxxxxxxxx |xxxxxxxxxxxxx |xxxxxxxxxxxxx |xxxxxxxxxxxxx |       524357 |       524357 |       524357 |xxxxxxxxxxxxx |xxxxxxxxxxxxx |xxxxxxxxxxxxx |xxxxxxxxxxxxx |      1048648 |      1048648 |      1048648 |xxxxxxxxxxxxx |xxxxxxxxxxxxx |xxxxxxxxxxxxx |xxxxxxxxxxxxx |      2097224 |      2097224 |      2097224 |xxxxxxxxxxxxx |xxxxxxxxxxxxx |xxxxxxxxxxxxx |xxxxxxxxxxxxx |      4194376 |      4194376 |      4194376 |
bpred_bimod.ras_rate.PP                     1.0000 |       1.0000 |       1.0000 |xxxxxxxxxxxxx |xxxxxxxxxxxxx |xxxxxxxxxxxxx |xxxxxxxxxxxxx |       0.9999 |       0.9999 |       0.9999 |xxxxxxxxxxxxx |xxxxxxxxxxxxx |xxxxxxxxxxxxx |xxxxxxxxxxxxx |       0.9999 |       0.9999 |       0.9999 |xxxxxxxxxxxxx |xxxxxxxxxxxxx |xxxxxxxxxxxxx |xxxxxxxxxxxxx |       1.0000 |       1.0000 |       1.0000 |xxxxxxxxxxxxx |xxxxxxxxxxxxx |xxxxxxxxxxxxx |xxxxxxxxxxxxx |       1.0000 |       1.0000 |       1.0000 |xxxxxxxxxxxxx |xxxxxxxxxxxxx |xxxxxxxxxxxxx |xxxxxxxxxxxxx |       1.0000 |       1.0000 |       1.0000 |xxxxxxxxxxxxx |xxxxxxxxxxxxx |xxxxxxxxxxxxx |xxxxxxxxxxxxx |       1.0000 |       1.0000 |       1.0000 |xxxxxxxxxxxxx |xxxxxxxxxxxxx |xxxxxxxxxxxxx |xxxxxxxxxxxxx |       1.0000 |       1.0000 |       1.0000 |xxxxxxxxxxxxx |xxxxxxxxxxxxx |xxxxxxxxxxxxx |xxxxxxxxxxxxx |       1.0000 |       1.0000 |       1.0000 |xxxxxxxxxxxxx |xxxxxxxxxxxxx |xxxxxxxxxxxxx |xxxxxxxxxxxxx |       1.0000 |       1.0000 |       1.0000 |xxxxxxxxxxxxx |xxxxxxxxxxxxx |xxxxxxxxxxxxx |xxxxxxxxxxxxx |       1.0000 |       1.0000 |       1.0000 |
bpred_2lev.lookups                   xxxxxxxxxxxxx |xxxxxxxxxxxxx |xxxxxxxxxxxxx |       155006 |       155006 |       155006 |       155006 |xxxxxxxxxxxxx |xxxxxxxxxxxxx |xxxxxxxxxxxxx |       333706 |       333706 |       333706 |       333706 |xxxxxxxxxxxxx |xxxxxxxxxxxxx |xxxxxxxxxxxxx |       714914 |       714914 |       714914 |       714914 |xxxxxxxxxxxxx |xxxxxxxxxxxxx |xxxxxxxxxxxxx |      1527461 |      1527461 |      1527461 |      1527461 |xxxxxxxxxxxxx |xxxxxxxxxxxxx |xxxxxxxxxxxxx |      3252696 |      3252696 |      3252696 |      3252696 |xxxxxxxxxxxxx |xxxxxxxxxxxxx |xxxxxxxxxxxxx |      6889637 |      6889637 |      6889637 |      6889637 |xxxxxxxxxxxxx |xxxxxxxxxxxxx |xxxxxxxxxxxxx |     14576495 |     14576495 |     14576495 |     14576495 |xxxxxxxxxxxxx |xxxxxxxxxxxxx |xxxxxxxxxxxxx |     30710582 |     30710582 |     30710582 |     30710582 |xxxxxxxxxxxxx |xxxxxxxxxxxxx |xxxxxxxxxxxxx |     64602255 |     64602255 |     64602255 |     64602255 |xxxxxxxxxxxxx |xxxxxxxxxxxxx |xxxxxxxxxxxxx |    135424420 |    135424420 |    135424420 |    135424420 |xxxxxxxxxxxxx |xxxxxxxxxxxxx |xxxxxxxxxxxxx |    283580797 |    283580797 |    283580797 |    283580797 |
[...]
bpred_2lev.retstack_pushes           xxxxxxxxxxxxx |xxxxxxxxxxxxx |xxxxxxxxxxxxx |         4159 |         4159 |         4159 |         4159 |xxxxxxxxxxxxx |xxxxxxxxxxxxx |xxxxxxxxxxxxx |         8264 |         8264 |         8264 |         8264 |xxxxxxxxxxxxx |xxxxxxxxxxxxx |xxxxxxxxxxxxx |        16456 |        16456 |        16456 |        16456 |xxxxxxxxxxxxx |xxxxxxxxxxxxx |xxxxxxxxxxxxx |        32840 |        32840 |        32840 |        32840 |xxxxxxxxxxxxx |xxxxxxxxxxxxx |xxxxxxxxxxxxx |        65608 |        65608 |        65608 |        65608 |xxxxxxxxxxxxx |xxxxxxxxxxxxx |xxxxxxxxxxxxx |       131144 |       131144 |       131144 |       131144 |xxxxxxxxxxxxx |xxxxxxxxxxxxx |xxxxxxxxxxxxx |       262216 |       262216 |       262216 |       262216 |xxxxxxxxxxxxx |xxxxxxxxxxxxx |xxxxxxxxxxxxx |       524360 |       524360 |       524360 |       524360 |xxxxxxxxxxxxx |xxxxxxxxxxxxx |xxxxxxxxxxxxx |      1048650 |      1048650 |      1048650 |      1048650 |xxxxxxxxxxxxx |xxxxxxxxxxxxx |xxxxxxxxxxxxx |      2097226 |      2097226 |      2097226 |      2097226 |xxxxxxxxxxxxx |xxxxxxxxxxxxx |xxxxxxxxxxxxx |      4194378 |      4194378 |      4194378 |      4194378 |
bpred_2lev.retstack_pops             xxxxxxxxxxxxx |xxxxxxxxxxxxx |xxxxxxxxxxxxx |         4157 |         4157 |         4157 |         4157 |xxxxxxxxxxxxx |xxxxxxxxxxxxx |xxxxxxxxxxxxx |         8262 |         8262 |         8262 |         8262 |xxxxxxxxxxxxx |xxxxxxxxxxxxx |xxxxxxxxxxxxx |        16454 |        16454 |        16454 |        16454 |xxxxxxxxxxxxx |xxxxxxxxxxxxx |xxxxxxxxxxxxx |        32838 |        32838 |        32838 |        32838 |xxxxxxxxxxxxx |xxxxxxxxxxxxx |xxxxxxxxxxxxx |        65606 |        65606 |        65606 |        65606 |xxxxxxxxxxxxx |xxxxxxxxxxxxx |xxxxxxxxxxxxx |       131142 |       131142 |       131142 |       131142 |xxxxxxxxxxxxx |xxxxxxxxxxxxx |xxxxxxxxxxxxx |       262214 |       262214 |       262214 |       262214 |xxxxxxxxxxxxx |xxxxxxxxxxxxx |xxxxxxxxxxxxx |       524358 |       524358 |       524358 |       524358 |xxxxxxxxxxxxx |xxxxxxxxxxxxx |xxxxxxxxxxxxx |      1048648 |      1048648 |      1048648 |      1048648 |xxxxxxxxxxxxx |xxxxxxxxxxxxx |xxxxxxxxxxxxx |      2097224 |      2097224 |      2097224 |      2097224 |xxxxxxxxxxxxx |xxxxxxxxxxxxx |xxxxxxxxxxxxx |      4194376 |      4194376 |      4194376 |      4194376 |
bpred_2lev.used_ras.PP               xxxxxxxxxxxxx |xxxxxxxxxxxxx |xxxxxxxxxxxxx |         4157 |         4157 |         4157 |         4157 |xxxxxxxxxxxxx |xxxxxxxxxxxxx |xxxxxxxxxxxxx |         8262 |         8262 |         8262 |         8262 |xxxxxxxxxxxxx |xxxxxxxxxxxxx |xxxxxxxxxxxxx |        16454 |        16454 |        16454 |        16454 |xxxxxxxxxxxxx |xxxxxxxxxxxxx |xxxxxxxxxxxxx |        32838 |        32838 |        32838 |        32838 |xxxxxxxxxxxxx |xxxxxxxxxxxxx |xxxxxxxxxxxxx |        65606 |        65606 |        65606 |        65606 |xxxxxxxxxxxxx |xxxxxxxxxxxxx |xxxxxxxxxxxxx |       131142 |       131142 |       131142 |       131142 |xxxxxxxxxxxxx |xxxxxxxxxxxxx |xxxxxxxxxxxxx |       262214 |       262214 |       262214 |       262214 |xxxxxxxxxxxxx |xxxxxxxxxxxxx |xxxxxxxxxxxxx |       524358 |       524358 |       524358 |       524358 |xxxxxxxxxxxxx |xxxxxxxxxxxxx |xxxxxxxxxxxxx |      1048648 |      1048648 |      1048648 |      1048648 |xxxxxxxxxxxxx |xxxxxxxxxxxxx |xxxxxxxxxxxxx |      2097224 |      2097224 |      2097224 |      2097224 |xxxxxxxxxxxxx |xxxxxxxxxxxxx |xxxxxxxxxxxxx |      4194376 |      4194376 |      4194376 |      4194376 |
bpred_2lev.ras_hits.PP               xxxxxxxxxxxxx |xxxxxxxxxxxxx |xxxxxxxxxxxxx |         4157 |         4157 |         4157 |         4157 |xxxxxxxxxxxxx |xxxxxxxxxxxxx |xxxxxxxxxxxxx |         8261 |         8261 |         8261 |         8261 |xxxxxxxxxxxxx |xxxxxxxxxxxxx |xxxxxxxxxxxxx |        16453 |        16453 |        16453 |        16453 |xxxxxxxxxxxxx |xxxxxxxxxxxxx |xxxxxxxxxxxxx |        32837 |        32837 |        32837 |        32837 |xxxxxxxxxxxxx |xxxxxxxxxxxxx |xxxxxxxxxxxxx |        65605 |        65605 |        65605 |        65605 |xxxxxxxxxxxxx |xxxxxxxxxxxxx |xxxxxxxxxxxxx |       131141 |       131141 |       131141 |       131141 |xxxxxxxxxxxxx |xxxxxxxxxxxxx |xxxxxxxxxxxxx |       262213 |       262213 |       262213 |       262213 |xxxxxxxxxxxxx |xxxxxxxxxxxxx |xxxxxxxxxxxxx |       524357 |       524357 |       524357 |       524357 |xxxxxxxxxxxxx |xxxxxxxxxxxxx |xxxxxxxxxxxxx |      1048648 |      1048648 |      1048648 |      1048648 |xxxxxxxxxxxxx |xxxxxxxxxxxxx |xxxxxxxxxxxxx |      2097224 |      2097224 |      2097224 |      2097224 |xxxxxxxxxxxxx |xxxxxxxxxxxxx |xxxxxxxxxxxxx |      4194376 |      4194376 |      4194376 |      4194376 |
bpred_2lev.ras_rate.PP               xxxxxxxxxxxxx |xxxxxxxxxxxxx |xxxxxxxxxxxxx |       1.0000 |       1.0000 |       1.0000 |       1.0000 |xxxxxxxxxxxxx |xxxxxxxxxxxxx |xxxxxxxxxxxxx |       0.9999 |       0.9999 |       0.9999 |       0.9999 |xxxxxxxxxxxxx |xxxxxxxxxxxxx |xxxxxxxxxxxxx |       0.9999 |       0.9999 |       0.9999 |       0.9999 |xxxxxxxxxxxxx |xxxxxxxxxxxxx |xxxxxxxxxxxxx |       1.0000 |       1.0000 |       1.0000 |       1.0000 |xxxxxxxxxxxxx |xxxxxxxxxxxxx |xxxxxxxxxxxxx |       1.0000 |       1.0000 |       1.0000 |       1.0000 |xxxxxxxxxxxxx |xxxxxxxxxxxxx |xxxxxxxxxxxxx |       1.0000 |       1.0000 |       1.0000 |       1.0000 |xxxxxxxxxxxxx |xxxxxxxxxxxxx |xxxxxxxxxxxxx |       1.0000 |       1.0000 |       1.0000 |       1.0000 |xxxxxxxxxxxxx |xxxxxxxxxxxxx |xxxxxxxxxxxxx |       1.0000 |       1.0000 |       1.0000 |       1.0000 |xxxxxxxxxxxxx |xxxxxxxxxxxxx |xxxxxxxxxxxxx |       1.0000 |       1.0000 |       1.0000 |       1.0000 |xxxxxxxxxxxxx |xxxxxxxxxxxxx |xxxxxxxxxxxxx |       1.0000 |       1.0000 |       1.0000 |       1.0000 |xxxxxxxxxxxxx |xxxxxxxxxxxxx |xxxxxxxxxxxxx |       1.0000 |       1.0000 |       1.0000 |       1.0000 |

Command list: 
	sslittle-na-sstrix-gcc -Wall -O3 -funroll-loops -finline-functions  -DRANDOM_SIZE=4096 -DOFFSET=7 -DSORT=cache4_heapsort sorts/cache4_heapsort712404891.c simpleMain.c -o cache4_heapsort651469856
	sim-cache -cache:dl1 dl1:256:32:1:l -cache:dl2 dl2:131072:32:1:l -cache:il1 il1:256:32:1:l -cache:il2 dl2 cache4_heapsort651469856
	sim-cache -cache:dl1 dl1:256:32:1:l -cache:dl2 dl2:65536:32:1:l -cache:il1 il1:256:32:1:l -cache:il2 dl2 cache4_heapsort651469856
	sim-cache -cache:dl1 dl1:1:32:256:l -cache:dl2 dl2:1:32:131072:l -cache:il1 il1:1:32:256:l -cache:il2 dl2 cache4_heapsort651469856
	sim-cache -cache:dl1 dl1:1:32:256:l -cache:dl2 dl2:1:32:65536:l -cache:il1 il1:1:32:256:l -cache:il2 dl2 cache4_heapsort651469856
	sim-bpred -bpred bimod -bpred:bimod 512 cache4_heapsort651469856
	sim-bpred -bpred bimod -bpred:bimod 1024 cache4_heapsort651469856
	sim-bpred -bpred bimod -bpred:bimod 2048 cache4_heapsort651469856
	sim-bpred -bpred 2lev -bpred:2lev 1 512 10 1 cache4_heapsort651469856
	sim-bpred -bpred 2lev -bpred:2lev 1 1024 10 1 cache4_heapsort651469856
	sim-bpred -bpred 2lev -bpred:2lev 1 2048 10 1 cache4_heapsort651469856
	sim-bpred -bpred 2lev -bpred:2lev 1 4096 10 1 cache4_heapsort651469856
	sslittle-na-sstrix-gcc -Wall -O3 -funroll-loops -finline-functions  -DRANDOM_SIZE=8192 -DOFFSET=7 -DSORT=cache4_heapsort sorts/cache4_heapsort712404891.c simpleMain.c -o cache4_heapsort651469856
	sim-cache -cache:dl1 dl1:256:32:1:l -cache:dl2 dl2:131072:32:1:l -cache:il1 il1:256:32:1:l -cache:il2 dl2 cache4_heapsort651469856
	sim-cache -cache:dl1 dl1:256:32:1:l -cache:dl2 dl2:65536:32:1:l -cache:il1 il1:256:32:1:l -cache:il2 dl2 cache4_heapsort651469856
	sim-cache -cache:dl1 dl1:1:32:256:l -cache:dl2 dl2:1:32:131072:l -cache:il1 il1:1:32:256:l -cache:il2 dl2 cache4_heapsort651469856
	sim-cache -cache:dl1 dl1:1:32:256:l -cache:dl2 dl2:1:32:65536:l -cache:il1 il1:1:32:256:l -cache:il2 dl2 cache4_heapsort651469856
	sim-bpred -bpred bimod -bpred:bimod 512 cache4_heapsort651469856
	sim-bpred -bpred bimod -bpred:bimod 1024 cache4_heapsort651469856
	sim-bpred -bpred bimod -bpred:bimod 2048 cache4_heapsort651469856
	sim-bpred -bpred 2lev -bpred:2lev 1 512 10 1 cache4_heapsort651469856
	sim-bpred -bpred 2lev -bpred:2lev 1 1024 10 1 cache4_heapsort651469856
	sim-bpred -bpred 2lev -bpred:2lev 1 2048 10 1 cache4_heapsort651469856
	sim-bpred -bpred 2lev -bpred:2lev 1 4096 10 1 cache4_heapsort651469856
	sslittle-na-sstrix-gcc -Wall -O3 -funroll-loops -finline-functions  -DRANDOM_SIZE=16384 -DOFFSET=7 -DSORT=cache4_heapsort sorts/cache4_heapsort712404891.c simpleMain.c -o cache4_heapsort651469856
	sim-cache -cache:dl1 dl1:256:32:1:l -cache:dl2 dl2:131072:32:1:l -cache:il1 il1:256:32:1:l -cache:il2 dl2 cache4_heapsort651469856
	sim-cache -cache:dl1 dl1:256:32:1:l -cache:dl2 dl2:65536:32:1:l -cache:il1 il1:256:32:1:l -cache:il2 dl2 cache4_heapsort651469856
	sim-cache -cache:dl1 dl1:1:32:256:l -cache:dl2 dl2:1:32:131072:l -cache:il1 il1:1:32:256:l -cache:il2 dl2 cache4_heapsort651469856
	sim-cache -cache:dl1 dl1:1:32:256:l -cache:dl2 dl2:1:32:65536:l -cache:il1 il1:1:32:256:l -cache:il2 dl2 cache4_heapsort651469856
	sim-bpred -bpred bimod -bpred:bimod 512 cache4_heapsort651469856
	sim-bpred -bpred bimod -bpred:bimod 1024 cache4_heapsort651469856
	sim-bpred -bpred bimod -bpred:bimod 2048 cache4_heapsort651469856
	sim-bpred -bpred 2lev -bpred:2lev 1 512 10 1 cache4_heapsort651469856
	sim-bpred -bpred 2lev -bpred:2lev 1 1024 10 1 cache4_heapsort651469856
	sim-bpred -bpred 2lev -bpred:2lev 1 2048 10 1 cache4_heapsort651469856
	sim-bpred -bpred 2lev -bpred:2lev 1 4096 10 1 cache4_heapsort651469856
	sslittle-na-sstrix-gcc -Wall -O3 -funroll-loops -finline-functions  -DRANDOM_SIZE=32768 -DOFFSET=7 -DSORT=cache4_heapsort sorts/cache4_heapsort712404891.c simpleMain.c -o cache4_heapsort651469856
	sim-cache -cache:dl1 dl1:256:32:1:l -cache:dl2 dl2:131072:32:1:l -cache:il1 il1:256:32:1:l -cache:il2 dl2 cache4_heapsort651469856
	sim-cache -cache:dl1 dl1:256:32:1:l -cache:dl2 dl2:65536:32:1:l -cache:il1 il1:256:32:1:l -cache:il2 dl2 cache4_heapsort651469856
	sim-cache -cache:dl1 dl1:1:32:256:l -cache:dl2 dl2:1:32:131072:l -cache:il1 il1:1:32:256:l -cache:il2 dl2 cache4_heapsort651469856
	sim-cache -cache:dl1 dl1:1:32:256:l -cache:dl2 dl2:1:32:65536:l -cache:il1 il1:1:32:256:l -cache:il2 dl2 cache4_heapsort651469856
	sim-bpred -bpred bimod -bpred:bimod 512 cache4_heapsort651469856
	sim-bpred -bpred bimod -bpred:bimod 1024 cache4_heapsort651469856
	sim-bpred -bpred bimod -bpred:bimod 2048 cache4_heapsort651469856
	sim-bpred -bpred 2lev -bpred:2lev 1 512 10 1 cache4_heapsort651469856
	sim-bpred -bpred 2lev -bpred:2lev 1 1024 10 1 cache4_heapsort651469856
	sim-bpred -bpred 2lev -bpred:2lev 1 2048 10 1 cache4_heapsort651469856
	sim-bpred -bpred 2lev -bpred:2lev 1 4096 10 1 cache4_heapsort651469856
	sslittle-na-sstrix-gcc -Wall -O3 -funroll-loops -finline-functions  -DRANDOM_SIZE=65536 -DOFFSET=7 -DSORT=cache4_heapsort sorts/cache4_heapsort712404891.c simpleMain.c -o cache4_heapsort651469856
	sim-cache -cache:dl1 dl1:256:32:1:l -cache:dl2 dl2:131072:32:1:l -cache:il1 il1:256:32:1:l -cache:il2 dl2 cache4_heapsort651469856
	sim-cache -cache:dl1 dl1:256:32:1:l -cache:dl2 dl2:65536:32:1:l -cache:il1 il1:256:32:1:l -cache:il2 dl2 cache4_heapsort651469856
	sim-cache -cache:dl1 dl1:1:32:256:l -cache:dl2 dl2:1:32:131072:l -cache:il1 il1:1:32:256:l -cache:il2 dl2 cache4_heapsort651469856
	sim-cache -cache:dl1 dl1:1:32:256:l -cache:dl2 dl2:1:32:65536:l -cache:il1 il1:1:32:256:l -cache:il2 dl2 cache4_heapsort651469856
	sim-bpred -bpred bimod -bpred:bimod 512 cache4_heapsort651469856
	sim-bpred -bpred bimod -bpred:bimod 1024 cache4_heapsort651469856
	sim-bpred -bpred bimod -bpred:bimod 2048 cache4_heapsort651469856
	sim-bpred -bpred 2lev -bpred:2lev 1 512 10 1 cache4_heapsort651469856
	sim-bpred -bpred 2lev -bpred:2lev 1 1024 10 1 cache4_heapsort651469856
	sim-bpred -bpred 2lev -bpred:2lev 1 2048 10 1 cache4_heapsort651469856
	sim-bpred -bpred 2lev -bpred:2lev 1 4096 10 1 cache4_heapsort651469856
	sslittle-na-sstrix-gcc -Wall -O3 -funroll-loops -finline-functions  -DRANDOM_SIZE=131072 -DOFFSET=7 -DSORT=cache4_heapsort sorts/cache4_heapsort712404891.c simpleMain.c -o cache4_heapsort651469856
	sim-cache -cache:dl1 dl1:256:32:1:l -cache:dl2 dl2:131072:32:1:l -cache:il1 il1:256:32:1:l -cache:il2 dl2 cache4_heapsort651469856
	sim-cache -cache:dl1 dl1:256:32:1:l -cache:dl2 dl2:65536:32:1:l -cache:il1 il1:256:32:1:l -cache:il2 dl2 cache4_heapsort651469856
	sim-cache -cache:dl1 dl1:1:32:256:l -cache:dl2 dl2:1:32:131072:l -cache:il1 il1:1:32:256:l -cache:il2 dl2 cache4_heapsort651469856
	sim-cache -cache:dl1 dl1:1:32:256:l -cache:dl2 dl2:1:32:65536:l -cache:il1 il1:1:32:256:l -cache:il2 dl2 cache4_heapsort651469856
	sim-bpred -bpred bimod -bpred:bimod 512 cache4_heapsort651469856
	sim-bpred -bpred bimod -bpred:bimod 1024 cache4_heapsort651469856
	sim-bpred -bpred bimod -bpred:bimod 2048 cache4_heapsort651469856
	sim-bpred -bpred 2lev -bpred:2lev 1 512 10 1 cache4_heapsort651469856
	sim-bpred -bpred 2lev -bpred:2lev 1 1024 10 1 cache4_heapsort651469856
	sim-bpred -bpred 2lev -bpred:2lev 1 2048 10 1 cache4_heapsort651469856
	sim-bpred -bpred 2lev -bpred:2lev 1 4096 10 1 cache4_heapsort651469856
	sslittle-na-sstrix-gcc -Wall -O3 -funroll-loops -finline-functions  -DRANDOM_SIZE=262144 -DOFFSET=7 -DSORT=cache4_heapsort sorts/cache4_heapsort712404891.c simpleMain.c -o cache4_heapsort651469856
	sim-cache -cache:dl1 dl1:256:32:1:l -cache:dl2 dl2:131072:32:1:l -cache:il1 il1:256:32:1:l -cache:il2 dl2 cache4_heapsort651469856
	sim-cache -cache:dl1 dl1:256:32:1:l -cache:dl2 dl2:65536:32:1:l -cache:il1 il1:256:32:1:l -cache:il2 dl2 cache4_heapsort651469856
	sim-cache -cache:dl1 dl1:1:32:256:l -cache:dl2 dl2:1:32:131072:l -cache:il1 il1:1:32:256:l -cache:il2 dl2 cache4_heapsort651469856
	sim-cache -cache:dl1 dl1:1:32:256:l -cache:dl2 dl2:1:32:65536:l -cache:il1 il1:1:32:256:l -cache:il2 dl2 cache4_heapsort651469856
	sim-bpred -bpred bimod -bpred:bimod 512 cache4_heapsort651469856
	sim-bpred -bpred bimod -bpred:bimod 1024 cache4_heapsort651469856
	sim-bpred -bpred bimod -bpred:bimod 2048 cache4_heapsort651469856
	sim-bpred -bpred 2lev -bpred:2lev 1 512 10 1 cache4_heapsort651469856
	sim-bpred -bpred 2lev -bpred:2lev 1 1024 10 1 cache4_heapsort651469856
	sim-bpred -bpred 2lev -bpred:2lev 1 2048 10 1 cache4_heapsort651469856
	sim-bpred -bpred 2lev -bpred:2lev 1 4096 10 1 cache4_heapsort651469856
	sslittle-na-sstrix-gcc -Wall -O3 -funroll-loops -finline-functions  -DRANDOM_SIZE=524288 -DOFFSET=7 -DSORT=cache4_heapsort sorts/cache4_heapsort712404891.c simpleMain.c -o cache4_heapsort651469856
	sim-cache -cache:dl1 dl1:256:32:1:l -cache:dl2 dl2:131072:32:1:l -cache:il1 il1:256:32:1:l -cache:il2 dl2 cache4_heapsort651469856
	sim-cache -cache:dl1 dl1:256:32:1:l -cache:dl2 dl2:65536:32:1:l -cache:il1 il1:256:32:1:l -cache:il2 dl2 cache4_heapsort651469856
	sim-cache -cache:dl1 dl1:1:32:256:l -cache:dl2 dl2:1:32:131072:l -cache:il1 il1:1:32:256:l -cache:il2 dl2 cache4_heapsort651469856
	sim-cache -cache:dl1 dl1:1:32:256:l -cache:dl2 dl2:1:32:65536:l -cache:il1 il1:1:32:256:l -cache:il2 dl2 cache4_heapsort651469856
	sim-bpred -bpred bimod -bpred:bimod 512 cache4_heapsort651469856
	sim-bpred -bpred bimod -bpred:bimod 1024 cache4_heapsort651469856
	sim-bpred -bpred bimod -bpred:bimod 2048 cache4_heapsort651469856
	sim-bpred -bpred 2lev -bpred:2lev 1 512 10 1 cache4_heapsort651469856
	sim-bpred -bpred 2lev -bpred:2lev 1 1024 10 1 cache4_heapsort651469856
	sim-bpred -bpred 2lev -bpred:2lev 1 2048 10 1 cache4_heapsort651469856
	sim-bpred -bpred 2lev -bpred:2lev 1 4096 10 1 cache4_heapsort651469856
	sslittle-na-sstrix-gcc -Wall -O3 -funroll-loops -finline-functions  -DRANDOM_SIZE=1048576 -DOFFSET=7 -DSORT=cache4_heapsort sorts/cache4_heapsort712404891.c simpleMain.c -o cache4_heapsort651469856
	sim-cache -cache:dl1 dl1:256:32:1:l -cache:dl2 dl2:131072:32:1:l -cache:il1 il1:256:32:1:l -cache:il2 dl2 cache4_heapsort651469856
	sim-cache -cache:dl1 dl1:256:32:1:l -cache:dl2 dl2:65536:32:1:l -cache:il1 il1:256:32:1:l -cache:il2 dl2 cache4_heapsort651469856
	sim-cache -cache:dl1 dl1:1:32:256:l -cache:dl2 dl2:1:32:131072:l -cache:il1 il1:1:32:256:l -cache:il2 dl2 cache4_heapsort651469856
	sim-cache -cache:dl1 dl1:1:32:256:l -cache:dl2 dl2:1:32:65536:l -cache:il1 il1:1:32:256:l -cache:il2 dl2 cache4_heapsort651469856
	sim-bpred -bpred bimod -bpred:bimod 512 cache4_heapsort651469856
	sim-bpred -bpred bimod -bpred:bimod 1024 cache4_heapsort651469856
	sim-bpred -bpred bimod -bpred:bimod 2048 cache4_heapsort651469856
	sim-bpred -bpred 2lev -bpred:2lev 1 512 10 1 cache4_heapsort651469856
	sim-bpred -bpred 2lev -bpred:2lev 1 1024 10 1 cache4_heapsort651469856
	sim-bpred -bpred 2lev -bpred:2lev 1 2048 10 1 cache4_heapsort651469856
	sim-bpred -bpred 2lev -bpred:2lev 1 4096 10 1 cache4_heapsort651469856
	sslittle-na-sstrix-gcc -Wall -O3 -funroll-loops -finline-functions  -DRANDOM_SIZE=2097152 -DOFFSET=7 -DSORT=cache4_heapsort sorts/cache4_heapsort712404891.c simpleMain.c -o cache4_heapsort651469856
	sim-cache -cache:dl1 dl1:256:32:1:l -cache:dl2 dl2:131072:32:1:l -cache:il1 il1:256:32:1:l -cache:il2 dl2 cache4_heapsort651469856
	sim-cache -cache:dl1 dl1:256:32:1:l -cache:dl2 dl2:65536:32:1:l -cache:il1 il1:256:32:1:l -cache:il2 dl2 cache4_heapsort651469856
	sim-cache -cache:dl1 dl1:1:32:256:l -cache:dl2 dl2:1:32:131072:l -cache:il1 il1:1:32:256:l -cache:il2 dl2 cache4_heapsort651469856
	sim-cache -cache:dl1 dl1:1:32:256:l -cache:dl2 dl2:1:32:65536:l -cache:il1 il1:1:32:256:l -cache:il2 dl2 cache4_heapsort651469856
	sim-bpred -bpred bimod -bpred:bimod 512 cache4_heapsort651469856
	sim-bpred -bpred bimod -bpred:bimod 1024 cache4_heapsort651469856
	sim-bpred -bpred bimod -bpred:bimod 2048 cache4_heapsort651469856
	sim-bpred -bpred 2lev -bpred:2lev 1 512 10 1 cache4_heapsort651469856
	sim-bpred -bpred 2lev -bpred:2lev 1 1024 10 1 cache4_heapsort651469856
	sim-bpred -bpred 2lev -bpred:2lev 1 2048 10 1 cache4_heapsort651469856
	sim-bpred -bpred 2lev -bpred:2lev 1 4096 10 1 cache4_heapsort651469856
	sslittle-na-sstrix-gcc -Wall -O3 -funroll-loops -finline-functions  -DRANDOM_SIZE=4194304 -DOFFSET=7 -DSORT=cache4_heapsort sorts/cache4_heapsort712404891.c simpleMain.c -o cache4_heapsort651469856
	sim-cache -cache:dl1 dl1:256:32:1:l -cache:dl2 dl2:131072:32:1:l -cache:il1 il1:256:32:1:l -cache:il2 dl2 cache4_heapsort651469856
	sim-cache -cache:dl1 dl1:256:32:1:l -cache:dl2 dl2:65536:32:1:l -cache:il1 il1:256:32:1:l -cache:il2 dl2 cache4_heapsort651469856
	sim-cache -cache:dl1 dl1:1:32:256:l -cache:dl2 dl2:1:32:131072:l -cache:il1 il1:1:32:256:l -cache:il2 dl2 cache4_heapsort651469856
	sim-cache -cache:dl1 dl1:1:32:256:l -cache:dl2 dl2:1:32:65536:l -cache:il1 il1:1:32:256:l -cache:il2 dl2 cache4_heapsort651469856
	sim-bpred -bpred bimod -bpred:bimod 512 cache4_heapsort651469856
	sim-bpred -bpred bimod -bpred:bimod 1024 cache4_heapsort651469856
	sim-bpred -bpred bimod -bpred:bimod 2048 cache4_heapsort651469856
	sim-bpred -bpred 2lev -bpred:2lev 1 512 10 1 cache4_heapsort651469856
	sim-bpred -bpred 2lev -bpred:2lev 1 1024 10 1 cache4_heapsort651469856
	sim-bpred -bpred 2lev -bpred:2lev 1 2048 10 1 cache4_heapsort651469856
	sim-bpred -bpred 2lev -bpred:2lev 1 4096 10 1 cache4_heapsort651469856
