Wed Jul 13 15:44:00 2005
Run as: "./do_simple -c 16_byte_cache_line_random.org5 -o 5 -L 16 cache4_heapsort"
-------------------------------------------------------------------------------------------------
sim-cache                                     4096 |         4096 |         4096 |         4096 |         8192 |         8192 |         8192 |         8192 |        16384 |        16384 |        16384 |        16384 |        32768 |        32768 |        32768 |        32768 |        65536 |        65536 |        65536 |        65536 |       131072 |       131072 |       131072 |       131072 |       262144 |       262144 |       262144 |       262144 |       524288 |       524288 |       524288 |       524288 |      1048576 |      1048576 |      1048576 |      1048576 |      2097152 |      2097152 |      2097152 |      2097152 |      4194304 |      4194304 |      4194304 |      4194304 |
-cache:dl1 dl1:512:16:1:l -cache:dl2 dl2:262144:16:1:l -cache:il1 il1:512:16:1:l -cache:il2 dl2
-cache:dl1 dl1:512:16:1:l -cache:dl2 dl2:131072:16:1:l -cache:il1 il1:512:16:1:l -cache:il2 dl2
-cache:dl1 dl1:1:16:512:l -cache:dl2 dl2:1:16:262144:l -cache:il1 il1:1:16:512:l -cache:il2 dl2
-cache:dl1 dl1:1:16:512:l -cache:dl2 dl2:1:16:131072:l -cache:il1 il1:1:16:512:l -cache:il2 dl2
-------------------------------------------------------------------------------------------------
sim_num_insn                                869955 |       869955 |       869955 |       869955 |      1867118 |      1867118 |      1867118 |      1867118 |      4002176 |      4002176 |      4002176 |      4002176 |      8533905 |      8533905 |      8533905 |      8533905 |     18158613 |     18158613 |     18158613 |     18158613 |     38445194 |     38445194 |     38445194 |     38445194 |     81273874 |     81273874 |     81273874 |     81273874 |    171086871 |    171086871 |    171086871 |    171086871 |    359763882 |    359763882 |    359763882 |    359763882 |    753725387 |    753725387 |    753725387 |    753725387 |   1577841336 |   1577841336 |   1577841336 |   1577841336 |
sim_num_refs                                217886 |       217886 |       217886 |       217886 |       464312 |       464312 |       464312 |       464312 |       991098 |       991098 |       991098 |       991098 |      2108271 |      2108271 |      2108271 |      2108271 |      4477327 |      4477327 |      4477327 |      4477327 |      9468823 |      9468823 |      9468823 |      9468823 |     19993567 |     19993567 |     19993567 |     19993567 |     42054586 |     42054586 |     42054586 |     42054586 |     88358521 |     88358521 |     88358521 |     88358521 |    184996643 |    184996643 |    184996643 |    184996643 |    386976223 |    386976223 |    386976223 |    386976223 |
sim_elapsed_time                                 1 |            1 |           38 |           20 |            1 |            1 |           60 |           30 |            1 |            2 |          102 |           50 |            3 |            2 |          184 |           91 |            5 |            6 |          346 |          165 |           12 |           11 |          644 |          280 |           23 |           24 |         1071 |          383 |           49 |           49 |         1427 |          406 |          106 |          106 |         1515 |          475 |          223 |          224 |         1651 |          639 |          459 |          459 |         1911 |          901 |
sim_inst_rate                          869955.0000 |  869955.0000 |   22893.5526 |   43497.7500 | 1867118.0000 | 1867118.0000 |   31118.6333 |   62237.2667 | 4002176.0000 | 2001088.0000 |   39237.0196 |   80043.5200 | 2844635.0000 | 4266952.5000 |   46379.9185 |   93779.1758 | 3631722.6000 | 3026435.5000 |   52481.5405 |  110052.2000 | 3203766.1667 | 3495017.6364 |   59697.5062 |  137304.2643 | 3533646.6957 | 3386411.4167 |   75885.9701 |  212203.3264 | 3491568.7959 | 3491568.7959 |  119892.6917 |  421396.2340 | 3393998.8868 | 3393998.8868 |  237467.9089 |  757397.6463 | 3379934.4709 | 3364845.4777 |  456526.5821 | 1179538.9468 | 3437562.8235 | 3437562.8235 |  825662.6562 | 1751211.2497 |
il1.accesses                                869955 |       869955 |       869955 |       869955 |      1867118 |      1867118 |      1867118 |      1867118 |      4002176 |      4002176 |      4002176 |      4002176 |      8533905 |      8533905 |      8533905 |      8533905 |     18158613 |     18158613 |     18158613 |     18158613 |     38445194 |     38445194 |     38445194 |     38445194 |     81273874 |     81273874 |     81273874 |     81273874 |    171086871 |    171086871 |    171086871 |    171086871 |    359763882 |    359763882 |    359763882 |    359763882 |    753725387 |    753725387 |    753725387 |    753725387 |   1577841336 |   1577841336 |   1577841336 |   1577841336 |
il1.hits                                    869031 |       869031 |       869185 |       869185 |      1866140 |      1866140 |      1866359 |      1866359 |      4001196 |      4001196 |      4001416 |      4001416 |      8532926 |      8532926 |      8533143 |      8533143 |     18157634 |     18157634 |     18157851 |     18157851 |     38444215 |     38444215 |     38444433 |     38444433 |     81272895 |     81272895 |     81273113 |     81273113 |    171085892 |    171085892 |    171086110 |    171086110 |    359762830 |    359762830 |    359762997 |    359762997 |    753724335 |    753724335 |    753724502 |    753724502 |   1577840284 |   1577840284 |   1577840451 |   1577840451 |
il1.misses                                     924 |          924 |          770 |          770 |          978 |          978 |          759 |          759 |          980 |          980 |          760 |          760 |          979 |          979 |          762 |          762 |          979 |          979 |          762 |          762 |          979 |          979 |          761 |          761 |          979 |          979 |          761 |          761 |          979 |          979 |          761 |          761 |         1052 |         1052 |          885 |          885 |         1052 |         1052 |          885 |          885 |         1052 |         1052 |          885 |          885 |
il1.replacements                               507 |          507 |          258 |          258 |          549 |          549 |          247 |          247 |          551 |          551 |          248 |          248 |          550 |          550 |          250 |          250 |          550 |          550 |          250 |          250 |          550 |          550 |          249 |          249 |          550 |          550 |          249 |          249 |          550 |          550 |          249 |          249 |          627 |          627 |          373 |          373 |          627 |          627 |          373 |          373 |          627 |          627 |          373 |          373 |
il1.writebacks                                   0 |            0 |            0 |            0 |            0 |            0 |            0 |            0 |            0 |            0 |            0 |            0 |            0 |            0 |            0 |            0 |            0 |            0 |            0 |            0 |            0 |            0 |            0 |            0 |            0 |            0 |            0 |            0 |            0 |            0 |            0 |            0 |            0 |            0 |            0 |            0 |            0 |            0 |            0 |            0 |            0 |            0 |            0 |            0 |
il1.invalidations                                0 |            0 |            0 |            0 |            0 |            0 |            0 |            0 |            0 |            0 |            0 |            0 |            0 |            0 |            0 |            0 |            0 |            0 |            0 |            0 |            0 |            0 |            0 |            0 |            0 |            0 |            0 |            0 |            0 |            0 |            0 |            0 |            0 |            0 |            0 |            0 |            0 |            0 |            0 |            0 |            0 |            0 |            0 |            0 |
il1.miss_rate                               0.0011 |       0.0011 |       0.0009 |       0.0009 |       0.0005 |       0.0005 |       0.0004 |       0.0004 |       0.0002 |       0.0002 |       0.0002 |       0.0002 |       0.0001 |       0.0001 |       0.0001 |       0.0001 |       0.0001 |       0.0001 |       0.0000 |       0.0000 |       0.0000 |       0.0000 |       0.0000 |       0.0000 |       0.0000 |       0.0000 |       0.0000 |       0.0000 |       0.0000 |       0.0000 |       0.0000 |       0.0000 |       0.0000 |       0.0000 |       0.0000 |       0.0000 |       0.0000 |       0.0000 |       0.0000 |       0.0000 |       0.0000 |       0.0000 |       0.0000 |       0.0000 |
il1.repl_rate                               0.0006 |       0.0006 |       0.0003 |       0.0003 |       0.0003 |       0.0003 |       0.0001 |       0.0001 |       0.0001 |       0.0001 |       0.0001 |       0.0001 |       0.0001 |       0.0001 |       0.0000 |       0.0000 |       0.0000 |       0.0000 |       0.0000 |       0.0000 |       0.0000 |       0.0000 |       0.0000 |       0.0000 |       0.0000 |       0.0000 |       0.0000 |       0.0000 |       0.0000 |       0.0000 |       0.0000 |       0.0000 |       0.0000 |       0.0000 |       0.0000 |       0.0000 |       0.0000 |       0.0000 |       0.0000 |       0.0000 |       0.0000 |       0.0000 |       0.0000 |       0.0000 |
il1.wb_rate                                 0.0000 |       0.0000 |       0.0000 |       0.0000 |       0.0000 |       0.0000 |       0.0000 |       0.0000 |       0.0000 |       0.0000 |       0.0000 |       0.0000 |       0.0000 |       0.0000 |       0.0000 |       0.0000 |       0.0000 |       0.0000 |       0.0000 |       0.0000 |       0.0000 |       0.0000 |       0.0000 |       0.0000 |       0.0000 |       0.0000 |       0.0000 |       0.0000 |       0.0000 |       0.0000 |       0.0000 |       0.0000 |       0.0000 |       0.0000 |       0.0000 |       0.0000 |       0.0000 |       0.0000 |       0.0000 |       0.0000 |       0.0000 |       0.0000 |       0.0000 |       0.0000 |
il1.inv_rate                                0.0000 |       0.0000 |       0.0000 |       0.0000 |       0.0000 |       0.0000 |       0.0000 |       0.0000 |       0.0000 |       0.0000 |       0.0000 |       0.0000 |       0.0000 |       0.0000 |       0.0000 |       0.0000 |       0.0000 |       0.0000 |       0.0000 |       0.0000 |       0.0000 |       0.0000 |       0.0000 |       0.0000 |       0.0000 |       0.0000 |       0.0000 |       0.0000 |       0.0000 |       0.0000 |       0.0000 |       0.0000 |       0.0000 |       0.0000 |       0.0000 |       0.0000 |       0.0000 |       0.0000 |       0.0000 |       0.0000 |       0.0000 |       0.0000 |       0.0000 |       0.0000 |
dl1.accesses                                234352 |       234352 |       234352 |       234352 |       497162 |       497162 |       497162 |       497162 |      1056716 |      1056716 |      1056716 |      1056716 |      2239425 |      2239425 |      2239425 |      2239425 |      4739553 |      4739553 |      4739553 |      4739553 |      9993193 |      9993193 |      9993193 |      9993193 |     21042225 |     21042225 |     21042225 |     21042225 |     44151820 |     44151820 |     44151820 |     44151820 |     92552907 |     92552907 |     92552907 |     92552907 |    193385333 |    193385333 |    193385333 |    193385333 |    403753521 |    403753521 |    403753521 |    403753521 |
dl1.hits                                    226283 |       226283 |       226840 |       226840 |       477542 |       477542 |       478696 |       478696 |      1008198 |      1008198 |      1011478 |      1011478 |      2123423 |      2123423 |      2130029 |      2130029 |      4467031 |      4467031 |      4483350 |      4483350 |      9371212 |      9371212 |      9403854 |      9403854 |     19636906 |     19636906 |     19711344 |     19711344 |     41041364 |     41041364 |     41190325 |     41190325 |     85697197 |     85697197 |     86027958 |     86027958 |    178500066 |    178500066 |    179160122 |    179160122 |    371533956 |    371533956 |    372958359 |    372958359 |
dl1.misses                                    8069 |         8069 |         7512 |         7512 |        19620 |        19620 |        18466 |        18466 |        48518 |        48518 |        45238 |        45238 |       116002 |       116002 |       109396 |       109396 |       272522 |       272522 |       256203 |       256203 |       621981 |       621981 |       589339 |       589339 |      1405319 |      1405319 |      1330881 |      1330881 |      3110456 |      3110456 |      2961495 |      2961495 |      6855710 |      6855710 |      6524949 |      6524949 |     14885267 |     14885267 |     14225211 |     14225211 |     32219565 |     32219565 |     30795162 |     30795162 |
dl1.replacements                              7557 |         7557 |         7000 |         7000 |        19108 |        19108 |        17954 |        17954 |        48006 |        48006 |        44726 |        44726 |       115490 |       115490 |       108884 |       108884 |       272010 |       272010 |       255691 |       255691 |       621469 |       621469 |       588827 |       588827 |      1404807 |      1404807 |      1330369 |      1330369 |      3109944 |      3109944 |      2960983 |      2960983 |      6855198 |      6855198 |      6524437 |      6524437 |     14884755 |     14884755 |     14224699 |     14224699 |     32219053 |     32219053 |     30794650 |     30794650 |
dl1.writebacks                                6393 |         6393 |         5862 |         5862 |        16613 |        16613 |        15509 |        15509 |        42687 |        42687 |        39593 |        39593 |       104381 |       104381 |        98230 |        98230 |       249166 |       249166 |       233896 |       233896 |       575122 |       575122 |       544816 |       544816 |      1310896 |      1310896 |      1241779 |      1241779 |      2920567 |      2920567 |      2782973 |      2782973 |      6471112 |      6471112 |      6166568 |      6166568 |     14115159 |     14115159 |     13509865 |     13509865 |     30672071 |     30672071 |     29364041 |     29364041 |
dl1.invalidations                                0 |            0 |            0 |            0 |            0 |            0 |            0 |            0 |            0 |            0 |            0 |            0 |            0 |            0 |            0 |            0 |            0 |            0 |            0 |            0 |            0 |            0 |            0 |            0 |            0 |            0 |            0 |            0 |            0 |            0 |            0 |            0 |            0 |            0 |            0 |            0 |            0 |            0 |            0 |            0 |            0 |            0 |            0 |            0 |
dl1.miss_rate                               0.0344 |       0.0344 |       0.0321 |       0.0321 |       0.0395 |       0.0395 |       0.0371 |       0.0371 |       0.0459 |       0.0459 |       0.0428 |       0.0428 |       0.0518 |       0.0518 |       0.0489 |       0.0489 |       0.0575 |       0.0575 |       0.0541 |       0.0541 |       0.0622 |       0.0622 |       0.0590 |       0.0590 |       0.0668 |       0.0668 |       0.0632 |       0.0632 |       0.0704 |       0.0704 |       0.0671 |       0.0671 |       0.0741 |       0.0741 |       0.0705 |       0.0705 |       0.0770 |       0.0770 |       0.0736 |       0.0736 |       0.0798 |       0.0798 |       0.0763 |       0.0763 |
dl1.repl_rate                               0.0322 |       0.0322 |       0.0299 |       0.0299 |       0.0384 |       0.0384 |       0.0361 |       0.0361 |       0.0454 |       0.0454 |       0.0423 |       0.0423 |       0.0516 |       0.0516 |       0.0486 |       0.0486 |       0.0574 |       0.0574 |       0.0539 |       0.0539 |       0.0622 |       0.0622 |       0.0589 |       0.0589 |       0.0668 |       0.0668 |       0.0632 |       0.0632 |       0.0704 |       0.0704 |       0.0671 |       0.0671 |       0.0741 |       0.0741 |       0.0705 |       0.0705 |       0.0770 |       0.0770 |       0.0736 |       0.0736 |       0.0798 |       0.0798 |       0.0763 |       0.0763 |
dl1.wb_rate                                 0.0273 |       0.0273 |       0.0250 |       0.0250 |       0.0334 |       0.0334 |       0.0312 |       0.0312 |       0.0404 |       0.0404 |       0.0375 |       0.0375 |       0.0466 |       0.0466 |       0.0439 |       0.0439 |       0.0526 |       0.0526 |       0.0493 |       0.0493 |       0.0576 |       0.0576 |       0.0545 |       0.0545 |       0.0623 |       0.0623 |       0.0590 |       0.0590 |       0.0661 |       0.0661 |       0.0630 |       0.0630 |       0.0699 |       0.0699 |       0.0666 |       0.0666 |       0.0730 |       0.0730 |       0.0699 |       0.0699 |       0.0760 |       0.0760 |       0.0727 |       0.0727 |
dl1.inv_rate                                0.0000 |       0.0000 |       0.0000 |       0.0000 |       0.0000 |       0.0000 |       0.0000 |       0.0000 |       0.0000 |       0.0000 |       0.0000 |       0.0000 |       0.0000 |       0.0000 |       0.0000 |       0.0000 |       0.0000 |       0.0000 |       0.0000 |       0.0000 |       0.0000 |       0.0000 |       0.0000 |       0.0000 |       0.0000 |       0.0000 |       0.0000 |       0.0000 |       0.0000 |       0.0000 |       0.0000 |       0.0000 |       0.0000 |       0.0000 |       0.0000 |       0.0000 |       0.0000 |       0.0000 |       0.0000 |       0.0000 |       0.0000 |       0.0000 |       0.0000 |       0.0000 |
dl2.accesses                                 15386 |        15386 |        14144 |        14144 |        37211 |        37211 |        34734 |        34734 |        92185 |        92185 |        85591 |        85591 |       221362 |       221362 |       208388 |       208388 |       522667 |       522667 |       490861 |       490861 |      1198082 |      1198082 |      1134916 |      1134916 |      2717194 |      2717194 |      2573421 |      2573421 |      6032002 |      6032002 |      5745229 |      5745229 |     13327874 |     13327874 |     12692402 |     12692402 |     29001478 |     29001478 |     27735961 |     27735961 |     62892688 |     62892688 |     60160088 |     60160088 |
dl2.hits                                     11679 |        11679 |        10507 |        10507 |        31455 |        31455 |        29067 |        29067 |        82319 |        82319 |        75827 |        75827 |       203301 |       203301 |       190430 |       190430 |       488222 |       488222 |       456519 |       456519 |      1130870 |      1130870 |      1067807 |      1067807 |      2584444 |      2579436 |      2440776 |      2396073 |      5763174 |      5320311 |      5399960 |      5091466 |     11900040 |     11485382 |     11385159 |     10977738 |     25317272 |     24280835 |     24308778 |     23233876 |     53452674 |     50879573 |     51157996 |     48773825 |
dl2.misses                                    3707 |         3707 |         3637 |         3637 |         5756 |         5756 |         5667 |         5667 |         9866 |         9866 |         9764 |         9764 |        18061 |        18061 |        17958 |        17958 |        34445 |        34445 |        34342 |        34342 |        67212 |        67212 |        67109 |        67109 |       132750 |       137758 |       132645 |       177348 |       268828 |       711691 |       345269 |       653763 |      1427834 |      1842492 |      1307243 |      1714664 |      3684206 |      4720643 |      3427183 |      4502085 |      9440014 |     12013115 |      9002092 |     11386263 |
dl2.replacements                               466 |          466 |            0 |            0 |          456 |          456 |            0 |            0 |          514 |          514 |            0 |            0 |          515 |          515 |            0 |            0 |          515 |          515 |            0 |            0 |          515 |          515 |            0 |            0 |          517 |         8871 |            0 |        46276 |         8869 |       580619 |        83125 |       522691 |      1165690 |      1711420 |      1045099 |      1583592 |      3422062 |      4589571 |      3165039 |      4371013 |      9177870 |     11882043 |      8739948 |     11255191 |
dl2.writebacks                                 264 |          264 |            0 |            0 |          247 |          247 |            0 |            0 |          291 |          291 |            0 |            0 |          289 |          289 |            0 |            0 |          289 |          289 |            0 |            0 |          289 |          289 |            0 |            0 |          289 |         8643 |            0 |        44884 |         8643 |       453014 |        81733 |       389337 |       908756 |      1428692 |       778560 |      1296653 |      2857933 |      3972845 |      2591965 |      3748914 |      7944215 |     10568681 |      7496141 |      9936566 |
dl2.invalidations                                0 |            0 |            0 |            0 |            0 |            0 |            0 |            0 |            0 |            0 |            0 |            0 |            0 |            0 |            0 |            0 |            0 |            0 |            0 |            0 |            0 |            0 |            0 |            0 |            0 |            0 |            0 |            0 |            0 |            0 |            0 |            0 |            0 |            0 |            0 |            0 |            0 |            0 |            0 |            0 |            0 |            0 |            0 |            0 |
dl2.miss_rate                               0.2409 |       0.2409 |       0.2571 |       0.2571 |       0.1547 |       0.1547 |       0.1632 |       0.1632 |       0.1070 |       0.1070 |       0.1141 |       0.1141 |       0.0816 |       0.0816 |       0.0862 |       0.0862 |       0.0659 |       0.0659 |       0.0700 |       0.0700 |       0.0561 |       0.0561 |       0.0591 |       0.0591 |       0.0489 |       0.0507 |       0.0515 |       0.0689 |       0.0446 |       0.1180 |       0.0601 |       0.1138 |       0.1071 |       0.1382 |       0.1030 |       0.1351 |       0.1270 |       0.1628 |       0.1236 |       0.1623 |       0.1501 |       0.1910 |       0.1496 |       0.1893 |
dl2.repl_rate                               0.0303 |       0.0303 |       0.0000 |       0.0000 |       0.0123 |       0.0123 |       0.0000 |       0.0000 |       0.0056 |       0.0056 |       0.0000 |       0.0000 |       0.0023 |       0.0023 |       0.0000 |       0.0000 |       0.0010 |       0.0010 |       0.0000 |       0.0000 |       0.0004 |       0.0004 |       0.0000 |       0.0000 |       0.0002 |       0.0033 |       0.0000 |       0.0180 |       0.0015 |       0.0963 |       0.0145 |       0.0910 |       0.0875 |       0.1284 |       0.0823 |       0.1248 |       0.1180 |       0.1583 |       0.1141 |       0.1576 |       0.1459 |       0.1889 |       0.1453 |       0.1871 |
dl2.wb_rate                                 0.0172 |       0.0172 |       0.0000 |       0.0000 |       0.0066 |       0.0066 |       0.0000 |       0.0000 |       0.0032 |       0.0032 |       0.0000 |       0.0000 |       0.0013 |       0.0013 |       0.0000 |       0.0000 |       0.0006 |       0.0006 |       0.0000 |       0.0000 |       0.0002 |       0.0002 |       0.0000 |       0.0000 |       0.0001 |       0.0032 |       0.0000 |       0.0174 |       0.0014 |       0.0751 |       0.0142 |       0.0678 |       0.0682 |       0.1072 |       0.0613 |       0.1022 |       0.0985 |       0.1370 |       0.0935 |       0.1352 |       0.1263 |       0.1680 |       0.1246 |       0.1652 |
dl2.inv_rate                                0.0000 |       0.0000 |       0.0000 |       0.0000 |       0.0000 |       0.0000 |       0.0000 |       0.0000 |       0.0000 |       0.0000 |       0.0000 |       0.0000 |       0.0000 |       0.0000 |       0.0000 |       0.0000 |       0.0000 |       0.0000 |       0.0000 |       0.0000 |       0.0000 |       0.0000 |       0.0000 |       0.0000 |       0.0000 |       0.0000 |       0.0000 |       0.0000 |       0.0000 |       0.0000 |       0.0000 |       0.0000 |       0.0000 |       0.0000 |       0.0000 |       0.0000 |       0.0000 |       0.0000 |       0.0000 |       0.0000 |       0.0000 |       0.0000 |       0.0000 |       0.0000 |
itlb.accesses                               869955 |       869955 |       869955 |       869955 |      1867118 |      1867118 |      1867118 |      1867118 |      4002176 |      4002176 |      4002176 |      4002176 |      8533905 |      8533905 |      8533905 |      8533905 |     18158613 |     18158613 |     18158613 |     18158613 |     38445194 |     38445194 |     38445194 |     38445194 |     81273874 |     81273874 |     81273874 |     81273874 |    171086871 |    171086871 |    171086871 |    171086871 |    359763882 |    359763882 |    359763882 |    359763882 |    753725387 |    753725387 |    753725387 |    753725387 |   1577841336 |   1577841336 |   1577841336 |   1577841336 |
itlb.hits                                   869946 |       869946 |       869946 |       869946 |      1867109 |      1867109 |      1867109 |      1867109 |      4002167 |      4002167 |      4002167 |      4002167 |      8533896 |      8533896 |      8533896 |      8533896 |     18158604 |     18158604 |     18158604 |     18158604 |     38445185 |     38445185 |     38445185 |     38445185 |     81273865 |     81273865 |     81273865 |     81273865 |    171086862 |    171086862 |    171086862 |    171086862 |    359763873 |    359763873 |    359763873 |    359763873 |    753725378 |    753725378 |    753725378 |    753725378 |   1577841327 |   1577841327 |   1577841327 |   1577841327 |
itlb.misses                                      9 |            9 |            9 |            9 |            9 |            9 |            9 |            9 |            9 |            9 |            9 |            9 |            9 |            9 |            9 |            9 |            9 |            9 |            9 |            9 |            9 |            9 |            9 |            9 |            9 |            9 |            9 |            9 |            9 |            9 |            9 |            9 |            9 |            9 |            9 |            9 |            9 |            9 |            9 |            9 |            9 |            9 |            9 |            9 |
itlb.replacements                                0 |            0 |            0 |            0 |            0 |            0 |            0 |            0 |            0 |            0 |            0 |            0 |            0 |            0 |            0 |            0 |            0 |            0 |            0 |            0 |            0 |            0 |            0 |            0 |            0 |            0 |            0 |            0 |            0 |            0 |            0 |            0 |            0 |            0 |            0 |            0 |            0 |            0 |            0 |            0 |            0 |            0 |            0 |            0 |
itlb.writebacks                                  0 |            0 |            0 |            0 |            0 |            0 |            0 |            0 |            0 |            0 |            0 |            0 |            0 |            0 |            0 |            0 |            0 |            0 |            0 |            0 |            0 |            0 |            0 |            0 |            0 |            0 |            0 |            0 |            0 |            0 |            0 |            0 |            0 |            0 |            0 |            0 |            0 |            0 |            0 |            0 |            0 |            0 |            0 |            0 |
itlb.invalidations                               0 |            0 |            0 |            0 |            0 |            0 |            0 |            0 |            0 |            0 |            0 |            0 |            0 |            0 |            0 |            0 |            0 |            0 |            0 |            0 |            0 |            0 |            0 |            0 |            0 |            0 |            0 |            0 |            0 |            0 |            0 |            0 |            0 |            0 |            0 |            0 |            0 |            0 |            0 |            0 |            0 |            0 |            0 |            0 |
itlb.miss_rate                              0.0000 |       0.0000 |       0.0000 |       0.0000 |       0.0000 |       0.0000 |       0.0000 |       0.0000 |       0.0000 |       0.0000 |       0.0000 |       0.0000 |       0.0000 |       0.0000 |       0.0000 |       0.0000 |       0.0000 |       0.0000 |       0.0000 |       0.0000 |       0.0000 |       0.0000 |       0.0000 |       0.0000 |       0.0000 |       0.0000 |       0.0000 |       0.0000 |       0.0000 |       0.0000 |       0.0000 |       0.0000 |       0.0000 |       0.0000 |       0.0000 |       0.0000 |       0.0000 |       0.0000 |       0.0000 |       0.0000 |       0.0000 |       0.0000 |       0.0000 |       0.0000 |
itlb.repl_rate                              0.0000 |       0.0000 |       0.0000 |       0.0000 |       0.0000 |       0.0000 |       0.0000 |       0.0000 |       0.0000 |       0.0000 |       0.0000 |       0.0000 |       0.0000 |       0.0000 |       0.0000 |       0.0000 |       0.0000 |       0.0000 |       0.0000 |       0.0000 |       0.0000 |       0.0000 |       0.0000 |       0.0000 |       0.0000 |       0.0000 |       0.0000 |       0.0000 |       0.0000 |       0.0000 |       0.0000 |       0.0000 |       0.0000 |       0.0000 |       0.0000 |       0.0000 |       0.0000 |       0.0000 |       0.0000 |       0.0000 |       0.0000 |       0.0000 |       0.0000 |       0.0000 |
itlb.wb_rate                                0.0000 |       0.0000 |       0.0000 |       0.0000 |       0.0000 |       0.0000 |       0.0000 |       0.0000 |       0.0000 |       0.0000 |       0.0000 |       0.0000 |       0.0000 |       0.0000 |       0.0000 |       0.0000 |       0.0000 |       0.0000 |       0.0000 |       0.0000 |       0.0000 |       0.0000 |       0.0000 |       0.0000 |       0.0000 |       0.0000 |       0.0000 |       0.0000 |       0.0000 |       0.0000 |       0.0000 |       0.0000 |       0.0000 |       0.0000 |       0.0000 |       0.0000 |       0.0000 |       0.0000 |       0.0000 |       0.0000 |       0.0000 |       0.0000 |       0.0000 |       0.0000 |
itlb.inv_rate                               0.0000 |       0.0000 |       0.0000 |       0.0000 |       0.0000 |       0.0000 |       0.0000 |       0.0000 |       0.0000 |       0.0000 |       0.0000 |       0.0000 |       0.0000 |       0.0000 |       0.0000 |       0.0000 |       0.0000 |       0.0000 |       0.0000 |       0.0000 |       0.0000 |       0.0000 |       0.0000 |       0.0000 |       0.0000 |       0.0000 |       0.0000 |       0.0000 |       0.0000 |       0.0000 |       0.0000 |       0.0000 |       0.0000 |       0.0000 |       0.0000 |       0.0000 |       0.0000 |       0.0000 |       0.0000 |       0.0000 |       0.0000 |       0.0000 |       0.0000 |       0.0000 |
dtlb.accesses                               234352 |       234352 |       234352 |       234352 |       497162 |       497162 |       497162 |       497162 |      1056716 |      1056716 |      1056716 |      1056716 |      2239425 |      2239425 |      2239425 |      2239425 |      4739553 |      4739553 |      4739553 |      4739553 |      9993193 |      9993193 |      9993193 |      9993193 |     21042225 |     21042225 |     21042225 |     21042225 |     44151820 |     44151820 |     44151820 |     44151820 |     92552907 |     92552907 |     92552907 |     92552907 |    193385333 |    193385333 |    193385333 |    193385333 |    403753521 |    403753521 |    403753521 |    403753521 |
dtlb.hits                                   234336 |       234336 |       234336 |       234336 |       497138 |       497138 |       497138 |       497138 |      1056676 |      1056676 |      1056676 |      1056676 |      2239353 |      2239353 |      2239353 |      2239353 |      4739406 |      4739406 |      4739406 |      4739406 |      9992343 |      9992343 |      9992343 |      9992343 |     20984734 |     20984734 |     20984734 |     20984734 |     43801773 |     43801773 |     43801773 |     43801773 |     91258891 |     91258891 |     91258891 |     91258891 |    189532548 |    189532548 |    189532548 |    189532548 |    393455068 |    393455068 |    393455068 |    393455068 |
dtlb.misses                                     16 |           16 |           16 |           16 |           24 |           24 |           24 |           24 |           40 |           40 |           40 |           40 |           72 |           72 |           72 |           72 |          147 |          147 |          147 |          147 |          850 |          850 |          850 |          850 |        57491 |        57491 |        57491 |        57491 |       350047 |       350047 |       350047 |       350047 |      1294016 |      1294016 |      1294016 |      1294016 |      3852785 |      3852785 |      3852785 |      3852785 |     10298453 |     10298453 |     10298453 |     10298453 |
dtlb.replacements                                0 |            0 |            0 |            0 |            0 |            0 |            0 |            0 |            0 |            0 |            0 |            0 |            0 |            0 |            0 |            0 |           19 |           19 |           19 |           19 |          722 |          722 |          722 |          722 |        57363 |        57363 |        57363 |        57363 |       349919 |       349919 |       349919 |       349919 |      1293888 |      1293888 |      1293888 |      1293888 |      3852657 |      3852657 |      3852657 |      3852657 |     10298325 |     10298325 |     10298325 |     10298325 |
dtlb.writebacks                                  0 |            0 |            0 |            0 |            0 |            0 |            0 |            0 |            0 |            0 |            0 |            0 |            0 |            0 |            0 |            0 |           16 |           16 |           16 |           16 |          593 |          593 |          593 |          593 |        54297 |        54297 |        54297 |        54297 |       331365 |       331365 |       331365 |       331365 |      1234284 |      1234284 |      1234284 |      1234284 |      3703531 |      3703531 |      3703531 |      3703531 |      9961820 |      9961820 |      9961820 |      9961820 |
dtlb.invalidations                               0 |            0 |            0 |            0 |            0 |            0 |            0 |            0 |            0 |            0 |            0 |            0 |            0 |            0 |            0 |            0 |            0 |            0 |            0 |            0 |            0 |            0 |            0 |            0 |            0 |            0 |            0 |            0 |            0 |            0 |            0 |            0 |            0 |            0 |            0 |            0 |            0 |            0 |            0 |            0 |            0 |            0 |            0 |            0 |
dtlb.miss_rate                              0.0001 |       0.0001 |       0.0001 |       0.0001 |       0.0000 |       0.0000 |       0.0000 |       0.0000 |       0.0000 |       0.0000 |       0.0000 |       0.0000 |       0.0000 |       0.0000 |       0.0000 |       0.0000 |       0.0000 |       0.0000 |       0.0000 |       0.0000 |       0.0001 |       0.0001 |       0.0001 |       0.0001 |       0.0027 |       0.0027 |       0.0027 |       0.0027 |       0.0079 |       0.0079 |       0.0079 |       0.0079 |       0.0140 |       0.0140 |       0.0140 |       0.0140 |       0.0199 |       0.0199 |       0.0199 |       0.0199 |       0.0255 |       0.0255 |       0.0255 |       0.0255 |
dtlb.repl_rate                              0.0000 |       0.0000 |       0.0000 |       0.0000 |       0.0000 |       0.0000 |       0.0000 |       0.0000 |       0.0000 |       0.0000 |       0.0000 |       0.0000 |       0.0000 |       0.0000 |       0.0000 |       0.0000 |       0.0000 |       0.0000 |       0.0000 |       0.0000 |       0.0001 |       0.0001 |       0.0001 |       0.0001 |       0.0027 |       0.0027 |       0.0027 |       0.0027 |       0.0079 |       0.0079 |       0.0079 |       0.0079 |       0.0140 |       0.0140 |       0.0140 |       0.0140 |       0.0199 |       0.0199 |       0.0199 |       0.0199 |       0.0255 |       0.0255 |       0.0255 |       0.0255 |
dtlb.wb_rate                                0.0000 |       0.0000 |       0.0000 |       0.0000 |       0.0000 |       0.0000 |       0.0000 |       0.0000 |       0.0000 |       0.0000 |       0.0000 |       0.0000 |       0.0000 |       0.0000 |       0.0000 |       0.0000 |       0.0000 |       0.0000 |       0.0000 |       0.0000 |       0.0001 |       0.0001 |       0.0001 |       0.0001 |       0.0026 |       0.0026 |       0.0026 |       0.0026 |       0.0075 |       0.0075 |       0.0075 |       0.0075 |       0.0133 |       0.0133 |       0.0133 |       0.0133 |       0.0192 |       0.0192 |       0.0192 |       0.0192 |       0.0247 |       0.0247 |       0.0247 |       0.0247 |
dtlb.inv_rate                               0.0000 |       0.0000 |       0.0000 |       0.0000 |       0.0000 |       0.0000 |       0.0000 |       0.0000 |       0.0000 |       0.0000 |       0.0000 |       0.0000 |       0.0000 |       0.0000 |       0.0000 |       0.0000 |       0.0000 |       0.0000 |       0.0000 |       0.0000 |       0.0000 |       0.0000 |       0.0000 |       0.0000 |       0.0000 |       0.0000 |       0.0000 |       0.0000 |       0.0000 |       0.0000 |       0.0000 |       0.0000 |       0.0000 |       0.0000 |       0.0000 |       0.0000 |       0.0000 |       0.0000 |       0.0000 |       0.0000 |       0.0000 |       0.0000 |       0.0000 |       0.0000 |
ld_text_base                            0x00400000 |   0x00400000 |   0x00400000 |   0x00400000 |   0x00400000 |   0x00400000 |   0x00400000 |   0x00400000 |   0x00400000 |   0x00400000 |   0x00400000 |   0x00400000 |   0x00400000 |   0x00400000 |   0x00400000 |   0x00400000 |   0x00400000 |   0x00400000 |   0x00400000 |   0x00400000 |   0x00400000 |   0x00400000 |   0x00400000 |   0x00400000 |   0x00400000 |   0x00400000 |   0x00400000 |   0x00400000 |   0x00400000 |   0x00400000 |   0x00400000 |   0x00400000 |   0x00400000 |   0x00400000 |   0x00400000 |   0x00400000 |   0x00400000 |   0x00400000 |   0x00400000 |   0x00400000 |   0x00400000 |   0x00400000 |   0x00400000 |   0x00400000 |
ld_text_size                                 74304 |        74304 |        74304 |        74304 |        74336 |        74336 |        74336 |        74336 |        74352 |        74352 |        74352 |        74352 |        74368 |        74368 |        74368 |        74368 |        74368 |        74368 |        74368 |        74368 |        74368 |        74368 |        74368 |        74368 |        74368 |        74368 |        74368 |        74368 |        74368 |        74368 |        74368 |        74368 |        74368 |        74368 |        74368 |        74368 |        74368 |        74368 |        74368 |        74368 |        74368 |        74368 |        74368 |        74368 |
ld_data_base                            0x10000000 |   0x10000000 |   0x10000000 |   0x10000000 |   0x10000000 |   0x10000000 |   0x10000000 |   0x10000000 |   0x10000000 |   0x10000000 |   0x10000000 |   0x10000000 |   0x10000000 |   0x10000000 |   0x10000000 |   0x10000000 |   0x10000000 |   0x10000000 |   0x10000000 |   0x10000000 |   0x10000000 |   0x10000000 |   0x10000000 |   0x10000000 |   0x10000000 |   0x10000000 |   0x10000000 |   0x10000000 |   0x10000000 |   0x10000000 |   0x10000000 |   0x10000000 |   0x10000000 |   0x10000000 |   0x10000000 |   0x10000000 |   0x10000000 |   0x10000000 |   0x10000000 |   0x10000000 |   0x10000000 |   0x10000000 |   0x10000000 |   0x10000000 |
ld_data_size                                  8192 |         8192 |         8192 |         8192 |         8192 |         8192 |         8192 |         8192 |         8192 |         8192 |         8192 |         8192 |         8192 |         8192 |         8192 |         8192 |         8192 |         8192 |         8192 |         8192 |         8192 |         8192 |         8192 |         8192 |         8192 |         8192 |         8192 |         8192 |         8192 |         8192 |         8192 |         8192 |         8192 |         8192 |         8192 |         8192 |         8192 |         8192 |         8192 |         8192 |         8192 |         8192 |         8192 |         8192 |
ld_stack_base                           0x7fffc000 |   0x7fffc000 |   0x7fffc000 |   0x7fffc000 |   0x7fffc000 |   0x7fffc000 |   0x7fffc000 |   0x7fffc000 |   0x7fffc000 |   0x7fffc000 |   0x7fffc000 |   0x7fffc000 |   0x7fffc000 |   0x7fffc000 |   0x7fffc000 |   0x7fffc000 |   0x7fffc000 |   0x7fffc000 |   0x7fffc000 |   0x7fffc000 |   0x7fffc000 |   0x7fffc000 |   0x7fffc000 |   0x7fffc000 |   0x7fffc000 |   0x7fffc000 |   0x7fffc000 |   0x7fffc000 |   0x7fffc000 |   0x7fffc000 |   0x7fffc000 |   0x7fffc000 |   0x7fffc000 |   0x7fffc000 |   0x7fffc000 |   0x7fffc000 |   0x7fffc000 |   0x7fffc000 |   0x7fffc000 |   0x7fffc000 |   0x7fffc000 |   0x7fffc000 |   0x7fffc000 |   0x7fffc000 |
ld_stack_size                                16384 |        16384 |        16384 |        16384 |        16384 |        16384 |        16384 |        16384 |        16384 |        16384 |        16384 |        16384 |        16384 |        16384 |        16384 |        16384 |        16384 |        16384 |        16384 |        16384 |        16384 |        16384 |        16384 |        16384 |        16384 |        16384 |        16384 |        16384 |        16384 |        16384 |        16384 |        16384 |        16384 |        16384 |        16384 |        16384 |        16384 |        16384 |        16384 |        16384 |        16384 |        16384 |        16384 |        16384 |
ld_prog_entry                           0x00400140 |   0x00400140 |   0x00400140 |   0x00400140 |   0x00400140 |   0x00400140 |   0x00400140 |   0x00400140 |   0x00400140 |   0x00400140 |   0x00400140 |   0x00400140 |   0x00400140 |   0x00400140 |   0x00400140 |   0x00400140 |   0x00400140 |   0x00400140 |   0x00400140 |   0x00400140 |   0x00400140 |   0x00400140 |   0x00400140 |   0x00400140 |   0x00400140 |   0x00400140 |   0x00400140 |   0x00400140 |   0x00400140 |   0x00400140 |   0x00400140 |   0x00400140 |   0x00400140 |   0x00400140 |   0x00400140 |   0x00400140 |   0x00400140 |   0x00400140 |   0x00400140 |   0x00400140 |   0x00400140 |   0x00400140 |   0x00400140 |   0x00400140 |
ld_environ_base                         0x7fff8000 |   0x7fff8000 |   0x7fff8000 |   0x7fff8000 |   0x7fff8000 |   0x7fff8000 |   0x7fff8000 |   0x7fff8000 |   0x7fff8000 |   0x7fff8000 |   0x7fff8000 |   0x7fff8000 |   0x7fff8000 |   0x7fff8000 |   0x7fff8000 |   0x7fff8000 |   0x7fff8000 |   0x7fff8000 |   0x7fff8000 |   0x7fff8000 |   0x7fff8000 |   0x7fff8000 |   0x7fff8000 |   0x7fff8000 |   0x7fff8000 |   0x7fff8000 |   0x7fff8000 |   0x7fff8000 |   0x7fff8000 |   0x7fff8000 |   0x7fff8000 |   0x7fff8000 |   0x7fff8000 |   0x7fff8000 |   0x7fff8000 |   0x7fff8000 |   0x7fff8000 |   0x7fff8000 |   0x7fff8000 |   0x7fff8000 |   0x7fff8000 |   0x7fff8000 |   0x7fff8000 |   0x7fff8000 |
ld_target_big_endian                             0 |            0 |            0 |            0 |            0 |            0 |            0 |            0 |            0 |            0 |            0 |            0 |            0 |            0 |            0 |            0 |            0 |            0 |            0 |            0 |            0 |            0 |            0 |            0 |            0 |            0 |            0 |            0 |            0 |            0 |            0 |            0 |            0 |            0 |            0 |            0 |            0 |            0 |            0 |            0 |            0 |            0 |            0 |            0 |
mem.page_count                                  35 |           35 |           35 |           35 |           43 |           43 |           43 |           43 |           59 |           59 |           59 |           59 |           91 |           91 |           91 |           91 |          155 |          155 |          155 |          155 |          283 |          283 |          283 |          283 |          539 |          539 |          539 |          539 |         1051 |         1051 |         1051 |         1051 |         2081 |         2081 |         2081 |         2081 |         4135 |         4135 |         4135 |         4135 |         8243 |         8243 |         8243 |         8243 |
mem.page_mem                                  140k |         140k |         140k |         140k |         172k |         172k |         172k |         172k |         236k |         236k |         236k |         236k |         364k |         364k |         364k |         364k |         620k |         620k |         620k |         620k |        1132k |        1132k |        1132k |        1132k |        2156k |        2156k |        2156k |        2156k |        4204k |        4204k |        4204k |        4204k |        8324k |        8324k |        8324k |        8324k |       16540k |       16540k |       16540k |       16540k |       32972k |       32972k |       32972k |       32972k |
mem.ptab_misses                                 35 |           35 |           35 |           35 |           43 |           43 |           43 |           43 |           59 |           59 |           59 |           59 |           91 |           91 |           91 |           91 |          155 |          155 |          155 |          155 |          283 |          283 |          283 |          283 |          539 |          539 |          539 |          539 |         1051 |         1051 |         1051 |         1051 |         9096 |         9096 |         9096 |         9096 |        22704 |        22704 |        22704 |        22704 |        64226 |        64226 |        64226 |        64226 |
mem.ptab_accesses                          4408938 |      4408938 |      4408938 |      4408938 |      8923402 |      8923402 |      8923402 |      8923402 |     18582838 |     18582838 |     18582838 |     18582838 |     39075268 |     39075268 |     39075268 |     39075268 |     82574356 |     82574356 |     82574356 |     82574356 |    174227960 |    174227960 |    174227960 |    174227960 |    367640744 |    367640744 |    367640744 |    367640744 |    773111922 |    773111922 |    773111922 |    773111922 |   1624622140 |   1624622140 |   1624622140 |   1624622140 |   3402133012 |   3402133012 |   3402133012 |   3402133012 |   7119333184 |   7119333184 |   7119333184 |   7119333184 |
mem.ptab_miss_rate                          0.0000 |       0.0000 |       0.0000 |       0.0000 |       0.0000 |       0.0000 |       0.0000 |       0.0000 |       0.0000 |       0.0000 |       0.0000 |       0.0000 |       0.0000 |       0.0000 |       0.0000 |       0.0000 |       0.0000 |       0.0000 |       0.0000 |       0.0000 |       0.0000 |       0.0000 |       0.0000 |       0.0000 |       0.0000 |       0.0000 |       0.0000 |       0.0000 |       0.0000 |       0.0000 |       0.0000 |       0.0000 |       0.0000 |       0.0000 |       0.0000 |       0.0000 |       0.0000 |       0.0000 |       0.0000 |       0.0000 |       0.0000 |       0.0000 |       0.0000 |       0.0000 |
-------------------------------------------------------------------------------------------------
sim-bpred                                     4096 |         4096 |         4096 |         4096 |         4096 |         4096 |         4096 |         8192 |         8192 |         8192 |         8192 |         8192 |         8192 |         8192 |        16384 |        16384 |        16384 |        16384 |        16384 |        16384 |        16384 |        32768 |        32768 |        32768 |        32768 |        32768 |        32768 |        32768 |        65536 |        65536 |        65536 |        65536 |        65536 |        65536 |        65536 |       131072 |       131072 |       131072 |       131072 |       131072 |       131072 |       131072 |       262144 |       262144 |       262144 |       262144 |       262144 |       262144 |       262144 |       524288 |       524288 |       524288 |       524288 |       524288 |       524288 |       524288 |      1048576 |      1048576 |      1048576 |      1048576 |      1048576 |      1048576 |      1048576 |      2097152 |      2097152 |      2097152 |      2097152 |      2097152 |      2097152 |      2097152 |      4194304 |      4194304 |      4194304 |      4194304 |      4194304 |      4194304 |      4194304 |
-bpred bimod -bpred:bimod 512
-bpred bimod -bpred:bimod 1024
-bpred bimod -bpred:bimod 2048
-bpred 2lev -bpred:2lev 1 512 10 1
-bpred 2lev -bpred:2lev 1 1024 10 1
-bpred 2lev -bpred:2lev 1 2048 10 1
-bpred 2lev -bpred:2lev 1 4096 10 1
-------------------------------------------------------------------------------------------------
sim_num_insn                                869955 |       869955 |       869955 |       869955 |       869955 |       869955 |       869955 |      1867118 |      1867118 |      1867118 |      1867118 |      1867118 |      1867118 |      1867118 |      4002176 |      4002176 |      4002176 |      4002176 |      4002176 |      4002176 |      4002176 |      8533905 |      8533905 |      8533905 |      8533905 |      8533905 |      8533905 |      8533905 |     18158613 |     18158613 |     18158613 |     18158613 |     18158613 |     18158613 |     18158613 |     38445194 |     38445194 |     38445194 |     38445194 |     38445194 |     38445194 |     38445194 |     81273874 |     81273874 |     81273874 |     81273874 |     81273874 |     81273874 |     81273874 |    171086871 |    171086871 |    171086871 |    171086871 |    171086871 |    171086871 |    171086871 |    359763882 |    359763882 |    359763882 |    359763882 |    359763882 |    359763882 |    359763882 |    753725387 |    753725387 |    753725387 |    753725387 |    753725387 |    753725387 |    753725387 |   1577841336 |   1577841336 |   1577841336 |   1577841336 |   1577841336 |   1577841336 |   1577841336 |
sim_num_refs                                217886 |       217886 |       217886 |       217886 |       217886 |       217886 |       217886 |       464312 |       464312 |       464312 |       464312 |       464312 |       464312 |       464312 |       991098 |       991098 |       991098 |       991098 |       991098 |       991098 |       991098 |      2108271 |      2108271 |      2108271 |      2108271 |      2108271 |      2108271 |      2108271 |      4477327 |      4477327 |      4477327 |      4477327 |      4477327 |      4477327 |      4477327 |      9468823 |      9468823 |      9468823 |      9468823 |      9468823 |      9468823 |      9468823 |     19993567 |     19993567 |     19993567 |     19993567 |     19993567 |     19993567 |     19993567 |     42054586 |     42054586 |     42054586 |     42054586 |     42054586 |     42054586 |     42054586 |     88358521 |     88358521 |     88358521 |     88358521 |     88358521 |     88358521 |     88358521 |    184996643 |    184996643 |    184996643 |    184996643 |    184996643 |    184996643 |    184996643 |    386976223 |    386976223 |    386976223 |    386976223 |    386976223 |    386976223 |    386976223 |
sim_elapsed_time                                 1 |            1 |            1 |            1 |            1 |            1 |            1 |            1 |            1 |            1 |            1 |            1 |            1 |            1 |            1 |            1 |            1 |            1 |            1 |            1 |            1 |            2 |            1 |            1 |            1 |            1 |            1 |            2 |            2 |            3 |            2 |            3 |            2 |            3 |            2 |            5 |            5 |            5 |            5 |            5 |            5 |            5 |           11 |           11 |           10 |           11 |           11 |           11 |           11 |           23 |           23 |           23 |           23 |           23 |           24 |           23 |           48 |           48 |           49 |           49 |           49 |           49 |           49 |          100 |          101 |          100 |          102 |          102 |          103 |          102 |          207 |          207 |          206 |          210 |          210 |          205 |          205 |
sim_inst_rate                          869955.0000 |  869955.0000 |  869955.0000 |  869955.0000 |  869955.0000 |  869955.0000 |  869955.0000 | 1867118.0000 | 1867118.0000 | 1867118.0000 | 1867118.0000 | 1867118.0000 | 1867118.0000 | 1867118.0000 | 4002176.0000 | 4002176.0000 | 4002176.0000 | 4002176.0000 | 4002176.0000 | 4002176.0000 | 4002176.0000 | 4266952.5000 | 8533905.0000 | 8533905.0000 | 8533905.0000 | 8533905.0000 | 8533905.0000 | 4266952.5000 | 9079306.5000 | 6052871.0000 | 9079306.5000 | 6052871.0000 | 9079306.5000 | 6052871.0000 | 9079306.5000 | 7689038.8000 | 7689038.8000 | 7689038.8000 | 7689038.8000 | 7689038.8000 | 7689038.8000 | 7689038.8000 | 7388534.0000 | 7388534.0000 | 8127387.4000 | 7388534.0000 | 7388534.0000 | 7388534.0000 | 7388534.0000 | 7438559.6087 | 7438559.6087 | 7438559.6087 | 7438559.6087 | 7438559.6087 | 7128619.6250 | 7438559.6087 | 7495080.8750 | 7495080.8750 | 7342120.0408 | 7342120.0408 | 7342120.0408 | 7342120.0408 | 7342120.0408 | 7537253.8700 | 7462627.5941 | 7537253.8700 | 7389464.5784 | 7389464.5784 | 7317722.2039 | 7389464.5784 | 7622421.9130 | 7622421.9130 | 7659423.9612 | 7513530.1714 | 7513530.1714 | 7696787.0049 | 7696787.0049 |
sim_num_branches                            154833 |       154833 |       154833 |       154833 |       154833 |       154833 |       154833 |       333239 |       333239 |       333239 |       333239 |       333239 |       333239 |       333239 |       715357 |       715357 |       715357 |       715357 |       715357 |       715357 |       715357 |      1527554 |      1527554 |      1527554 |      1527554 |      1527554 |      1527554 |      1527554 |      3252560 |      3252560 |      3252560 |      3252560 |      3252560 |      3252560 |      3252560 |      6892843 |      6892843 |      6892843 |      6892843 |      6892843 |      6892843 |      6892843 |     14579174 |     14579174 |     14579174 |     14579174 |     14579174 |     14579174 |     14579174 |     30710972 |     30710972 |     30710972 |     30710972 |     30710972 |     30710972 |     30710972 |     64604206 |     64604206 |     64604206 |     64604206 |     64604206 |     64604206 |     64604206 |    135423753 |    135423753 |    135423753 |    135423753 |    135423753 |    135423753 |    135423753 |    283589960 |    283589960 |    283589960 |    283589960 |    283589960 |    283589960 |    283589960 |
sim_IPB                                     5.6187 |       5.6187 |       5.6187 |       5.6187 |       5.6187 |       5.6187 |       5.6187 |       5.6029 |       5.6029 |       5.6029 |       5.6029 |       5.6029 |       5.6029 |       5.6029 |       5.5947 |       5.5947 |       5.5947 |       5.5947 |       5.5947 |       5.5947 |       5.5947 |       5.5866 |       5.5866 |       5.5866 |       5.5866 |       5.5866 |       5.5866 |       5.5866 |       5.5829 |       5.5829 |       5.5829 |       5.5829 |       5.5829 |       5.5829 |       5.5829 |       5.5776 |       5.5776 |       5.5776 |       5.5776 |       5.5776 |       5.5776 |       5.5776 |       5.5747 |       5.5747 |       5.5747 |       5.5747 |       5.5747 |       5.5747 |       5.5747 |       5.5709 |       5.5709 |       5.5709 |       5.5709 |       5.5709 |       5.5709 |       5.5709 |       5.5687 |       5.5687 |       5.5687 |       5.5687 |       5.5687 |       5.5687 |       5.5687 |       5.5657 |       5.5657 |       5.5657 |       5.5657 |       5.5657 |       5.5657 |       5.5657 |       5.5638 |       5.5638 |       5.5638 |       5.5638 |       5.5638 |       5.5638 |       5.5638 |
bpred_bimod.lookups                         154833 |       154833 |       154833 |xxxxxxxxxxxxx |xxxxxxxxxxxxx |xxxxxxxxxxxxx |xxxxxxxxxxxxx |       333239 |       333239 |       333239 |xxxxxxxxxxxxx |xxxxxxxxxxxxx |xxxxxxxxxxxxx |xxxxxxxxxxxxx |       715357 |       715357 |       715357 |xxxxxxxxxxxxx |xxxxxxxxxxxxx |xxxxxxxxxxxxx |xxxxxxxxxxxxx |      1527554 |      1527554 |      1527554 |xxxxxxxxxxxxx |xxxxxxxxxxxxx |xxxxxxxxxxxxx |xxxxxxxxxxxxx |      3252560 |      3252560 |      3252560 |xxxxxxxxxxxxx |xxxxxxxxxxxxx |xxxxxxxxxxxxx |xxxxxxxxxxxxx |      6892843 |      6892843 |      6892843 |xxxxxxxxxxxxx |xxxxxxxxxxxxx |xxxxxxxxxxxxx |xxxxxxxxxxxxx |     14579174 |     14579174 |     14579174 |xxxxxxxxxxxxx |xxxxxxxxxxxxx |xxxxxxxxxxxxx |xxxxxxxxxxxxx |     30710972 |     30710972 |     30710972 |xxxxxxxxxxxxx |xxxxxxxxxxxxx |xxxxxxxxxxxxx |xxxxxxxxxxxxx |     64604206 |     64604206 |     64604206 |xxxxxxxxxxxxx |xxxxxxxxxxxxx |xxxxxxxxxxxxx |xxxxxxxxxxxxx |    135423753 |    135423753 |    135423753 |xxxxxxxxxxxxx |xxxxxxxxxxxxx |xxxxxxxxxxxxx |xxxxxxxxxxxxx |    283589960 |    283589960 |    283589960 |
bpred_bimod.updates                         154833 |       154833 |       154833 |xxxxxxxxxxxxx |xxxxxxxxxxxxx |xxxxxxxxxxxxx |xxxxxxxxxxxxx |       333239 |       333239 |       333239 |xxxxxxxxxxxxx |xxxxxxxxxxxxx |xxxxxxxxxxxxx |xxxxxxxxxxxxx |       715357 |       715357 |       715357 |xxxxxxxxxxxxx |xxxxxxxxxxxxx |xxxxxxxxxxxxx |xxxxxxxxxxxxx |      1527554 |      1527554 |      1527554 |xxxxxxxxxxxxx |xxxxxxxxxxxxx |xxxxxxxxxxxxx |xxxxxxxxxxxxx |      3252560 |      3252560 |      3252560 |xxxxxxxxxxxxx |xxxxxxxxxxxxx |xxxxxxxxxxxxx |xxxxxxxxxxxxx |      6892843 |      6892843 |      6892843 |xxxxxxxxxxxxx |xxxxxxxxxxxxx |xxxxxxxxxxxxx |xxxxxxxxxxxxx |     14579174 |     14579174 |     14579174 |xxxxxxxxxxxxx |xxxxxxxxxxxxx |xxxxxxxxxxxxx |xxxxxxxxxxxxx |     30710972 |     30710972 |     30710972 |xxxxxxxxxxxxx |xxxxxxxxxxxxx |xxxxxxxxxxxxx |xxxxxxxxxxxxx |     64604206 |     64604206 |     64604206 |xxxxxxxxxxxxx |xxxxxxxxxxxxx |xxxxxxxxxxxxx |xxxxxxxxxxxxx |    135423753 |    135423753 |    135423753 |xxxxxxxxxxxxx |xxxxxxxxxxxxx |xxxxxxxxxxxxx |xxxxxxxxxxxxx |    283589960 |    283589960 |    283589960 |
bpred_bimod.addr_hits                       124158 |       124166 |       124166 |xxxxxxxxxxxxx |xxxxxxxxxxxxx |xxxxxxxxxxxxx |xxxxxxxxxxxxx |       266948 |       266954 |       266955 |xxxxxxxxxxxxx |xxxxxxxxxxxxx |xxxxxxxxxxxxx |xxxxxxxxxxxxx |       573058 |       573064 |       573065 |xxxxxxxxxxxxx |xxxxxxxxxxxxx |xxxxxxxxxxxxx |xxxxxxxxxxxxx |      1221938 |      1221944 |      1221947 |xxxxxxxxxxxxx |xxxxxxxxxxxxx |xxxxxxxxxxxxx |xxxxxxxxxxxxx |      2603759 |      2603765 |      2603768 |xxxxxxxxxxxxx |xxxxxxxxxxxxx |xxxxxxxxxxxxx |xxxxxxxxxxxxx |      5515082 |      5515089 |      5515091 |xxxxxxxxxxxxx |xxxxxxxxxxxxx |xxxxxxxxxxxxx |xxxxxxxxxxxxx |     11673418 |     11673425 |     11673427 |xxxxxxxxxxxxx |xxxxxxxxxxxxx |xxxxxxxxxxxxx |xxxxxxxxxxxxx |     24564265 |     24564272 |     24564274 |xxxxxxxxxxxxx |xxxxxxxxxxxxx |xxxxxxxxxxxxx |xxxxxxxxxxxxx |     51709899 |     51709905 |     51709906 |xxxxxxxxxxxxx |xxxxxxxxxxxxx |xxxxxxxxxxxxx |xxxxxxxxxxxxx |    108311669 |    108311675 |    108311676 |xxxxxxxxxxxxx |xxxxxxxxxxxxx |xxxxxxxxxxxxx |xxxxxxxxxxxxx |    226970129 |    226970135 |    226970136 |
bpred_bimod.dir_hits                        124280 |       124288 |       124289 |xxxxxxxxxxxxx |xxxxxxxxxxxxx |xxxxxxxxxxxxx |xxxxxxxxxxxxx |       267075 |       267081 |       267082 |xxxxxxxxxxxxx |xxxxxxxxxxxxx |xxxxxxxxxxxxx |xxxxxxxxxxxxx |       573185 |       573191 |       573192 |xxxxxxxxxxxxx |xxxxxxxxxxxxx |xxxxxxxxxxxxx |xxxxxxxxxxxxx |      1222064 |      1222070 |      1222073 |xxxxxxxxxxxxx |xxxxxxxxxxxxx |xxxxxxxxxxxxx |xxxxxxxxxxxxx |      2603884 |      2603890 |      2603893 |xxxxxxxxxxxxx |xxxxxxxxxxxxx |xxxxxxxxxxxxx |xxxxxxxxxxxxx |      5515209 |      5515216 |      5515218 |xxxxxxxxxxxxx |xxxxxxxxxxxxx |xxxxxxxxxxxxx |xxxxxxxxxxxxx |     11673545 |     11673552 |     11673554 |xxxxxxxxxxxxx |xxxxxxxxxxxxx |xxxxxxxxxxxxx |xxxxxxxxxxxxx |     24564392 |     24564399 |     24564401 |xxxxxxxxxxxxx |xxxxxxxxxxxxx |xxxxxxxxxxxxx |xxxxxxxxxxxxx |     51710037 |     51710043 |     51710044 |xxxxxxxxxxxxx |xxxxxxxxxxxxx |xxxxxxxxxxxxx |xxxxxxxxxxxxx |    108311807 |    108311813 |    108311814 |xxxxxxxxxxxxx |xxxxxxxxxxxxx |xxxxxxxxxxxxx |xxxxxxxxxxxxx |    226970267 |    226970273 |    226970274 |
bpred_bimod.misses                           30553 |        30545 |        30544 |xxxxxxxxxxxxx |xxxxxxxxxxxxx |xxxxxxxxxxxxx |xxxxxxxxxxxxx |        66164 |        66158 |        66157 |xxxxxxxxxxxxx |xxxxxxxxxxxxx |xxxxxxxxxxxxx |xxxxxxxxxxxxx |       142172 |       142166 |       142165 |xxxxxxxxxxxxx |xxxxxxxxxxxxx |xxxxxxxxxxxxx |xxxxxxxxxxxxx |       305490 |       305484 |       305481 |xxxxxxxxxxxxx |xxxxxxxxxxxxx |xxxxxxxxxxxxx |xxxxxxxxxxxxx |       648676 |       648670 |       648667 |xxxxxxxxxxxxx |xxxxxxxxxxxxx |xxxxxxxxxxxxx |xxxxxxxxxxxxx |      1377634 |      1377627 |      1377625 |xxxxxxxxxxxxx |xxxxxxxxxxxxx |xxxxxxxxxxxxx |xxxxxxxxxxxxx |      2905629 |      2905622 |      2905620 |xxxxxxxxxxxxx |xxxxxxxxxxxxx |xxxxxxxxxxxxx |xxxxxxxxxxxxx |      6146580 |      6146573 |      6146571 |xxxxxxxxxxxxx |xxxxxxxxxxxxx |xxxxxxxxxxxxx |xxxxxxxxxxxxx |     12894169 |     12894163 |     12894162 |xxxxxxxxxxxxx |xxxxxxxxxxxxx |xxxxxxxxxxxxx |xxxxxxxxxxxxx |     27111946 |     27111940 |     27111939 |xxxxxxxxxxxxx |xxxxxxxxxxxxx |xxxxxxxxxxxxx |xxxxxxxxxxxxx |     56619693 |     56619687 |     56619686 |
bpred_bimod.jr_hits                           4157 |         4157 |         4157 |xxxxxxxxxxxxx |xxxxxxxxxxxxx |xxxxxxxxxxxxx |xxxxxxxxxxxxx |         8261 |         8261 |         8261 |xxxxxxxxxxxxx |xxxxxxxxxxxxx |xxxxxxxxxxxxx |xxxxxxxxxxxxx |        16453 |        16453 |        16453 |xxxxxxxxxxxxx |xxxxxxxxxxxxx |xxxxxxxxxxxxx |xxxxxxxxxxxxx |        32837 |        32837 |        32837 |xxxxxxxxxxxxx |xxxxxxxxxxxxx |xxxxxxxxxxxxx |xxxxxxxxxxxxx |        65605 |        65605 |        65605 |xxxxxxxxxxxxx |xxxxxxxxxxxxx |xxxxxxxxxxxxx |xxxxxxxxxxxxx |       131141 |       131141 |       131141 |xxxxxxxxxxxxx |xxxxxxxxxxxxx |xxxxxxxxxxxxx |xxxxxxxxxxxxx |       262213 |       262213 |       262213 |xxxxxxxxxxxxx |xxxxxxxxxxxxx |xxxxxxxxxxxxx |xxxxxxxxxxxxx |       524357 |       524357 |       524357 |xxxxxxxxxxxxx |xxxxxxxxxxxxx |xxxxxxxxxxxxx |xxxxxxxxxxxxx |      1048648 |      1048648 |      1048648 |xxxxxxxxxxxxx |xxxxxxxxxxxxx |xxxxxxxxxxxxx |xxxxxxxxxxxxx |      2097224 |      2097224 |      2097224 |xxxxxxxxxxxxx |xxxxxxxxxxxxx |xxxxxxxxxxxxx |xxxxxxxxxxxxx |      4194376 |      4194376 |      4194376 |
bpred_bimod.jr_seen                           4157 |         4157 |         4157 |xxxxxxxxxxxxx |xxxxxxxxxxxxx |xxxxxxxxxxxxx |xxxxxxxxxxxxx |         8262 |         8262 |         8262 |xxxxxxxxxxxxx |xxxxxxxxxxxxx |xxxxxxxxxxxxx |xxxxxxxxxxxxx |        16454 |        16454 |        16454 |xxxxxxxxxxxxx |xxxxxxxxxxxxx |xxxxxxxxxxxxx |xxxxxxxxxxxxx |        32838 |        32838 |        32838 |xxxxxxxxxxxxx |xxxxxxxxxxxxx |xxxxxxxxxxxxx |xxxxxxxxxxxxx |        65606 |        65606 |        65606 |xxxxxxxxxxxxx |xxxxxxxxxxxxx |xxxxxxxxxxxxx |xxxxxxxxxxxxx |       131142 |       131142 |       131142 |xxxxxxxxxxxxx |xxxxxxxxxxxxx |xxxxxxxxxxxxx |xxxxxxxxxxxxx |       262214 |       262214 |       262214 |xxxxxxxxxxxxx |xxxxxxxxxxxxx |xxxxxxxxxxxxx |xxxxxxxxxxxxx |       524358 |       524358 |       524358 |xxxxxxxxxxxxx |xxxxxxxxxxxxx |xxxxxxxxxxxxx |xxxxxxxxxxxxx |      1048649 |      1048649 |      1048649 |xxxxxxxxxxxxx |xxxxxxxxxxxxx |xxxxxxxxxxxxx |xxxxxxxxxxxxx |      2097225 |      2097225 |      2097225 |xxxxxxxxxxxxx |xxxxxxxxxxxxx |xxxxxxxxxxxxx |xxxxxxxxxxxxx |      4194377 |      4194377 |      4194377 |
bpred_bimod.jr_non_ras_hits.PP                   0 |            0 |            0 |xxxxxxxxxxxxx |xxxxxxxxxxxxx |xxxxxxxxxxxxx |xxxxxxxxxxxxx |            0 |            0 |            0 |xxxxxxxxxxxxx |xxxxxxxxxxxxx |xxxxxxxxxxxxx |xxxxxxxxxxxxx |            0 |            0 |            0 |xxxxxxxxxxxxx |xxxxxxxxxxxxx |xxxxxxxxxxxxx |xxxxxxxxxxxxx |            0 |            0 |            0 |xxxxxxxxxxxxx |xxxxxxxxxxxxx |xxxxxxxxxxxxx |xxxxxxxxxxxxx |            0 |            0 |            0 |xxxxxxxxxxxxx |xxxxxxxxxxxxx |xxxxxxxxxxxxx |xxxxxxxxxxxxx |            0 |            0 |            0 |xxxxxxxxxxxxx |xxxxxxxxxxxxx |xxxxxxxxxxxxx |xxxxxxxxxxxxx |            0 |            0 |            0 |xxxxxxxxxxxxx |xxxxxxxxxxxxx |xxxxxxxxxxxxx |xxxxxxxxxxxxx |            0 |            0 |            0 |xxxxxxxxxxxxx |xxxxxxxxxxxxx |xxxxxxxxxxxxx |xxxxxxxxxxxxx |            0 |            0 |            0 |xxxxxxxxxxxxx |xxxxxxxxxxxxx |xxxxxxxxxxxxx |xxxxxxxxxxxxx |            0 |            0 |            0 |xxxxxxxxxxxxx |xxxxxxxxxxxxx |xxxxxxxxxxxxx |xxxxxxxxxxxxx |            0 |            0 |            0 |
bpred_bimod.jr_non_ras_seen.PP                   0 |            0 |            0 |xxxxxxxxxxxxx |xxxxxxxxxxxxx |xxxxxxxxxxxxx |xxxxxxxxxxxxx |            0 |            0 |            0 |xxxxxxxxxxxxx |xxxxxxxxxxxxx |xxxxxxxxxxxxx |xxxxxxxxxxxxx |            0 |            0 |            0 |xxxxxxxxxxxxx |xxxxxxxxxxxxx |xxxxxxxxxxxxx |xxxxxxxxxxxxx |            0 |            0 |            0 |xxxxxxxxxxxxx |xxxxxxxxxxxxx |xxxxxxxxxxxxx |xxxxxxxxxxxxx |            0 |            0 |            0 |xxxxxxxxxxxxx |xxxxxxxxxxxxx |xxxxxxxxxxxxx |xxxxxxxxxxxxx |            0 |            0 |            0 |xxxxxxxxxxxxx |xxxxxxxxxxxxx |xxxxxxxxxxxxx |xxxxxxxxxxxxx |            0 |            0 |            0 |xxxxxxxxxxxxx |xxxxxxxxxxxxx |xxxxxxxxxxxxx |xxxxxxxxxxxxx |            0 |            0 |            0 |xxxxxxxxxxxxx |xxxxxxxxxxxxx |xxxxxxxxxxxxx |xxxxxxxxxxxxx |            1 |            1 |            1 |xxxxxxxxxxxxx |xxxxxxxxxxxxx |xxxxxxxxxxxxx |xxxxxxxxxxxxx |            1 |            1 |            1 |xxxxxxxxxxxxx |xxxxxxxxxxxxx |xxxxxxxxxxxxx |xxxxxxxxxxxxx |            1 |            1 |            1 |
bpred_bimod.bpred_addr_rate                 0.8019 |       0.8019 |       0.8019 |xxxxxxxxxxxxx |xxxxxxxxxxxxx |xxxxxxxxxxxxx |xxxxxxxxxxxxx |       0.8011 |       0.8011 |       0.8011 |xxxxxxxxxxxxx |xxxxxxxxxxxxx |xxxxxxxxxxxxx |xxxxxxxxxxxxx |       0.8011 |       0.8011 |       0.8011 |xxxxxxxxxxxxx |xxxxxxxxxxxxx |xxxxxxxxxxxxx |xxxxxxxxxxxxx |       0.7999 |       0.7999 |       0.7999 |xxxxxxxxxxxxx |xxxxxxxxxxxxx |xxxxxxxxxxxxx |xxxxxxxxxxxxx |       0.8005 |       0.8005 |       0.8005 |xxxxxxxxxxxxx |xxxxxxxxxxxxx |xxxxxxxxxxxxx |xxxxxxxxxxxxx |       0.8001 |       0.8001 |       0.8001 |xxxxxxxxxxxxx |xxxxxxxxxxxxx |xxxxxxxxxxxxx |xxxxxxxxxxxxx |       0.8007 |       0.8007 |       0.8007 |xxxxxxxxxxxxx |xxxxxxxxxxxxx |xxxxxxxxxxxxx |xxxxxxxxxxxxx |       0.7999 |       0.7999 |       0.7999 |xxxxxxxxxxxxx |xxxxxxxxxxxxx |xxxxxxxxxxxxx |xxxxxxxxxxxxx |       0.8004 |       0.8004 |       0.8004 |xxxxxxxxxxxxx |xxxxxxxxxxxxx |xxxxxxxxxxxxx |xxxxxxxxxxxxx |       0.7998 |       0.7998 |       0.7998 |xxxxxxxxxxxxx |xxxxxxxxxxxxx |xxxxxxxxxxxxx |xxxxxxxxxxxxx |       0.8003 |       0.8003 |       0.8003 |
bpred_bimod.bpred_dir_rate                  0.8027 |       0.8027 |       0.8027 |xxxxxxxxxxxxx |xxxxxxxxxxxxx |xxxxxxxxxxxxx |xxxxxxxxxxxxx |       0.8015 |       0.8015 |       0.8015 |xxxxxxxxxxxxx |xxxxxxxxxxxxx |xxxxxxxxxxxxx |xxxxxxxxxxxxx |       0.8013 |       0.8013 |       0.8013 |xxxxxxxxxxxxx |xxxxxxxxxxxxx |xxxxxxxxxxxxx |xxxxxxxxxxxxx |       0.8000 |       0.8000 |       0.8000 |xxxxxxxxxxxxx |xxxxxxxxxxxxx |xxxxxxxxxxxxx |xxxxxxxxxxxxx |       0.8006 |       0.8006 |       0.8006 |xxxxxxxxxxxxx |xxxxxxxxxxxxx |xxxxxxxxxxxxx |xxxxxxxxxxxxx |       0.8001 |       0.8001 |       0.8001 |xxxxxxxxxxxxx |xxxxxxxxxxxxx |xxxxxxxxxxxxx |xxxxxxxxxxxxx |       0.8007 |       0.8007 |       0.8007 |xxxxxxxxxxxxx |xxxxxxxxxxxxx |xxxxxxxxxxxxx |xxxxxxxxxxxxx |       0.7999 |       0.7999 |       0.7999 |xxxxxxxxxxxxx |xxxxxxxxxxxxx |xxxxxxxxxxxxx |xxxxxxxxxxxxx |       0.8004 |       0.8004 |       0.8004 |xxxxxxxxxxxxx |xxxxxxxxxxxxx |xxxxxxxxxxxxx |xxxxxxxxxxxxx |       0.7998 |       0.7998 |       0.7998 |xxxxxxxxxxxxx |xxxxxxxxxxxxx |xxxxxxxxxxxxx |xxxxxxxxxxxxx |       0.8003 |       0.8003 |       0.8003 |
bpred_bimod.bpred_jr_rate                   1.0000 |       1.0000 |       1.0000 |xxxxxxxxxxxxx |xxxxxxxxxxxxx |xxxxxxxxxxxxx |xxxxxxxxxxxxx |       0.9999 |       0.9999 |       0.9999 |xxxxxxxxxxxxx |xxxxxxxxxxxxx |xxxxxxxxxxxxx |xxxxxxxxxxxxx |       0.9999 |       0.9999 |       0.9999 |xxxxxxxxxxxxx |xxxxxxxxxxxxx |xxxxxxxxxxxxx |xxxxxxxxxxxxx |       1.0000 |       1.0000 |       1.0000 |xxxxxxxxxxxxx |xxxxxxxxxxxxx |xxxxxxxxxxxxx |xxxxxxxxxxxxx |       1.0000 |       1.0000 |       1.0000 |xxxxxxxxxxxxx |xxxxxxxxxxxxx |xxxxxxxxxxxxx |xxxxxxxxxxxxx |       1.0000 |       1.0000 |       1.0000 |xxxxxxxxxxxxx |xxxxxxxxxxxxx |xxxxxxxxxxxxx |xxxxxxxxxxxxx |       1.0000 |       1.0000 |       1.0000 |xxxxxxxxxxxxx |xxxxxxxxxxxxx |xxxxxxxxxxxxx |xxxxxxxxxxxxx |       1.0000 |       1.0000 |       1.0000 |xxxxxxxxxxxxx |xxxxxxxxxxxxx |xxxxxxxxxxxxx |xxxxxxxxxxxxx |       1.0000 |       1.0000 |       1.0000 |xxxxxxxxxxxxx |xxxxxxxxxxxxx |xxxxxxxxxxxxx |xxxxxxxxxxxxx |       1.0000 |       1.0000 |       1.0000 |xxxxxxxxxxxxx |xxxxxxxxxxxxx |xxxxxxxxxxxxx |xxxxxxxxxxxxx |       1.0000 |       1.0000 |       1.0000 |
bpred_bimod.bpred_jr_non_ras_rate.PP       <error: |      <error: |      <error: |xxxxxxxxxxxxx |xxxxxxxxxxxxx |xxxxxxxxxxxxx |xxxxxxxxxxxxx |      <error: |      <error: |      <error: |xxxxxxxxxxxxx |xxxxxxxxxxxxx |xxxxxxxxxxxxx |xxxxxxxxxxxxx |      <error: |      <error: |      <error: |xxxxxxxxxxxxx |xxxxxxxxxxxxx |xxxxxxxxxxxxx |xxxxxxxxxxxxx |      <error: |      <error: |      <error: |xxxxxxxxxxxxx |xxxxxxxxxxxxx |xxxxxxxxxxxxx |xxxxxxxxxxxxx |      <error: |      <error: |      <error: |xxxxxxxxxxxxx |xxxxxxxxxxxxx |xxxxxxxxxxxxx |xxxxxxxxxxxxx |      <error: |      <error: |      <error: |xxxxxxxxxxxxx |xxxxxxxxxxxxx |xxxxxxxxxxxxx |xxxxxxxxxxxxx |      <error: |      <error: |      <error: |xxxxxxxxxxxxx |xxxxxxxxxxxxx |xxxxxxxxxxxxx |xxxxxxxxxxxxx |      <error: |      <error: |      <error: |xxxxxxxxxxxxx |xxxxxxxxxxxxx |xxxxxxxxxxxxx |xxxxxxxxxxxxx |       0.0000 |       0.0000 |       0.0000 |xxxxxxxxxxxxx |xxxxxxxxxxxxx |xxxxxxxxxxxxx |xxxxxxxxxxxxx |       0.0000 |       0.0000 |       0.0000 |xxxxxxxxxxxxx |xxxxxxxxxxxxx |xxxxxxxxxxxxx |xxxxxxxxxxxxx |       0.0000 |       0.0000 |       0.0000 |
bpred_bimod.retstack_pushes                   4159 |         4159 |         4159 |xxxxxxxxxxxxx |xxxxxxxxxxxxx |xxxxxxxxxxxxx |xxxxxxxxxxxxx |         8264 |         8264 |         8264 |xxxxxxxxxxxxx |xxxxxxxxxxxxx |xxxxxxxxxxxxx |xxxxxxxxxxxxx |        16456 |        16456 |        16456 |xxxxxxxxxxxxx |xxxxxxxxxxxxx |xxxxxxxxxxxxx |xxxxxxxxxxxxx |        32840 |        32840 |        32840 |xxxxxxxxxxxxx |xxxxxxxxxxxxx |xxxxxxxxxxxxx |xxxxxxxxxxxxx |        65608 |        65608 |        65608 |xxxxxxxxxxxxx |xxxxxxxxxxxxx |xxxxxxxxxxxxx |xxxxxxxxxxxxx |       131144 |       131144 |       131144 |xxxxxxxxxxxxx |xxxxxxxxxxxxx |xxxxxxxxxxxxx |xxxxxxxxxxxxx |       262216 |       262216 |       262216 |xxxxxxxxxxxxx |xxxxxxxxxxxxx |xxxxxxxxxxxxx |xxxxxxxxxxxxx |       524360 |       524360 |       524360 |xxxxxxxxxxxxx |xxxxxxxxxxxxx |xxxxxxxxxxxxx |xxxxxxxxxxxxx |      1048650 |      1048650 |      1048650 |xxxxxxxxxxxxx |xxxxxxxxxxxxx |xxxxxxxxxxxxx |xxxxxxxxxxxxx |      2097226 |      2097226 |      2097226 |xxxxxxxxxxxxx |xxxxxxxxxxxxx |xxxxxxxxxxxxx |xxxxxxxxxxxxx |      4194378 |      4194378 |      4194378 |
bpred_bimod.retstack_pops                     4157 |         4157 |         4157 |xxxxxxxxxxxxx |xxxxxxxxxxxxx |xxxxxxxxxxxxx |xxxxxxxxxxxxx |         8262 |         8262 |         8262 |xxxxxxxxxxxxx |xxxxxxxxxxxxx |xxxxxxxxxxxxx |xxxxxxxxxxxxx |        16454 |        16454 |        16454 |xxxxxxxxxxxxx |xxxxxxxxxxxxx |xxxxxxxxxxxxx |xxxxxxxxxxxxx |        32838 |        32838 |        32838 |xxxxxxxxxxxxx |xxxxxxxxxxxxx |xxxxxxxxxxxxx |xxxxxxxxxxxxx |        65606 |        65606 |        65606 |xxxxxxxxxxxxx |xxxxxxxxxxxxx |xxxxxxxxxxxxx |xxxxxxxxxxxxx |       131142 |       131142 |       131142 |xxxxxxxxxxxxx |xxxxxxxxxxxxx |xxxxxxxxxxxxx |xxxxxxxxxxxxx |       262214 |       262214 |       262214 |xxxxxxxxxxxxx |xxxxxxxxxxxxx |xxxxxxxxxxxxx |xxxxxxxxxxxxx |       524358 |       524358 |       524358 |xxxxxxxxxxxxx |xxxxxxxxxxxxx |xxxxxxxxxxxxx |xxxxxxxxxxxxx |      1048648 |      1048648 |      1048648 |xxxxxxxxxxxxx |xxxxxxxxxxxxx |xxxxxxxxxxxxx |xxxxxxxxxxxxx |      2097224 |      2097224 |      2097224 |xxxxxxxxxxxxx |xxxxxxxxxxxxx |xxxxxxxxxxxxx |xxxxxxxxxxxxx |      4194376 |      4194376 |      4194376 |
bpred_bimod.used_ras.PP                       4157 |         4157 |         4157 |xxxxxxxxxxxxx |xxxxxxxxxxxxx |xxxxxxxxxxxxx |xxxxxxxxxxxxx |         8262 |         8262 |         8262 |xxxxxxxxxxxxx |xxxxxxxxxxxxx |xxxxxxxxxxxxx |xxxxxxxxxxxxx |        16454 |        16454 |        16454 |xxxxxxxxxxxxx |xxxxxxxxxxxxx |xxxxxxxxxxxxx |xxxxxxxxxxxxx |        32838 |        32838 |        32838 |xxxxxxxxxxxxx |xxxxxxxxxxxxx |xxxxxxxxxxxxx |xxxxxxxxxxxxx |        65606 |        65606 |        65606 |xxxxxxxxxxxxx |xxxxxxxxxxxxx |xxxxxxxxxxxxx |xxxxxxxxxxxxx |       131142 |       131142 |       131142 |xxxxxxxxxxxxx |xxxxxxxxxxxxx |xxxxxxxxxxxxx |xxxxxxxxxxxxx |       262214 |       262214 |       262214 |xxxxxxxxxxxxx |xxxxxxxxxxxxx |xxxxxxxxxxxxx |xxxxxxxxxxxxx |       524358 |       524358 |       524358 |xxxxxxxxxxxxx |xxxxxxxxxxxxx |xxxxxxxxxxxxx |xxxxxxxxxxxxx |      1048648 |      1048648 |      1048648 |xxxxxxxxxxxxx |xxxxxxxxxxxxx |xxxxxxxxxxxxx |xxxxxxxxxxxxx |      2097224 |      2097224 |      2097224 |xxxxxxxxxxxxx |xxxxxxxxxxxxx |xxxxxxxxxxxxx |xxxxxxxxxxxxx |      4194376 |      4194376 |      4194376 |
bpred_bimod.ras_hits.PP                       4157 |         4157 |         4157 |xxxxxxxxxxxxx |xxxxxxxxxxxxx |xxxxxxxxxxxxx |xxxxxxxxxxxxx |         8261 |         8261 |         8261 |xxxxxxxxxxxxx |xxxxxxxxxxxxx |xxxxxxxxxxxxx |xxxxxxxxxxxxx |        16453 |        16453 |        16453 |xxxxxxxxxxxxx |xxxxxxxxxxxxx |xxxxxxxxxxxxx |xxxxxxxxxxxxx |        32837 |        32837 |        32837 |xxxxxxxxxxxxx |xxxxxxxxxxxxx |xxxxxxxxxxxxx |xxxxxxxxxxxxx |        65605 |        65605 |        65605 |xxxxxxxxxxxxx |xxxxxxxxxxxxx |xxxxxxxxxxxxx |xxxxxxxxxxxxx |       131141 |       131141 |       131141 |xxxxxxxxxxxxx |xxxxxxxxxxxxx |xxxxxxxxxxxxx |xxxxxxxxxxxxx |       262213 |       262213 |       262213 |xxxxxxxxxxxxx |xxxxxxxxxxxxx |xxxxxxxxxxxxx |xxxxxxxxxxxxx |       524357 |       524357 |       524357 |xxxxxxxxxxxxx |xxxxxxxxxxxxx |xxxxxxxxxxxxx |xxxxxxxxxxxxx |      1048648 |      1048648 |      1048648 |xxxxxxxxxxxxx |xxxxxxxxxxxxx |xxxxxxxxxxxxx |xxxxxxxxxxxxx |      2097224 |      2097224 |      2097224 |xxxxxxxxxxxxx |xxxxxxxxxxxxx |xxxxxxxxxxxxx |xxxxxxxxxxxxx |      4194376 |      4194376 |      4194376 |
bpred_bimod.ras_rate.PP                     1.0000 |       1.0000 |       1.0000 |xxxxxxxxxxxxx |xxxxxxxxxxxxx |xxxxxxxxxxxxx |xxxxxxxxxxxxx |       0.9999 |       0.9999 |       0.9999 |xxxxxxxxxxxxx |xxxxxxxxxxxxx |xxxxxxxxxxxxx |xxxxxxxxxxxxx |       0.9999 |       0.9999 |       0.9999 |xxxxxxxxxxxxx |xxxxxxxxxxxxx |xxxxxxxxxxxxx |xxxxxxxxxxxxx |       1.0000 |       1.0000 |       1.0000 |xxxxxxxxxxxxx |xxxxxxxxxxxxx |xxxxxxxxxxxxx |xxxxxxxxxxxxx |       1.0000 |       1.0000 |       1.0000 |xxxxxxxxxxxxx |xxxxxxxxxxxxx |xxxxxxxxxxxxx |xxxxxxxxxxxxx |       1.0000 |       1.0000 |       1.0000 |xxxxxxxxxxxxx |xxxxxxxxxxxxx |xxxxxxxxxxxxx |xxxxxxxxxxxxx |       1.0000 |       1.0000 |       1.0000 |xxxxxxxxxxxxx |xxxxxxxxxxxxx |xxxxxxxxxxxxx |xxxxxxxxxxxxx |       1.0000 |       1.0000 |       1.0000 |xxxxxxxxxxxxx |xxxxxxxxxxxxx |xxxxxxxxxxxxx |xxxxxxxxxxxxx |       1.0000 |       1.0000 |       1.0000 |xxxxxxxxxxxxx |xxxxxxxxxxxxx |xxxxxxxxxxxxx |xxxxxxxxxxxxx |       1.0000 |       1.0000 |       1.0000 |xxxxxxxxxxxxx |xxxxxxxxxxxxx |xxxxxxxxxxxxx |xxxxxxxxxxxxx |       1.0000 |       1.0000 |       1.0000 |
bpred_2lev.lookups                   xxxxxxxxxxxxx |xxxxxxxxxxxxx |xxxxxxxxxxxxx |       154833 |       154833 |       154833 |       154833 |xxxxxxxxxxxxx |xxxxxxxxxxxxx |xxxxxxxxxxxxx |       333239 |       333239 |       333239 |       333239 |xxxxxxxxxxxxx |xxxxxxxxxxxxx |xxxxxxxxxxxxx |       715357 |       715357 |       715357 |       715357 |xxxxxxxxxxxxx |xxxxxxxxxxxxx |xxxxxxxxxxxxx |      1527554 |      1527554 |      1527554 |      1527554 |xxxxxxxxxxxxx |xxxxxxxxxxxxx |xxxxxxxxxxxxx |      3252560 |      3252560 |      3252560 |      3252560 |xxxxxxxxxxxxx |xxxxxxxxxxxxx |xxxxxxxxxxxxx |      6892843 |      6892843 |      6892843 |      6892843 |xxxxxxxxxxxxx |xxxxxxxxxxxxx |xxxxxxxxxxxxx |     14579174 |     14579174 |     14579174 |     14579174 |xxxxxxxxxxxxx |xxxxxxxxxxxxx |xxxxxxxxxxxxx |     30710972 |     30710972 |     30710972 |     30710972 |xxxxxxxxxxxxx |xxxxxxxxxxxxx |xxxxxxxxxxxxx |     64604206 |     64604206 |     64604206 |     64604206 |xxxxxxxxxxxxx |xxxxxxxxxxxxx |xxxxxxxxxxxxx |    135423753 |    135423753 |    135423753 |    135423753 |xxxxxxxxxxxxx |xxxxxxxxxxxxx |xxxxxxxxxxxxx |    283589960 |    283589960 |    283589960 |    283589960 |
[...]
bpred_2lev.retstack_pushes           xxxxxxxxxxxxx |xxxxxxxxxxxxx |xxxxxxxxxxxxx |         4159 |         4159 |         4159 |         4159 |xxxxxxxxxxxxx |xxxxxxxxxxxxx |xxxxxxxxxxxxx |         8264 |         8264 |         8264 |         8264 |xxxxxxxxxxxxx |xxxxxxxxxxxxx |xxxxxxxxxxxxx |        16456 |        16456 |        16456 |        16456 |xxxxxxxxxxxxx |xxxxxxxxxxxxx |xxxxxxxxxxxxx |        32840 |        32840 |        32840 |        32840 |xxxxxxxxxxxxx |xxxxxxxxxxxxx |xxxxxxxxxxxxx |        65608 |        65608 |        65608 |        65608 |xxxxxxxxxxxxx |xxxxxxxxxxxxx |xxxxxxxxxxxxx |       131144 |       131144 |       131144 |       131144 |xxxxxxxxxxxxx |xxxxxxxxxxxxx |xxxxxxxxxxxxx |       262216 |       262216 |       262216 |       262216 |xxxxxxxxxxxxx |xxxxxxxxxxxxx |xxxxxxxxxxxxx |       524360 |       524360 |       524360 |       524360 |xxxxxxxxxxxxx |xxxxxxxxxxxxx |xxxxxxxxxxxxx |      1048650 |      1048650 |      1048650 |      1048650 |xxxxxxxxxxxxx |xxxxxxxxxxxxx |xxxxxxxxxxxxx |      2097226 |      2097226 |      2097226 |      2097226 |xxxxxxxxxxxxx |xxxxxxxxxxxxx |xxxxxxxxxxxxx |      4194378 |      4194378 |      4194378 |      4194378 |
bpred_2lev.retstack_pops             xxxxxxxxxxxxx |xxxxxxxxxxxxx |xxxxxxxxxxxxx |         4157 |         4157 |         4157 |         4157 |xxxxxxxxxxxxx |xxxxxxxxxxxxx |xxxxxxxxxxxxx |         8262 |         8262 |         8262 |         8262 |xxxxxxxxxxxxx |xxxxxxxxxxxxx |xxxxxxxxxxxxx |        16454 |        16454 |        16454 |        16454 |xxxxxxxxxxxxx |xxxxxxxxxxxxx |xxxxxxxxxxxxx |        32838 |        32838 |        32838 |        32838 |xxxxxxxxxxxxx |xxxxxxxxxxxxx |xxxxxxxxxxxxx |        65606 |        65606 |        65606 |        65606 |xxxxxxxxxxxxx |xxxxxxxxxxxxx |xxxxxxxxxxxxx |       131142 |       131142 |       131142 |       131142 |xxxxxxxxxxxxx |xxxxxxxxxxxxx |xxxxxxxxxxxxx |       262214 |       262214 |       262214 |       262214 |xxxxxxxxxxxxx |xxxxxxxxxxxxx |xxxxxxxxxxxxx |       524358 |       524358 |       524358 |       524358 |xxxxxxxxxxxxx |xxxxxxxxxxxxx |xxxxxxxxxxxxx |      1048648 |      1048648 |      1048648 |      1048648 |xxxxxxxxxxxxx |xxxxxxxxxxxxx |xxxxxxxxxxxxx |      2097224 |      2097224 |      2097224 |      2097224 |xxxxxxxxxxxxx |xxxxxxxxxxxxx |xxxxxxxxxxxxx |      4194376 |      4194376 |      4194376 |      4194376 |
bpred_2lev.used_ras.PP               xxxxxxxxxxxxx |xxxxxxxxxxxxx |xxxxxxxxxxxxx |         4157 |         4157 |         4157 |         4157 |xxxxxxxxxxxxx |xxxxxxxxxxxxx |xxxxxxxxxxxxx |         8262 |         8262 |         8262 |         8262 |xxxxxxxxxxxxx |xxxxxxxxxxxxx |xxxxxxxxxxxxx |        16454 |        16454 |        16454 |        16454 |xxxxxxxxxxxxx |xxxxxxxxxxxxx |xxxxxxxxxxxxx |        32838 |        32838 |        32838 |        32838 |xxxxxxxxxxxxx |xxxxxxxxxxxxx |xxxxxxxxxxxxx |        65606 |        65606 |        65606 |        65606 |xxxxxxxxxxxxx |xxxxxxxxxxxxx |xxxxxxxxxxxxx |       131142 |       131142 |       131142 |       131142 |xxxxxxxxxxxxx |xxxxxxxxxxxxx |xxxxxxxxxxxxx |       262214 |       262214 |       262214 |       262214 |xxxxxxxxxxxxx |xxxxxxxxxxxxx |xxxxxxxxxxxxx |       524358 |       524358 |       524358 |       524358 |xxxxxxxxxxxxx |xxxxxxxxxxxxx |xxxxxxxxxxxxx |      1048648 |      1048648 |      1048648 |      1048648 |xxxxxxxxxxxxx |xxxxxxxxxxxxx |xxxxxxxxxxxxx |      2097224 |      2097224 |      2097224 |      2097224 |xxxxxxxxxxxxx |xxxxxxxxxxxxx |xxxxxxxxxxxxx |      4194376 |      4194376 |      4194376 |      4194376 |
bpred_2lev.ras_hits.PP               xxxxxxxxxxxxx |xxxxxxxxxxxxx |xxxxxxxxxxxxx |         4157 |         4157 |         4157 |         4157 |xxxxxxxxxxxxx |xxxxxxxxxxxxx |xxxxxxxxxxxxx |         8261 |         8261 |         8261 |         8261 |xxxxxxxxxxxxx |xxxxxxxxxxxxx |xxxxxxxxxxxxx |        16453 |        16453 |        16453 |        16453 |xxxxxxxxxxxxx |xxxxxxxxxxxxx |xxxxxxxxxxxxx |        32837 |        32837 |        32837 |        32837 |xxxxxxxxxxxxx |xxxxxxxxxxxxx |xxxxxxxxxxxxx |        65605 |        65605 |        65605 |        65605 |xxxxxxxxxxxxx |xxxxxxxxxxxxx |xxxxxxxxxxxxx |       131141 |       131141 |       131141 |       131141 |xxxxxxxxxxxxx |xxxxxxxxxxxxx |xxxxxxxxxxxxx |       262213 |       262213 |       262213 |       262213 |xxxxxxxxxxxxx |xxxxxxxxxxxxx |xxxxxxxxxxxxx |       524357 |       524357 |       524357 |       524357 |xxxxxxxxxxxxx |xxxxxxxxxxxxx |xxxxxxxxxxxxx |      1048648 |      1048648 |      1048648 |      1048648 |xxxxxxxxxxxxx |xxxxxxxxxxxxx |xxxxxxxxxxxxx |      2097224 |      2097224 |      2097224 |      2097224 |xxxxxxxxxxxxx |xxxxxxxxxxxxx |xxxxxxxxxxxxx |      4194376 |      4194376 |      4194376 |      4194376 |
bpred_2lev.ras_rate.PP               xxxxxxxxxxxxx |xxxxxxxxxxxxx |xxxxxxxxxxxxx |       1.0000 |       1.0000 |       1.0000 |       1.0000 |xxxxxxxxxxxxx |xxxxxxxxxxxxx |xxxxxxxxxxxxx |       0.9999 |       0.9999 |       0.9999 |       0.9999 |xxxxxxxxxxxxx |xxxxxxxxxxxxx |xxxxxxxxxxxxx |       0.9999 |       0.9999 |       0.9999 |       0.9999 |xxxxxxxxxxxxx |xxxxxxxxxxxxx |xxxxxxxxxxxxx |       1.0000 |       1.0000 |       1.0000 |       1.0000 |xxxxxxxxxxxxx |xxxxxxxxxxxxx |xxxxxxxxxxxxx |       1.0000 |       1.0000 |       1.0000 |       1.0000 |xxxxxxxxxxxxx |xxxxxxxxxxxxx |xxxxxxxxxxxxx |       1.0000 |       1.0000 |       1.0000 |       1.0000 |xxxxxxxxxxxxx |xxxxxxxxxxxxx |xxxxxxxxxxxxx |       1.0000 |       1.0000 |       1.0000 |       1.0000 |xxxxxxxxxxxxx |xxxxxxxxxxxxx |xxxxxxxxxxxxx |       1.0000 |       1.0000 |       1.0000 |       1.0000 |xxxxxxxxxxxxx |xxxxxxxxxxxxx |xxxxxxxxxxxxx |       1.0000 |       1.0000 |       1.0000 |       1.0000 |xxxxxxxxxxxxx |xxxxxxxxxxxxx |xxxxxxxxxxxxx |       1.0000 |       1.0000 |       1.0000 |       1.0000 |xxxxxxxxxxxxx |xxxxxxxxxxxxx |xxxxxxxxxxxxx |       1.0000 |       1.0000 |       1.0000 |       1.0000 |

Command list: 
	sslittle-na-sstrix-gcc -Wall -O3 -funroll-loops -finline-functions  -DRANDOM_SIZE=4096 -DOFFSET=5 -DSORT=cache4_heapsort sorts/cache4_heapsort155574271.c simpleMain.c -o cache4_heapsort944854708
	sim-cache -cache:dl1 dl1:512:16:1:l -cache:dl2 dl2:262144:16:1:l -cache:il1 il1:512:16:1:l -cache:il2 dl2 cache4_heapsort944854708
	sim-cache -cache:dl1 dl1:512:16:1:l -cache:dl2 dl2:131072:16:1:l -cache:il1 il1:512:16:1:l -cache:il2 dl2 cache4_heapsort944854708
	sim-cache -cache:dl1 dl1:1:16:512:l -cache:dl2 dl2:1:16:262144:l -cache:il1 il1:1:16:512:l -cache:il2 dl2 cache4_heapsort944854708
	sim-cache -cache:dl1 dl1:1:16:512:l -cache:dl2 dl2:1:16:131072:l -cache:il1 il1:1:16:512:l -cache:il2 dl2 cache4_heapsort944854708
	sim-bpred -bpred bimod -bpred:bimod 512 cache4_heapsort944854708
	sim-bpred -bpred bimod -bpred:bimod 1024 cache4_heapsort944854708
	sim-bpred -bpred bimod -bpred:bimod 2048 cache4_heapsort944854708
	sim-bpred -bpred 2lev -bpred:2lev 1 512 10 1 cache4_heapsort944854708
	sim-bpred -bpred 2lev -bpred:2lev 1 1024 10 1 cache4_heapsort944854708
	sim-bpred -bpred 2lev -bpred:2lev 1 2048 10 1 cache4_heapsort944854708
	sim-bpred -bpred 2lev -bpred:2lev 1 4096 10 1 cache4_heapsort944854708
	sslittle-na-sstrix-gcc -Wall -O3 -funroll-loops -finline-functions  -DRANDOM_SIZE=8192 -DOFFSET=5 -DSORT=cache4_heapsort sorts/cache4_heapsort155574271.c simpleMain.c -o cache4_heapsort944854708
	sim-cache -cache:dl1 dl1:512:16:1:l -cache:dl2 dl2:262144:16:1:l -cache:il1 il1:512:16:1:l -cache:il2 dl2 cache4_heapsort944854708
	sim-cache -cache:dl1 dl1:512:16:1:l -cache:dl2 dl2:131072:16:1:l -cache:il1 il1:512:16:1:l -cache:il2 dl2 cache4_heapsort944854708
	sim-cache -cache:dl1 dl1:1:16:512:l -cache:dl2 dl2:1:16:262144:l -cache:il1 il1:1:16:512:l -cache:il2 dl2 cache4_heapsort944854708
	sim-cache -cache:dl1 dl1:1:16:512:l -cache:dl2 dl2:1:16:131072:l -cache:il1 il1:1:16:512:l -cache:il2 dl2 cache4_heapsort944854708
	sim-bpred -bpred bimod -bpred:bimod 512 cache4_heapsort944854708
	sim-bpred -bpred bimod -bpred:bimod 1024 cache4_heapsort944854708
	sim-bpred -bpred bimod -bpred:bimod 2048 cache4_heapsort944854708
	sim-bpred -bpred 2lev -bpred:2lev 1 512 10 1 cache4_heapsort944854708
	sim-bpred -bpred 2lev -bpred:2lev 1 1024 10 1 cache4_heapsort944854708
	sim-bpred -bpred 2lev -bpred:2lev 1 2048 10 1 cache4_heapsort944854708
	sim-bpred -bpred 2lev -bpred:2lev 1 4096 10 1 cache4_heapsort944854708
	sslittle-na-sstrix-gcc -Wall -O3 -funroll-loops -finline-functions  -DRANDOM_SIZE=16384 -DOFFSET=5 -DSORT=cache4_heapsort sorts/cache4_heapsort155574271.c simpleMain.c -o cache4_heapsort944854708
	sim-cache -cache:dl1 dl1:512:16:1:l -cache:dl2 dl2:262144:16:1:l -cache:il1 il1:512:16:1:l -cache:il2 dl2 cache4_heapsort944854708
	sim-cache -cache:dl1 dl1:512:16:1:l -cache:dl2 dl2:131072:16:1:l -cache:il1 il1:512:16:1:l -cache:il2 dl2 cache4_heapsort944854708
	sim-cache -cache:dl1 dl1:1:16:512:l -cache:dl2 dl2:1:16:262144:l -cache:il1 il1:1:16:512:l -cache:il2 dl2 cache4_heapsort944854708
	sim-cache -cache:dl1 dl1:1:16:512:l -cache:dl2 dl2:1:16:131072:l -cache:il1 il1:1:16:512:l -cache:il2 dl2 cache4_heapsort944854708
	sim-bpred -bpred bimod -bpred:bimod 512 cache4_heapsort944854708
	sim-bpred -bpred bimod -bpred:bimod 1024 cache4_heapsort944854708
	sim-bpred -bpred bimod -bpred:bimod 2048 cache4_heapsort944854708
	sim-bpred -bpred 2lev -bpred:2lev 1 512 10 1 cache4_heapsort944854708
	sim-bpred -bpred 2lev -bpred:2lev 1 1024 10 1 cache4_heapsort944854708
	sim-bpred -bpred 2lev -bpred:2lev 1 2048 10 1 cache4_heapsort944854708
	sim-bpred -bpred 2lev -bpred:2lev 1 4096 10 1 cache4_heapsort944854708
	sslittle-na-sstrix-gcc -Wall -O3 -funroll-loops -finline-functions  -DRANDOM_SIZE=32768 -DOFFSET=5 -DSORT=cache4_heapsort sorts/cache4_heapsort155574271.c simpleMain.c -o cache4_heapsort944854708
	sim-cache -cache:dl1 dl1:512:16:1:l -cache:dl2 dl2:262144:16:1:l -cache:il1 il1:512:16:1:l -cache:il2 dl2 cache4_heapsort944854708
	sim-cache -cache:dl1 dl1:512:16:1:l -cache:dl2 dl2:131072:16:1:l -cache:il1 il1:512:16:1:l -cache:il2 dl2 cache4_heapsort944854708
	sim-cache -cache:dl1 dl1:1:16:512:l -cache:dl2 dl2:1:16:262144:l -cache:il1 il1:1:16:512:l -cache:il2 dl2 cache4_heapsort944854708
	sim-cache -cache:dl1 dl1:1:16:512:l -cache:dl2 dl2:1:16:131072:l -cache:il1 il1:1:16:512:l -cache:il2 dl2 cache4_heapsort944854708
	sim-bpred -bpred bimod -bpred:bimod 512 cache4_heapsort944854708
	sim-bpred -bpred bimod -bpred:bimod 1024 cache4_heapsort944854708
	sim-bpred -bpred bimod -bpred:bimod 2048 cache4_heapsort944854708
	sim-bpred -bpred 2lev -bpred:2lev 1 512 10 1 cache4_heapsort944854708
	sim-bpred -bpred 2lev -bpred:2lev 1 1024 10 1 cache4_heapsort944854708
	sim-bpred -bpred 2lev -bpred:2lev 1 2048 10 1 cache4_heapsort944854708
	sim-bpred -bpred 2lev -bpred:2lev 1 4096 10 1 cache4_heapsort944854708
	sslittle-na-sstrix-gcc -Wall -O3 -funroll-loops -finline-functions  -DRANDOM_SIZE=65536 -DOFFSET=5 -DSORT=cache4_heapsort sorts/cache4_heapsort155574271.c simpleMain.c -o cache4_heapsort944854708
	sim-cache -cache:dl1 dl1:512:16:1:l -cache:dl2 dl2:262144:16:1:l -cache:il1 il1:512:16:1:l -cache:il2 dl2 cache4_heapsort944854708
	sim-cache -cache:dl1 dl1:512:16:1:l -cache:dl2 dl2:131072:16:1:l -cache:il1 il1:512:16:1:l -cache:il2 dl2 cache4_heapsort944854708
	sim-cache -cache:dl1 dl1:1:16:512:l -cache:dl2 dl2:1:16:262144:l -cache:il1 il1:1:16:512:l -cache:il2 dl2 cache4_heapsort944854708
	sim-cache -cache:dl1 dl1:1:16:512:l -cache:dl2 dl2:1:16:131072:l -cache:il1 il1:1:16:512:l -cache:il2 dl2 cache4_heapsort944854708
	sim-bpred -bpred bimod -bpred:bimod 512 cache4_heapsort944854708
	sim-bpred -bpred bimod -bpred:bimod 1024 cache4_heapsort944854708
	sim-bpred -bpred bimod -bpred:bimod 2048 cache4_heapsort944854708
	sim-bpred -bpred 2lev -bpred:2lev 1 512 10 1 cache4_heapsort944854708
	sim-bpred -bpred 2lev -bpred:2lev 1 1024 10 1 cache4_heapsort944854708
	sim-bpred -bpred 2lev -bpred:2lev 1 2048 10 1 cache4_heapsort944854708
	sim-bpred -bpred 2lev -bpred:2lev 1 4096 10 1 cache4_heapsort944854708
	sslittle-na-sstrix-gcc -Wall -O3 -funroll-loops -finline-functions  -DRANDOM_SIZE=131072 -DOFFSET=5 -DSORT=cache4_heapsort sorts/cache4_heapsort155574271.c simpleMain.c -o cache4_heapsort944854708
	sim-cache -cache:dl1 dl1:512:16:1:l -cache:dl2 dl2:262144:16:1:l -cache:il1 il1:512:16:1:l -cache:il2 dl2 cache4_heapsort944854708
	sim-cache -cache:dl1 dl1:512:16:1:l -cache:dl2 dl2:131072:16:1:l -cache:il1 il1:512:16:1:l -cache:il2 dl2 cache4_heapsort944854708
	sim-cache -cache:dl1 dl1:1:16:512:l -cache:dl2 dl2:1:16:262144:l -cache:il1 il1:1:16:512:l -cache:il2 dl2 cache4_heapsort944854708
	sim-cache -cache:dl1 dl1:1:16:512:l -cache:dl2 dl2:1:16:131072:l -cache:il1 il1:1:16:512:l -cache:il2 dl2 cache4_heapsort944854708
	sim-bpred -bpred bimod -bpred:bimod 512 cache4_heapsort944854708
	sim-bpred -bpred bimod -bpred:bimod 1024 cache4_heapsort944854708
	sim-bpred -bpred bimod -bpred:bimod 2048 cache4_heapsort944854708
	sim-bpred -bpred 2lev -bpred:2lev 1 512 10 1 cache4_heapsort944854708
	sim-bpred -bpred 2lev -bpred:2lev 1 1024 10 1 cache4_heapsort944854708
	sim-bpred -bpred 2lev -bpred:2lev 1 2048 10 1 cache4_heapsort944854708
	sim-bpred -bpred 2lev -bpred:2lev 1 4096 10 1 cache4_heapsort944854708
	sslittle-na-sstrix-gcc -Wall -O3 -funroll-loops -finline-functions  -DRANDOM_SIZE=262144 -DOFFSET=5 -DSORT=cache4_heapsort sorts/cache4_heapsort155574271.c simpleMain.c -o cache4_heapsort944854708
	sim-cache -cache:dl1 dl1:512:16:1:l -cache:dl2 dl2:262144:16:1:l -cache:il1 il1:512:16:1:l -cache:il2 dl2 cache4_heapsort944854708
	sim-cache -cache:dl1 dl1:512:16:1:l -cache:dl2 dl2:131072:16:1:l -cache:il1 il1:512:16:1:l -cache:il2 dl2 cache4_heapsort944854708
	sim-cache -cache:dl1 dl1:1:16:512:l -cache:dl2 dl2:1:16:262144:l -cache:il1 il1:1:16:512:l -cache:il2 dl2 cache4_heapsort944854708
	sim-cache -cache:dl1 dl1:1:16:512:l -cache:dl2 dl2:1:16:131072:l -cache:il1 il1:1:16:512:l -cache:il2 dl2 cache4_heapsort944854708
	sim-bpred -bpred bimod -bpred:bimod 512 cache4_heapsort944854708
	sim-bpred -bpred bimod -bpred:bimod 1024 cache4_heapsort944854708
	sim-bpred -bpred bimod -bpred:bimod 2048 cache4_heapsort944854708
	sim-bpred -bpred 2lev -bpred:2lev 1 512 10 1 cache4_heapsort944854708
	sim-bpred -bpred 2lev -bpred:2lev 1 1024 10 1 cache4_heapsort944854708
	sim-bpred -bpred 2lev -bpred:2lev 1 2048 10 1 cache4_heapsort944854708
	sim-bpred -bpred 2lev -bpred:2lev 1 4096 10 1 cache4_heapsort944854708
	sslittle-na-sstrix-gcc -Wall -O3 -funroll-loops -finline-functions  -DRANDOM_SIZE=524288 -DOFFSET=5 -DSORT=cache4_heapsort sorts/cache4_heapsort155574271.c simpleMain.c -o cache4_heapsort944854708
	sim-cache -cache:dl1 dl1:512:16:1:l -cache:dl2 dl2:262144:16:1:l -cache:il1 il1:512:16:1:l -cache:il2 dl2 cache4_heapsort944854708
	sim-cache -cache:dl1 dl1:512:16:1:l -cache:dl2 dl2:131072:16:1:l -cache:il1 il1:512:16:1:l -cache:il2 dl2 cache4_heapsort944854708
	sim-cache -cache:dl1 dl1:1:16:512:l -cache:dl2 dl2:1:16:262144:l -cache:il1 il1:1:16:512:l -cache:il2 dl2 cache4_heapsort944854708
	sim-cache -cache:dl1 dl1:1:16:512:l -cache:dl2 dl2:1:16:131072:l -cache:il1 il1:1:16:512:l -cache:il2 dl2 cache4_heapsort944854708
	sim-bpred -bpred bimod -bpred:bimod 512 cache4_heapsort944854708
	sim-bpred -bpred bimod -bpred:bimod 1024 cache4_heapsort944854708
	sim-bpred -bpred bimod -bpred:bimod 2048 cache4_heapsort944854708
	sim-bpred -bpred 2lev -bpred:2lev 1 512 10 1 cache4_heapsort944854708
	sim-bpred -bpred 2lev -bpred:2lev 1 1024 10 1 cache4_heapsort944854708
	sim-bpred -bpred 2lev -bpred:2lev 1 2048 10 1 cache4_heapsort944854708
	sim-bpred -bpred 2lev -bpred:2lev 1 4096 10 1 cache4_heapsort944854708
	sslittle-na-sstrix-gcc -Wall -O3 -funroll-loops -finline-functions  -DRANDOM_SIZE=1048576 -DOFFSET=5 -DSORT=cache4_heapsort sorts/cache4_heapsort155574271.c simpleMain.c -o cache4_heapsort944854708
	sim-cache -cache:dl1 dl1:512:16:1:l -cache:dl2 dl2:262144:16:1:l -cache:il1 il1:512:16:1:l -cache:il2 dl2 cache4_heapsort944854708
	sim-cache -cache:dl1 dl1:512:16:1:l -cache:dl2 dl2:131072:16:1:l -cache:il1 il1:512:16:1:l -cache:il2 dl2 cache4_heapsort944854708
	sim-cache -cache:dl1 dl1:1:16:512:l -cache:dl2 dl2:1:16:262144:l -cache:il1 il1:1:16:512:l -cache:il2 dl2 cache4_heapsort944854708
	sim-cache -cache:dl1 dl1:1:16:512:l -cache:dl2 dl2:1:16:131072:l -cache:il1 il1:1:16:512:l -cache:il2 dl2 cache4_heapsort944854708
	sim-bpred -bpred bimod -bpred:bimod 512 cache4_heapsort944854708
	sim-bpred -bpred bimod -bpred:bimod 1024 cache4_heapsort944854708
	sim-bpred -bpred bimod -bpred:bimod 2048 cache4_heapsort944854708
	sim-bpred -bpred 2lev -bpred:2lev 1 512 10 1 cache4_heapsort944854708
	sim-bpred -bpred 2lev -bpred:2lev 1 1024 10 1 cache4_heapsort944854708
	sim-bpred -bpred 2lev -bpred:2lev 1 2048 10 1 cache4_heapsort944854708
	sim-bpred -bpred 2lev -bpred:2lev 1 4096 10 1 cache4_heapsort944854708
	sslittle-na-sstrix-gcc -Wall -O3 -funroll-loops -finline-functions  -DRANDOM_SIZE=2097152 -DOFFSET=5 -DSORT=cache4_heapsort sorts/cache4_heapsort155574271.c simpleMain.c -o cache4_heapsort944854708
	sim-cache -cache:dl1 dl1:512:16:1:l -cache:dl2 dl2:262144:16:1:l -cache:il1 il1:512:16:1:l -cache:il2 dl2 cache4_heapsort944854708
	sim-cache -cache:dl1 dl1:512:16:1:l -cache:dl2 dl2:131072:16:1:l -cache:il1 il1:512:16:1:l -cache:il2 dl2 cache4_heapsort944854708
	sim-cache -cache:dl1 dl1:1:16:512:l -cache:dl2 dl2:1:16:262144:l -cache:il1 il1:1:16:512:l -cache:il2 dl2 cache4_heapsort944854708
	sim-cache -cache:dl1 dl1:1:16:512:l -cache:dl2 dl2:1:16:131072:l -cache:il1 il1:1:16:512:l -cache:il2 dl2 cache4_heapsort944854708
	sim-bpred -bpred bimod -bpred:bimod 512 cache4_heapsort944854708
	sim-bpred -bpred bimod -bpred:bimod 1024 cache4_heapsort944854708
	sim-bpred -bpred bimod -bpred:bimod 2048 cache4_heapsort944854708
	sim-bpred -bpred 2lev -bpred:2lev 1 512 10 1 cache4_heapsort944854708
	sim-bpred -bpred 2lev -bpred:2lev 1 1024 10 1 cache4_heapsort944854708
	sim-bpred -bpred 2lev -bpred:2lev 1 2048 10 1 cache4_heapsort944854708
	sim-bpred -bpred 2lev -bpred:2lev 1 4096 10 1 cache4_heapsort944854708
	sslittle-na-sstrix-gcc -Wall -O3 -funroll-loops -finline-functions  -DRANDOM_SIZE=4194304 -DOFFSET=5 -DSORT=cache4_heapsort sorts/cache4_heapsort155574271.c simpleMain.c -o cache4_heapsort944854708
	sim-cache -cache:dl1 dl1:512:16:1:l -cache:dl2 dl2:262144:16:1:l -cache:il1 il1:512:16:1:l -cache:il2 dl2 cache4_heapsort944854708
	sim-cache -cache:dl1 dl1:512:16:1:l -cache:dl2 dl2:131072:16:1:l -cache:il1 il1:512:16:1:l -cache:il2 dl2 cache4_heapsort944854708
	sim-cache -cache:dl1 dl1:1:16:512:l -cache:dl2 dl2:1:16:262144:l -cache:il1 il1:1:16:512:l -cache:il2 dl2 cache4_heapsort944854708
	sim-cache -cache:dl1 dl1:1:16:512:l -cache:dl2 dl2:1:16:131072:l -cache:il1 il1:1:16:512:l -cache:il2 dl2 cache4_heapsort944854708
	sim-bpred -bpred bimod -bpred:bimod 512 cache4_heapsort944854708
	sim-bpred -bpred bimod -bpred:bimod 1024 cache4_heapsort944854708
	sim-bpred -bpred bimod -bpred:bimod 2048 cache4_heapsort944854708
	sim-bpred -bpred 2lev -bpred:2lev 1 512 10 1 cache4_heapsort944854708
	sim-bpred -bpred 2lev -bpred:2lev 1 1024 10 1 cache4_heapsort944854708
	sim-bpred -bpred 2lev -bpred:2lev 1 2048 10 1 cache4_heapsort944854708
	sim-bpred -bpred 2lev -bpred:2lev 1 4096 10 1 cache4_heapsort944854708
