Tue Jun 28 01:12:34 2005
Run as: "./do_simple -c random.org2 -o 2 cache4_heapsort"
-------------------------------------------------------------------------------------------------
sim-cache                                     4096 |         4096 |         4096 |         4096 |         8192 |         8192 |         8192 |         8192 |        16384 |        16384 |        16384 |        16384 |        32768 |        32768 |        32768 |        32768 |        65536 |        65536 |        65536 |        65536 |       131072 |       131072 |       131072 |       131072 |       262144 |       262144 |       262144 |       262144 |       524288 |       524288 |       524288 |       524288 |      1048576 |      1048576 |      1048576 |      1048576 |      2097152 |      2097152 |      2097152 |      2097152 |      4194304 |      4194304 |      4194304 |      4194304 |
-cache:dl1 dl1:256:32:1:l -cache:dl2 dl2:131072:32:1:l -cache:il1 il1:256:32:1:l -cache:il2 dl2
-cache:dl1 dl1:256:32:1:l -cache:dl2 dl2:65536:32:1:l -cache:il1 il1:256:32:1:l -cache:il2 dl2
-cache:dl1 dl1:1:32:256:l -cache:dl2 dl2:1:32:131072:l -cache:il1 il1:1:32:256:l -cache:il2 dl2
-cache:dl1 dl1:1:32:256:l -cache:dl2 dl2:1:32:65536:l -cache:il1 il1:1:32:256:l -cache:il2 dl2
-------------------------------------------------------------------------------------------------
sim_num_insn                                868489 |       868489 |       868489 |       868489 |      1867503 |      1867503 |      1867503 |      1867503 |      4000499 |      4000499 |      4000499 |      4000499 |      8532667 |      8532667 |      8532667 |      8532667 |     18154401 |     18154401 |     18154401 |     18154401 |     38442364 |     38442364 |     38442364 |     38442364 |     81265370 |     81265370 |     81265370 |     81265370 |    171085994 |    171085994 |    171085994 |    171085994 |    359770545 |    359770545 |    359770545 |    359770545 |    753717729 |    753717729 |    753717729 |    753717729 |   1577777152 |   1577777152 |   1577777152 |   1577777152 |
sim_num_refs                                217577 |       217577 |       217577 |       217577 |       464430 |       464430 |       464430 |       464430 |       990872 |       990872 |       990872 |       990872 |      2108054 |      2108054 |      2108054 |      2108054 |      4477119 |      4477119 |      4477119 |      4477119 |      9468035 |      9468035 |      9468035 |      9468035 |     19991857 |     19991857 |     19991857 |     19991857 |     42054581 |     42054581 |     42054581 |     42054581 |     88360894 |     88360894 |     88360894 |     88360894 |    184998707 |    184998707 |    184998707 |    184998707 |    386965936 |    386965936 |    386965936 |    386965936 |
sim_elapsed_time                                 1 |            1 |            9 |            5 |            1 |            1 |           15 |            7 |            1 |            1 |           25 |           13 |            3 |            2 |           45 |           23 |            5 |            4 |           83 |           42 |           10 |           10 |          153 |           72 |           21 |           22 |          265 |          103 |           46 |           46 |          370 |          131 |           97 |           96 |          430 |          189 |          204 |          204 |          554 |          313 |          430 |          430 |          816 |          573 |
sim_inst_rate                          868489.0000 |  868489.0000 |   96498.7778 |  173697.8000 | 1867503.0000 | 1867503.0000 |  124500.2000 |  266786.1429 | 4000499.0000 | 4000499.0000 |  160019.9600 |  307730.6923 | 2844222.3333 | 4266333.5000 |  189614.8222 |  370985.5217 | 3630880.2000 | 4538600.2500 |  218727.7229 |  432247.6429 | 3844236.4000 | 3844236.4000 |  251257.2810 |  533921.7222 | 3869779.5238 | 3693880.4545 |  306661.7736 |  788984.1748 | 3719260.7391 | 3719260.7391 |  462394.5784 | 1305999.9542 | 3708974.6907 | 3747609.8438 |  836675.6860 | 1903547.8571 | 3694694.7500 | 3694694.7500 | 1360501.3159 | 2408043.8626 | 3669249.1907 | 3669249.1907 | 1933550.4314 | 2753537.7871 |
il1.accesses                                868489 |       868489 |       868489 |       868489 |      1867503 |      1867503 |      1867503 |      1867503 |      4000499 |      4000499 |      4000499 |      4000499 |      8532667 |      8532667 |      8532667 |      8532667 |     18154401 |     18154401 |     18154401 |     18154401 |     38442364 |     38442364 |     38442364 |     38442364 |     81265370 |     81265370 |     81265370 |     81265370 |    171085994 |    171085994 |    171085994 |    171085994 |    359770545 |    359770545 |    359770545 |    359770545 |    753717729 |    753717729 |    753717729 |    753717729 |   1577777152 |   1577777152 |   1577777152 |   1577777152 |
il1.hits                                    867970 |       867970 |       868059 |       868059 |      1866943 |      1866943 |      1867053 |      1867053 |      3999938 |      3999938 |      4000052 |      4000052 |      8532109 |      8532109 |      8532216 |      8532216 |     18153843 |     18153843 |     18153950 |     18153950 |     38441806 |     38441806 |     38441914 |     38441914 |     81264812 |     81264812 |     81264920 |     81264920 |    171085436 |    171085436 |    171085544 |    171085544 |    359769951 |    359769951 |    359770064 |    359770064 |    753717135 |    753717135 |    753717248 |    753717248 |   1577776558 |   1577776558 |   1577776671 |   1577776671 |
il1.misses                                     519 |          519 |          430 |          430 |          560 |          560 |          450 |          450 |          561 |          561 |          447 |          447 |          558 |          558 |          451 |          451 |          558 |          558 |          451 |          451 |          558 |          558 |          450 |          450 |          558 |          558 |          450 |          450 |          558 |          558 |          450 |          450 |          594 |          594 |          481 |          481 |          594 |          594 |          481 |          481 |          594 |          594 |          481 |          481 |
il1.replacements                               306 |          306 |          174 |          174 |          339 |          339 |          194 |          194 |          340 |          340 |          191 |          191 |          337 |          337 |          195 |          195 |          337 |          337 |          195 |          195 |          337 |          337 |          194 |          194 |          337 |          337 |          194 |          194 |          337 |          337 |          194 |          194 |          378 |          378 |          225 |          225 |          378 |          378 |          225 |          225 |          378 |          378 |          225 |          225 |
il1.writebacks                                   0 |            0 |            0 |            0 |            0 |            0 |            0 |            0 |            0 |            0 |            0 |            0 |            0 |            0 |            0 |            0 |            0 |            0 |            0 |            0 |            0 |            0 |            0 |            0 |            0 |            0 |            0 |            0 |            0 |            0 |            0 |            0 |            0 |            0 |            0 |            0 |            0 |            0 |            0 |            0 |            0 |            0 |            0 |            0 |
il1.invalidations                                0 |            0 |            0 |            0 |            0 |            0 |            0 |            0 |            0 |            0 |            0 |            0 |            0 |            0 |            0 |            0 |            0 |            0 |            0 |            0 |            0 |            0 |            0 |            0 |            0 |            0 |            0 |            0 |            0 |            0 |            0 |            0 |            0 |            0 |            0 |            0 |            0 |            0 |            0 |            0 |            0 |            0 |            0 |            0 |
il1.miss_rate                               0.0006 |       0.0006 |       0.0005 |       0.0005 |       0.0003 |       0.0003 |       0.0002 |       0.0002 |       0.0001 |       0.0001 |       0.0001 |       0.0001 |       0.0001 |       0.0001 |       0.0001 |       0.0001 |       0.0000 |       0.0000 |       0.0000 |       0.0000 |       0.0000 |       0.0000 |       0.0000 |       0.0000 |       0.0000 |       0.0000 |       0.0000 |       0.0000 |       0.0000 |       0.0000 |       0.0000 |       0.0000 |       0.0000 |       0.0000 |       0.0000 |       0.0000 |       0.0000 |       0.0000 |       0.0000 |       0.0000 |       0.0000 |       0.0000 |       0.0000 |       0.0000 |
il1.repl_rate                               0.0004 |       0.0004 |       0.0002 |       0.0002 |       0.0002 |       0.0002 |       0.0001 |       0.0001 |       0.0001 |       0.0001 |       0.0000 |       0.0000 |       0.0000 |       0.0000 |       0.0000 |       0.0000 |       0.0000 |       0.0000 |       0.0000 |       0.0000 |       0.0000 |       0.0000 |       0.0000 |       0.0000 |       0.0000 |       0.0000 |       0.0000 |       0.0000 |       0.0000 |       0.0000 |       0.0000 |       0.0000 |       0.0000 |       0.0000 |       0.0000 |       0.0000 |       0.0000 |       0.0000 |       0.0000 |       0.0000 |       0.0000 |       0.0000 |       0.0000 |       0.0000 |
il1.wb_rate                                 0.0000 |       0.0000 |       0.0000 |       0.0000 |       0.0000 |       0.0000 |       0.0000 |       0.0000 |       0.0000 |       0.0000 |       0.0000 |       0.0000 |       0.0000 |       0.0000 |       0.0000 |       0.0000 |       0.0000 |       0.0000 |       0.0000 |       0.0000 |       0.0000 |       0.0000 |       0.0000 |       0.0000 |       0.0000 |       0.0000 |       0.0000 |       0.0000 |       0.0000 |       0.0000 |       0.0000 |       0.0000 |       0.0000 |       0.0000 |       0.0000 |       0.0000 |       0.0000 |       0.0000 |       0.0000 |       0.0000 |       0.0000 |       0.0000 |       0.0000 |       0.0000 |
il1.inv_rate                                0.0000 |       0.0000 |       0.0000 |       0.0000 |       0.0000 |       0.0000 |       0.0000 |       0.0000 |       0.0000 |       0.0000 |       0.0000 |       0.0000 |       0.0000 |       0.0000 |       0.0000 |       0.0000 |       0.0000 |       0.0000 |       0.0000 |       0.0000 |       0.0000 |       0.0000 |       0.0000 |       0.0000 |       0.0000 |       0.0000 |       0.0000 |       0.0000 |       0.0000 |       0.0000 |       0.0000 |       0.0000 |       0.0000 |       0.0000 |       0.0000 |       0.0000 |       0.0000 |       0.0000 |       0.0000 |       0.0000 |       0.0000 |       0.0000 |       0.0000 |       0.0000 |
dl1.accesses                                234043 |       234043 |       234043 |       234043 |       497280 |       497280 |       497280 |       497280 |      1056490 |      1056490 |      1056490 |      1056490 |      2239208 |      2239208 |      2239208 |      2239208 |      4739345 |      4739345 |      4739345 |      4739345 |      9992405 |      9992405 |      9992405 |      9992405 |     21040515 |     21040515 |     21040515 |     21040515 |     44151815 |     44151815 |     44151815 |     44151815 |     92555280 |     92555280 |     92555280 |     92555280 |    193387397 |    193387397 |    193387397 |    193387397 |    403743234 |    403743234 |    403743234 |    403743234 |
dl1.hits                                    229064 |       229064 |       229766 |       229766 |       483770 |       483770 |       485357 |       485357 |      1019470 |      1019470 |      1023625 |      1023625 |      2146168 |      2146168 |      2154461 |      2154461 |      4510678 |      4510678 |      4530782 |      4530782 |      9455983 |      9455983 |      9497760 |      9497760 |     19803100 |     19803100 |     19895571 |     19895571 |     41369814 |     41369814 |     41558617 |     41558617 |     86347003 |     86347003 |     86766321 |     86766321 |    179782032 |    179782032 |    180622270 |    180622270 |    374054286 |    374054286 |    375855625 |    375855625 |
dl1.misses                                    4979 |         4979 |         4277 |         4277 |        13510 |        13510 |        11923 |        11923 |        37020 |        37020 |        32865 |        32865 |        93040 |        93040 |        84747 |        84747 |       228667 |       228667 |       208563 |       208563 |       536422 |       536422 |       494645 |       494645 |      1237415 |      1237415 |      1144944 |      1144944 |      2782001 |      2782001 |      2593198 |      2593198 |      6208277 |      6208277 |      5788959 |      5788959 |     13605365 |     13605365 |     12765127 |     12765127 |     29688948 |     29688948 |     27887609 |     27887609 |
dl1.replacements                              4723 |         4723 |         4021 |         4021 |        13254 |        13254 |        11667 |        11667 |        36764 |        36764 |        32609 |        32609 |        92784 |        92784 |        84491 |        84491 |       228411 |       228411 |       208307 |       208307 |       536166 |       536166 |       494389 |       494389 |      1237159 |      1237159 |      1144688 |      1144688 |      2781745 |      2781745 |      2592942 |      2592942 |      6208021 |      6208021 |      5788703 |      5788703 |     13605109 |     13605109 |     12764871 |     12764871 |     29688692 |     29688692 |     27887353 |     27887353 |
dl1.writebacks                                4060 |         4060 |         3413 |         3413 |        11685 |        11685 |        10295 |        10295 |        33293 |        33293 |        29549 |        29549 |        85404 |        85404 |        78022 |        78022 |       212719 |       212719 |       194743 |       194743 |       503841 |       503841 |       466771 |       466771 |      1170454 |      1170454 |      1088599 |      1088599 |      2646492 |      2646492 |      2480483 |      2480483 |      5930249 |      5930249 |      5562888 |      5562888 |     13043978 |     13043978 |     12312611 |     12312611 |     28553551 |     28553551 |     26982876 |     26982876 |
dl1.invalidations                                0 |            0 |            0 |            0 |            0 |            0 |            0 |            0 |            0 |            0 |            0 |            0 |            0 |            0 |            0 |            0 |            0 |            0 |            0 |            0 |            0 |            0 |            0 |            0 |            0 |            0 |            0 |            0 |            0 |            0 |            0 |            0 |            0 |            0 |            0 |            0 |            0 |            0 |            0 |            0 |            0 |            0 |            0 |            0 |
dl1.miss_rate                               0.0213 |       0.0213 |       0.0183 |       0.0183 |       0.0272 |       0.0272 |       0.0240 |       0.0240 |       0.0350 |       0.0350 |       0.0311 |       0.0311 |       0.0416 |       0.0416 |       0.0378 |       0.0378 |       0.0482 |       0.0482 |       0.0440 |       0.0440 |       0.0537 |       0.0537 |       0.0495 |       0.0495 |       0.0588 |       0.0588 |       0.0544 |       0.0544 |       0.0630 |       0.0630 |       0.0587 |       0.0587 |       0.0671 |       0.0671 |       0.0625 |       0.0625 |       0.0704 |       0.0704 |       0.0660 |       0.0660 |       0.0735 |       0.0735 |       0.0691 |       0.0691 |
dl1.repl_rate                               0.0202 |       0.0202 |       0.0172 |       0.0172 |       0.0267 |       0.0267 |       0.0235 |       0.0235 |       0.0348 |       0.0348 |       0.0309 |       0.0309 |       0.0414 |       0.0414 |       0.0377 |       0.0377 |       0.0482 |       0.0482 |       0.0440 |       0.0440 |       0.0537 |       0.0537 |       0.0495 |       0.0495 |       0.0588 |       0.0588 |       0.0544 |       0.0544 |       0.0630 |       0.0630 |       0.0587 |       0.0587 |       0.0671 |       0.0671 |       0.0625 |       0.0625 |       0.0704 |       0.0704 |       0.0660 |       0.0660 |       0.0735 |       0.0735 |       0.0691 |       0.0691 |
dl1.wb_rate                                 0.0173 |       0.0173 |       0.0146 |       0.0146 |       0.0235 |       0.0235 |       0.0207 |       0.0207 |       0.0315 |       0.0315 |       0.0280 |       0.0280 |       0.0381 |       0.0381 |       0.0348 |       0.0348 |       0.0449 |       0.0449 |       0.0411 |       0.0411 |       0.0504 |       0.0504 |       0.0467 |       0.0467 |       0.0556 |       0.0556 |       0.0517 |       0.0517 |       0.0599 |       0.0599 |       0.0562 |       0.0562 |       0.0641 |       0.0641 |       0.0601 |       0.0601 |       0.0674 |       0.0674 |       0.0637 |       0.0637 |       0.0707 |       0.0707 |       0.0668 |       0.0668 |
dl1.inv_rate                                0.0000 |       0.0000 |       0.0000 |       0.0000 |       0.0000 |       0.0000 |       0.0000 |       0.0000 |       0.0000 |       0.0000 |       0.0000 |       0.0000 |       0.0000 |       0.0000 |       0.0000 |       0.0000 |       0.0000 |       0.0000 |       0.0000 |       0.0000 |       0.0000 |       0.0000 |       0.0000 |       0.0000 |       0.0000 |       0.0000 |       0.0000 |       0.0000 |       0.0000 |       0.0000 |       0.0000 |       0.0000 |       0.0000 |       0.0000 |       0.0000 |       0.0000 |       0.0000 |       0.0000 |       0.0000 |       0.0000 |       0.0000 |       0.0000 |       0.0000 |       0.0000 |
dl2.accesses                                  9558 |         9558 |         8120 |         8120 |        25755 |        25755 |        22668 |        22668 |        70874 |        70874 |        62861 |        62861 |       179002 |       179002 |       163220 |       163220 |       441944 |       441944 |       403757 |       403757 |      1040821 |      1040821 |       961866 |       961866 |      2408427 |      2408427 |      2233993 |      2233993 |      5429051 |      5429051 |      5074131 |      5074131 |     12139120 |     12139120 |     11352328 |     11352328 |     26649937 |     26649937 |     25078219 |     25078219 |     58243093 |     58243093 |     54870966 |     54870966 |
dl2.hits                                      7657 |         7657 |         6261 |         6261 |        22827 |        22827 |        19794 |        19794 |        65895 |        65895 |        57942 |        57942 |       169919 |       169919 |       154201 |       154201 |       424669 |       424669 |       386546 |       386546 |      1007163 |      1007163 |       928272 |       928272 |      2341999 |      2339479 |      2167631 |      2136610 |      5294571 |      5070663 |      4886204 |      4747641 |     11419857 |     11071927 |     10699308 |     10380725 |     24514272 |     23546504 |     23136959 |     22128485 |     52033555 |     49442719 |     48973188 |     46610495 |
dl2.misses                                    1901 |         1901 |         1859 |         1859 |         2928 |         2928 |         2874 |         2874 |         4979 |         4979 |         4919 |         4919 |         9083 |         9083 |         9019 |         9019 |        17275 |        17275 |        17211 |        17211 |        33658 |        33658 |        33594 |        33594 |        66428 |        68948 |        66362 |        97383 |       134480 |       358388 |       187927 |       326490 |       719263 |      1067193 |       653020 |       971603 |      2135665 |      3103433 |      1941260 |      2949734 |      6209538 |      8800374 |      5897778 |      8260471 |
dl2.replacements                               267 |          267 |            0 |            0 |          263 |          263 |            0 |            0 |          291 |          291 |            0 |            0 |          298 |          298 |            0 |            0 |          298 |          298 |            0 |            0 |          298 |          298 |            0 |            0 |          300 |         4494 |            0 |        31847 |         4490 |       292852 |        56855 |       260954 |       588191 |      1001657 |       521948 |       906067 |      2004593 |      3037897 |      1810188 |      2884198 |      6078466 |      8734838 |      5766706 |      8194935 |
dl2.writebacks                                 152 |          152 |            0 |            0 |          144 |          144 |            0 |            0 |          165 |          165 |            0 |            0 |          169 |          169 |            0 |            0 |          169 |          169 |            0 |            0 |          169 |          169 |            0 |            0 |          169 |         4363 |            0 |        31118 |         4361 |       228280 |        56126 |       194540 |       458064 |       853973 |       389240 |       757057 |      1709246 |      2691006 |      1512354 |      2536687 |      5385331 |      7959665 |      5072737 |      7419972 |
dl2.invalidations                                0 |            0 |            0 |            0 |            0 |            0 |            0 |            0 |            0 |            0 |            0 |            0 |            0 |            0 |            0 |            0 |            0 |            0 |            0 |            0 |            0 |            0 |            0 |            0 |            0 |            0 |            0 |            0 |            0 |            0 |            0 |            0 |            0 |            0 |            0 |            0 |            0 |            0 |            0 |            0 |            0 |            0 |            0 |            0 |
dl2.miss_rate                               0.1989 |       0.1989 |       0.2289 |       0.2289 |       0.1137 |       0.1137 |       0.1268 |       0.1268 |       0.0703 |       0.0703 |       0.0783 |       0.0783 |       0.0507 |       0.0507 |       0.0553 |       0.0553 |       0.0391 |       0.0391 |       0.0426 |       0.0426 |       0.0323 |       0.0323 |       0.0349 |       0.0349 |       0.0276 |       0.0286 |       0.0297 |       0.0436 |       0.0248 |       0.0660 |       0.0370 |       0.0643 |       0.0593 |       0.0879 |       0.0575 |       0.0856 |       0.0801 |       0.1165 |       0.0774 |       0.1176 |       0.1066 |       0.1511 |       0.1075 |       0.1505 |
dl2.repl_rate                               0.0279 |       0.0279 |       0.0000 |       0.0000 |       0.0102 |       0.0102 |       0.0000 |       0.0000 |       0.0041 |       0.0041 |       0.0000 |       0.0000 |       0.0017 |       0.0017 |       0.0000 |       0.0000 |       0.0007 |       0.0007 |       0.0000 |       0.0000 |       0.0003 |       0.0003 |       0.0000 |       0.0000 |       0.0001 |       0.0019 |       0.0000 |       0.0143 |       0.0008 |       0.0539 |       0.0112 |       0.0514 |       0.0485 |       0.0825 |       0.0460 |       0.0798 |       0.0752 |       0.1140 |       0.0722 |       0.1150 |       0.1044 |       0.1500 |       0.1051 |       0.1493 |
dl2.wb_rate                                 0.0159 |       0.0159 |       0.0000 |       0.0000 |       0.0056 |       0.0056 |       0.0000 |       0.0000 |       0.0023 |       0.0023 |       0.0000 |       0.0000 |       0.0009 |       0.0009 |       0.0000 |       0.0000 |       0.0004 |       0.0004 |       0.0000 |       0.0000 |       0.0002 |       0.0002 |       0.0000 |       0.0000 |       0.0001 |       0.0018 |       0.0000 |       0.0139 |       0.0008 |       0.0420 |       0.0111 |       0.0383 |       0.0377 |       0.0703 |       0.0343 |       0.0667 |       0.0641 |       0.1010 |       0.0603 |       0.1012 |       0.0925 |       0.1367 |       0.0924 |       0.1352 |
dl2.inv_rate                                0.0000 |       0.0000 |       0.0000 |       0.0000 |       0.0000 |       0.0000 |       0.0000 |       0.0000 |       0.0000 |       0.0000 |       0.0000 |       0.0000 |       0.0000 |       0.0000 |       0.0000 |       0.0000 |       0.0000 |       0.0000 |       0.0000 |       0.0000 |       0.0000 |       0.0000 |       0.0000 |       0.0000 |       0.0000 |       0.0000 |       0.0000 |       0.0000 |       0.0000 |       0.0000 |       0.0000 |       0.0000 |       0.0000 |       0.0000 |       0.0000 |       0.0000 |       0.0000 |       0.0000 |       0.0000 |       0.0000 |       0.0000 |       0.0000 |       0.0000 |       0.0000 |
itlb.accesses                               868489 |       868489 |       868489 |       868489 |      1867503 |      1867503 |      1867503 |      1867503 |      4000499 |      4000499 |      4000499 |      4000499 |      8532667 |      8532667 |      8532667 |      8532667 |     18154401 |     18154401 |     18154401 |     18154401 |     38442364 |     38442364 |     38442364 |     38442364 |     81265370 |     81265370 |     81265370 |     81265370 |    171085994 |    171085994 |    171085994 |    171085994 |    359770545 |    359770545 |    359770545 |    359770545 |    753717729 |    753717729 |    753717729 |    753717729 |   1577777152 |   1577777152 |   1577777152 |   1577777152 |
itlb.hits                                   868480 |       868480 |       868480 |       868480 |      1867494 |      1867494 |      1867494 |      1867494 |      4000490 |      4000490 |      4000490 |      4000490 |      8532658 |      8532658 |      8532658 |      8532658 |     18154392 |     18154392 |     18154392 |     18154392 |     38442355 |     38442355 |     38442355 |     38442355 |     81265361 |     81265361 |     81265361 |     81265361 |    171085985 |    171085985 |    171085985 |    171085985 |    359770536 |    359770536 |    359770536 |    359770536 |    753717720 |    753717720 |    753717720 |    753717720 |   1577777143 |   1577777143 |   1577777143 |   1577777143 |
itlb.misses                                      9 |            9 |            9 |            9 |            9 |            9 |            9 |            9 |            9 |            9 |            9 |            9 |            9 |            9 |            9 |            9 |            9 |            9 |            9 |            9 |            9 |            9 |            9 |            9 |            9 |            9 |            9 |            9 |            9 |            9 |            9 |            9 |            9 |            9 |            9 |            9 |            9 |            9 |            9 |            9 |            9 |            9 |            9 |            9 |
itlb.replacements                                0 |            0 |            0 |            0 |            0 |            0 |            0 |            0 |            0 |            0 |            0 |            0 |            0 |            0 |            0 |            0 |            0 |            0 |            0 |            0 |            0 |            0 |            0 |            0 |            0 |            0 |            0 |            0 |            0 |            0 |            0 |            0 |            0 |            0 |            0 |            0 |            0 |            0 |            0 |            0 |            0 |            0 |            0 |            0 |
itlb.writebacks                                  0 |            0 |            0 |            0 |            0 |            0 |            0 |            0 |            0 |            0 |            0 |            0 |            0 |            0 |            0 |            0 |            0 |            0 |            0 |            0 |            0 |            0 |            0 |            0 |            0 |            0 |            0 |            0 |            0 |            0 |            0 |            0 |            0 |            0 |            0 |            0 |            0 |            0 |            0 |            0 |            0 |            0 |            0 |            0 |
itlb.invalidations                               0 |            0 |            0 |            0 |            0 |            0 |            0 |            0 |            0 |            0 |            0 |            0 |            0 |            0 |            0 |            0 |            0 |            0 |            0 |            0 |            0 |            0 |            0 |            0 |            0 |            0 |            0 |            0 |            0 |            0 |            0 |            0 |            0 |            0 |            0 |            0 |            0 |            0 |            0 |            0 |            0 |            0 |            0 |            0 |
itlb.miss_rate                              0.0000 |       0.0000 |       0.0000 |       0.0000 |       0.0000 |       0.0000 |       0.0000 |       0.0000 |       0.0000 |       0.0000 |       0.0000 |       0.0000 |       0.0000 |       0.0000 |       0.0000 |       0.0000 |       0.0000 |       0.0000 |       0.0000 |       0.0000 |       0.0000 |       0.0000 |       0.0000 |       0.0000 |       0.0000 |       0.0000 |       0.0000 |       0.0000 |       0.0000 |       0.0000 |       0.0000 |       0.0000 |       0.0000 |       0.0000 |       0.0000 |       0.0000 |       0.0000 |       0.0000 |       0.0000 |       0.0000 |       0.0000 |       0.0000 |       0.0000 |       0.0000 |
itlb.repl_rate                              0.0000 |       0.0000 |       0.0000 |       0.0000 |       0.0000 |       0.0000 |       0.0000 |       0.0000 |       0.0000 |       0.0000 |       0.0000 |       0.0000 |       0.0000 |       0.0000 |       0.0000 |       0.0000 |       0.0000 |       0.0000 |       0.0000 |       0.0000 |       0.0000 |       0.0000 |       0.0000 |       0.0000 |       0.0000 |       0.0000 |       0.0000 |       0.0000 |       0.0000 |       0.0000 |       0.0000 |       0.0000 |       0.0000 |       0.0000 |       0.0000 |       0.0000 |       0.0000 |       0.0000 |       0.0000 |       0.0000 |       0.0000 |       0.0000 |       0.0000 |       0.0000 |
itlb.wb_rate                                0.0000 |       0.0000 |       0.0000 |       0.0000 |       0.0000 |       0.0000 |       0.0000 |       0.0000 |       0.0000 |       0.0000 |       0.0000 |       0.0000 |       0.0000 |       0.0000 |       0.0000 |       0.0000 |       0.0000 |       0.0000 |       0.0000 |       0.0000 |       0.0000 |       0.0000 |       0.0000 |       0.0000 |       0.0000 |       0.0000 |       0.0000 |       0.0000 |       0.0000 |       0.0000 |       0.0000 |       0.0000 |       0.0000 |       0.0000 |       0.0000 |       0.0000 |       0.0000 |       0.0000 |       0.0000 |       0.0000 |       0.0000 |       0.0000 |       0.0000 |       0.0000 |
itlb.inv_rate                               0.0000 |       0.0000 |       0.0000 |       0.0000 |       0.0000 |       0.0000 |       0.0000 |       0.0000 |       0.0000 |       0.0000 |       0.0000 |       0.0000 |       0.0000 |       0.0000 |       0.0000 |       0.0000 |       0.0000 |       0.0000 |       0.0000 |       0.0000 |       0.0000 |       0.0000 |       0.0000 |       0.0000 |       0.0000 |       0.0000 |       0.0000 |       0.0000 |       0.0000 |       0.0000 |       0.0000 |       0.0000 |       0.0000 |       0.0000 |       0.0000 |       0.0000 |       0.0000 |       0.0000 |       0.0000 |       0.0000 |       0.0000 |       0.0000 |       0.0000 |       0.0000 |
dtlb.accesses                               234043 |       234043 |       234043 |       234043 |       497280 |       497280 |       497280 |       497280 |      1056490 |      1056490 |      1056490 |      1056490 |      2239208 |      2239208 |      2239208 |      2239208 |      4739345 |      4739345 |      4739345 |      4739345 |      9992405 |      9992405 |      9992405 |      9992405 |     21040515 |     21040515 |     21040515 |     21040515 |     44151815 |     44151815 |     44151815 |     44151815 |     92555280 |     92555280 |     92555280 |     92555280 |    193387397 |    193387397 |    193387397 |    193387397 |    403743234 |    403743234 |    403743234 |    403743234 |
dtlb.hits                                   234027 |       234027 |       234027 |       234027 |       497256 |       497256 |       497256 |       497256 |      1056450 |      1056450 |      1056450 |      1056450 |      2239136 |      2239136 |      2239136 |      2239136 |      4739198 |      4739198 |      4739198 |      4739198 |      9991569 |      9991569 |      9991569 |      9991569 |     20983469 |     20983469 |     20983469 |     20983469 |     43800322 |     43800322 |     43800322 |     43800322 |     91260909 |     91260909 |     91260909 |     91260909 |    189533541 |    189533541 |    189533541 |    189533541 |    393444453 |    393444453 |    393444453 |    393444453 |
dtlb.misses                                     16 |           16 |           16 |           16 |           24 |           24 |           24 |           24 |           40 |           40 |           40 |           40 |           72 |           72 |           72 |           72 |          147 |          147 |          147 |          147 |          836 |          836 |          836 |          836 |        57046 |        57046 |        57046 |        57046 |       351493 |       351493 |       351493 |       351493 |      1294371 |      1294371 |      1294371 |      1294371 |      3853856 |      3853856 |      3853856 |      3853856 |     10298781 |     10298781 |     10298781 |     10298781 |
dtlb.replacements                                0 |            0 |            0 |            0 |            0 |            0 |            0 |            0 |            0 |            0 |            0 |            0 |            0 |            0 |            0 |            0 |           19 |           19 |           19 |           19 |          708 |          708 |          708 |          708 |        56918 |        56918 |        56918 |        56918 |       351365 |       351365 |       351365 |       351365 |      1294243 |      1294243 |      1294243 |      1294243 |      3853728 |      3853728 |      3853728 |      3853728 |     10298653 |     10298653 |     10298653 |     10298653 |
dtlb.writebacks                                  0 |            0 |            0 |            0 |            0 |            0 |            0 |            0 |            0 |            0 |            0 |            0 |            0 |            0 |            0 |            0 |           16 |           16 |           16 |           16 |          581 |          581 |          581 |          581 |        53833 |        53833 |        53833 |        53833 |       332617 |       332617 |       332617 |       332617 |      1234883 |      1234883 |      1234883 |      1234883 |      3704511 |      3704511 |      3704511 |      3704511 |      9963311 |      9963311 |      9963311 |      9963311 |
dtlb.invalidations                               0 |            0 |            0 |            0 |            0 |            0 |            0 |            0 |            0 |            0 |            0 |            0 |            0 |            0 |            0 |            0 |            0 |            0 |            0 |            0 |            0 |            0 |            0 |            0 |            0 |            0 |            0 |            0 |            0 |            0 |            0 |            0 |            0 |            0 |            0 |            0 |            0 |            0 |            0 |            0 |            0 |            0 |            0 |            0 |
dtlb.miss_rate                              0.0001 |       0.0001 |       0.0001 |       0.0001 |       0.0000 |       0.0000 |       0.0000 |       0.0000 |       0.0000 |       0.0000 |       0.0000 |       0.0000 |       0.0000 |       0.0000 |       0.0000 |       0.0000 |       0.0000 |       0.0000 |       0.0000 |       0.0000 |       0.0001 |       0.0001 |       0.0001 |       0.0001 |       0.0027 |       0.0027 |       0.0027 |       0.0027 |       0.0080 |       0.0080 |       0.0080 |       0.0080 |       0.0140 |       0.0140 |       0.0140 |       0.0140 |       0.0199 |       0.0199 |       0.0199 |       0.0199 |       0.0255 |       0.0255 |       0.0255 |       0.0255 |
dtlb.repl_rate                              0.0000 |       0.0000 |       0.0000 |       0.0000 |       0.0000 |       0.0000 |       0.0000 |       0.0000 |       0.0000 |       0.0000 |       0.0000 |       0.0000 |       0.0000 |       0.0000 |       0.0000 |       0.0000 |       0.0000 |       0.0000 |       0.0000 |       0.0000 |       0.0001 |       0.0001 |       0.0001 |       0.0001 |       0.0027 |       0.0027 |       0.0027 |       0.0027 |       0.0080 |       0.0080 |       0.0080 |       0.0080 |       0.0140 |       0.0140 |       0.0140 |       0.0140 |       0.0199 |       0.0199 |       0.0199 |       0.0199 |       0.0255 |       0.0255 |       0.0255 |       0.0255 |
dtlb.wb_rate                                0.0000 |       0.0000 |       0.0000 |       0.0000 |       0.0000 |       0.0000 |       0.0000 |       0.0000 |       0.0000 |       0.0000 |       0.0000 |       0.0000 |       0.0000 |       0.0000 |       0.0000 |       0.0000 |       0.0000 |       0.0000 |       0.0000 |       0.0000 |       0.0001 |       0.0001 |       0.0001 |       0.0001 |       0.0026 |       0.0026 |       0.0026 |       0.0026 |       0.0075 |       0.0075 |       0.0075 |       0.0075 |       0.0133 |       0.0133 |       0.0133 |       0.0133 |       0.0192 |       0.0192 |       0.0192 |       0.0192 |       0.0247 |       0.0247 |       0.0247 |       0.0247 |
dtlb.inv_rate                               0.0000 |       0.0000 |       0.0000 |       0.0000 |       0.0000 |       0.0000 |       0.0000 |       0.0000 |       0.0000 |       0.0000 |       0.0000 |       0.0000 |       0.0000 |       0.0000 |       0.0000 |       0.0000 |       0.0000 |       0.0000 |       0.0000 |       0.0000 |       0.0000 |       0.0000 |       0.0000 |       0.0000 |       0.0000 |       0.0000 |       0.0000 |       0.0000 |       0.0000 |       0.0000 |       0.0000 |       0.0000 |       0.0000 |       0.0000 |       0.0000 |       0.0000 |       0.0000 |       0.0000 |       0.0000 |       0.0000 |       0.0000 |       0.0000 |       0.0000 |       0.0000 |
ld_text_base                            0x00400000 |   0x00400000 |   0x00400000 |   0x00400000 |   0x00400000 |   0x00400000 |   0x00400000 |   0x00400000 |   0x00400000 |   0x00400000 |   0x00400000 |   0x00400000 |   0x00400000 |   0x00400000 |   0x00400000 |   0x00400000 |   0x00400000 |   0x00400000 |   0x00400000 |   0x00400000 |   0x00400000 |   0x00400000 |   0x00400000 |   0x00400000 |   0x00400000 |   0x00400000 |   0x00400000 |   0x00400000 |   0x00400000 |   0x00400000 |   0x00400000 |   0x00400000 |   0x00400000 |   0x00400000 |   0x00400000 |   0x00400000 |   0x00400000 |   0x00400000 |   0x00400000 |   0x00400000 |   0x00400000 |   0x00400000 |   0x00400000 |   0x00400000 |
ld_text_size                                 74304 |        74304 |        74304 |        74304 |        74336 |        74336 |        74336 |        74336 |        74352 |        74352 |        74352 |        74352 |        74368 |        74368 |        74368 |        74368 |        74368 |        74368 |        74368 |        74368 |        74368 |        74368 |        74368 |        74368 |        74368 |        74368 |        74368 |        74368 |        74368 |        74368 |        74368 |        74368 |        74368 |        74368 |        74368 |        74368 |        74368 |        74368 |        74368 |        74368 |        74368 |        74368 |        74368 |        74368 |
ld_data_base                            0x10000000 |   0x10000000 |   0x10000000 |   0x10000000 |   0x10000000 |   0x10000000 |   0x10000000 |   0x10000000 |   0x10000000 |   0x10000000 |   0x10000000 |   0x10000000 |   0x10000000 |   0x10000000 |   0x10000000 |   0x10000000 |   0x10000000 |   0x10000000 |   0x10000000 |   0x10000000 |   0x10000000 |   0x10000000 |   0x10000000 |   0x10000000 |   0x10000000 |   0x10000000 |   0x10000000 |   0x10000000 |   0x10000000 |   0x10000000 |   0x10000000 |   0x10000000 |   0x10000000 |   0x10000000 |   0x10000000 |   0x10000000 |   0x10000000 |   0x10000000 |   0x10000000 |   0x10000000 |   0x10000000 |   0x10000000 |   0x10000000 |   0x10000000 |
ld_data_size                                  8192 |         8192 |         8192 |         8192 |         8192 |         8192 |         8192 |         8192 |         8192 |         8192 |         8192 |         8192 |         8192 |         8192 |         8192 |         8192 |         8192 |         8192 |         8192 |         8192 |         8192 |         8192 |         8192 |         8192 |         8192 |         8192 |         8192 |         8192 |         8192 |         8192 |         8192 |         8192 |         8192 |         8192 |         8192 |         8192 |         8192 |         8192 |         8192 |         8192 |         8192 |         8192 |         8192 |         8192 |
ld_stack_base                           0x7fffc000 |   0x7fffc000 |   0x7fffc000 |   0x7fffc000 |   0x7fffc000 |   0x7fffc000 |   0x7fffc000 |   0x7fffc000 |   0x7fffc000 |   0x7fffc000 |   0x7fffc000 |   0x7fffc000 |   0x7fffc000 |   0x7fffc000 |   0x7fffc000 |   0x7fffc000 |   0x7fffc000 |   0x7fffc000 |   0x7fffc000 |   0x7fffc000 |   0x7fffc000 |   0x7fffc000 |   0x7fffc000 |   0x7fffc000 |   0x7fffc000 |   0x7fffc000 |   0x7fffc000 |   0x7fffc000 |   0x7fffc000 |   0x7fffc000 |   0x7fffc000 |   0x7fffc000 |   0x7fffc000 |   0x7fffc000 |   0x7fffc000 |   0x7fffc000 |   0x7fffc000 |   0x7fffc000 |   0x7fffc000 |   0x7fffc000 |   0x7fffc000 |   0x7fffc000 |   0x7fffc000 |   0x7fffc000 |
ld_stack_size                                16384 |        16384 |        16384 |        16384 |        16384 |        16384 |        16384 |        16384 |        16384 |        16384 |        16384 |        16384 |        16384 |        16384 |        16384 |        16384 |        16384 |        16384 |        16384 |        16384 |        16384 |        16384 |        16384 |        16384 |        16384 |        16384 |        16384 |        16384 |        16384 |        16384 |        16384 |        16384 |        16384 |        16384 |        16384 |        16384 |        16384 |        16384 |        16384 |        16384 |        16384 |        16384 |        16384 |        16384 |
ld_prog_entry                           0x00400140 |   0x00400140 |   0x00400140 |   0x00400140 |   0x00400140 |   0x00400140 |   0x00400140 |   0x00400140 |   0x00400140 |   0x00400140 |   0x00400140 |   0x00400140 |   0x00400140 |   0x00400140 |   0x00400140 |   0x00400140 |   0x00400140 |   0x00400140 |   0x00400140 |   0x00400140 |   0x00400140 |   0x00400140 |   0x00400140 |   0x00400140 |   0x00400140 |   0x00400140 |   0x00400140 |   0x00400140 |   0x00400140 |   0x00400140 |   0x00400140 |   0x00400140 |   0x00400140 |   0x00400140 |   0x00400140 |   0x00400140 |   0x00400140 |   0x00400140 |   0x00400140 |   0x00400140 |   0x00400140 |   0x00400140 |   0x00400140 |   0x00400140 |
ld_environ_base                         0x7fff8000 |   0x7fff8000 |   0x7fff8000 |   0x7fff8000 |   0x7fff8000 |   0x7fff8000 |   0x7fff8000 |   0x7fff8000 |   0x7fff8000 |   0x7fff8000 |   0x7fff8000 |   0x7fff8000 |   0x7fff8000 |   0x7fff8000 |   0x7fff8000 |   0x7fff8000 |   0x7fff8000 |   0x7fff8000 |   0x7fff8000 |   0x7fff8000 |   0x7fff8000 |   0x7fff8000 |   0x7fff8000 |   0x7fff8000 |   0x7fff8000 |   0x7fff8000 |   0x7fff8000 |   0x7fff8000 |   0x7fff8000 |   0x7fff8000 |   0x7fff8000 |   0x7fff8000 |   0x7fff8000 |   0x7fff8000 |   0x7fff8000 |   0x7fff8000 |   0x7fff8000 |   0x7fff8000 |   0x7fff8000 |   0x7fff8000 |   0x7fff8000 |   0x7fff8000 |   0x7fff8000 |   0x7fff8000 |
ld_target_big_endian                             0 |            0 |            0 |            0 |            0 |            0 |            0 |            0 |            0 |            0 |            0 |            0 |            0 |            0 |            0 |            0 |            0 |            0 |            0 |            0 |            0 |            0 |            0 |            0 |            0 |            0 |            0 |            0 |            0 |            0 |            0 |            0 |            0 |            0 |            0 |            0 |            0 |            0 |            0 |            0 |            0 |            0 |            0 |            0 |
mem.page_count                                  35 |           35 |           35 |           35 |           43 |           43 |           43 |           43 |           59 |           59 |           59 |           59 |           91 |           91 |           91 |           91 |          155 |          155 |          155 |          155 |          283 |          283 |          283 |          283 |          539 |          539 |          539 |          539 |         1051 |         1051 |         1051 |         1051 |         2081 |         2081 |         2081 |         2081 |         4135 |         4135 |         4135 |         4135 |         8243 |         8243 |         8243 |         8243 |
mem.page_mem                                  140k |         140k |         140k |         140k |         172k |         172k |         172k |         172k |         236k |         236k |         236k |         236k |         364k |         364k |         364k |         364k |         620k |         620k |         620k |         620k |        1132k |        1132k |        1132k |        1132k |        2156k |        2156k |        2156k |        2156k |        4204k |        4204k |        4204k |        4204k |        8324k |        8324k |        8324k |        8324k |       16540k |       16540k |       16540k |       16540k |       32972k |       32972k |       32972k |       32972k |
mem.ptab_misses                                 35 |           35 |           35 |           35 |           43 |           43 |           43 |           43 |           59 |           59 |           59 |           59 |           91 |           91 |           91 |           91 |          155 |          155 |          155 |          155 |          283 |          283 |          283 |          283 |          539 |          539 |          539 |          539 |         1051 |         1051 |         1051 |         1051 |         9230 |         9230 |         9230 |         9230 |        23490 |        23490 |        23490 |        23490 |        64454 |        64454 |        64454 |        64454 |
mem.ptab_accesses                          4402456 |      4402456 |      4402456 |      4402456 |      8925178 |      8925178 |      8925178 |      8925178 |     18575678 |     18575678 |     18575678 |     18575678 |     39069882 |     39069882 |     39069882 |     39069882 |     82557092 |     82557092 |     82557092 |     82557092 |    174215064 |    174215064 |    174215064 |    174215064 |    367603308 |    367603308 |    367603308 |    367603308 |    773108404 |    773108404 |    773108404 |    773108404 |   1624653538 |   1624653538 |   1624653538 |   1624653538 |   3402106508 |   3402106508 |   3402106508 |   3402106508 |   7119055874 |   7119055874 |   7119055874 |   7119055874 |
mem.ptab_miss_rate                          0.0000 |       0.0000 |       0.0000 |       0.0000 |       0.0000 |       0.0000 |       0.0000 |       0.0000 |       0.0000 |       0.0000 |       0.0000 |       0.0000 |       0.0000 |       0.0000 |       0.0000 |       0.0000 |       0.0000 |       0.0000 |       0.0000 |       0.0000 |       0.0000 |       0.0000 |       0.0000 |       0.0000 |       0.0000 |       0.0000 |       0.0000 |       0.0000 |       0.0000 |       0.0000 |       0.0000 |       0.0000 |       0.0000 |       0.0000 |       0.0000 |       0.0000 |       0.0000 |       0.0000 |       0.0000 |       0.0000 |       0.0000 |       0.0000 |       0.0000 |       0.0000 |
-------------------------------------------------------------------------------------------------
sim-bpred                                     4096 |         4096 |         4096 |         4096 |         4096 |         4096 |         4096 |         8192 |         8192 |         8192 |         8192 |         8192 |         8192 |         8192 |        16384 |        16384 |        16384 |        16384 |        16384 |        16384 |        16384 |        32768 |        32768 |        32768 |        32768 |        32768 |        32768 |        32768 |        65536 |        65536 |        65536 |        65536 |        65536 |        65536 |        65536 |       131072 |       131072 |       131072 |       131072 |       131072 |       131072 |       131072 |       262144 |       262144 |       262144 |       262144 |       262144 |       262144 |       262144 |       524288 |       524288 |       524288 |       524288 |       524288 |       524288 |       524288 |      1048576 |      1048576 |      1048576 |      1048576 |      1048576 |      1048576 |      1048576 |      2097152 |      2097152 |      2097152 |      2097152 |      2097152 |      2097152 |      2097152 |      4194304 |      4194304 |      4194304 |      4194304 |      4194304 |      4194304 |      4194304 |
-bpred bimod -bpred:bimod 512
-bpred bimod -bpred:bimod 1024
-bpred bimod -bpred:bimod 2048
-bpred 2lev -bpred:2lev 1 512 10 1
-bpred 2lev -bpred:2lev 1 1024 10 1
-bpred 2lev -bpred:2lev 1 2048 10 1
-bpred 2lev -bpred:2lev 1 4096 10 1
-------------------------------------------------------------------------------------------------
sim_num_insn                                868489 |       868489 |       868489 |       868489 |       868489 |       868489 |       868489 |      1867503 |      1867503 |      1867503 |      1867503 |      1867503 |      1867503 |      1867503 |      4000499 |      4000499 |      4000499 |      4000499 |      4000499 |      4000499 |      4000499 |      8532667 |      8532667 |      8532667 |      8532667 |      8532667 |      8532667 |      8532667 |     18154401 |     18154401 |     18154401 |     18154401 |     18154401 |     18154401 |     18154401 |     38442364 |     38442364 |     38442364 |     38442364 |     38442364 |     38442364 |     38442364 |     81265370 |     81265370 |     81265370 |     81265370 |     81265370 |     81265370 |     81265370 |    171085994 |    171085994 |    171085994 |    171085994 |    171085994 |    171085994 |    171085994 |    359770545 |    359770545 |    359770545 |    359770545 |    359770545 |    359770545 |    359770545 |    753717729 |    753717729 |    753717729 |    753717729 |    753717729 |    753717729 |    753717729 |   1577777152 |   1577777152 |   1577777152 |   1577777152 |   1577777152 |   1577777152 |   1577777152 |
sim_num_refs                                217577 |       217577 |       217577 |       217577 |       217577 |       217577 |       217577 |       464430 |       464430 |       464430 |       464430 |       464430 |       464430 |       464430 |       990872 |       990872 |       990872 |       990872 |       990872 |       990872 |       990872 |      2108054 |      2108054 |      2108054 |      2108054 |      2108054 |      2108054 |      2108054 |      4477119 |      4477119 |      4477119 |      4477119 |      4477119 |      4477119 |      4477119 |      9468035 |      9468035 |      9468035 |      9468035 |      9468035 |      9468035 |      9468035 |     19991857 |     19991857 |     19991857 |     19991857 |     19991857 |     19991857 |     19991857 |     42054581 |     42054581 |     42054581 |     42054581 |     42054581 |     42054581 |     42054581 |     88360894 |     88360894 |     88360894 |     88360894 |     88360894 |     88360894 |     88360894 |    184998707 |    184998707 |    184998707 |    184998707 |    184998707 |    184998707 |    184998707 |    386965936 |    386965936 |    386965936 |    386965936 |    386965936 |    386965936 |    386965936 |
sim_elapsed_time                                 1 |            1 |            1 |            1 |            1 |            1 |            1 |            1 |            1 |            1 |            1 |            1 |            1 |            1 |            1 |            1 |            1 |            1 |            1 |            1 |            1 |            1 |            1 |            1 |            1 |            1 |            1 |            2 |            2 |            2 |            3 |            2 |            2 |            3 |            2 |            5 |            5 |            4 |            5 |            5 |            5 |            4 |           10 |           10 |           10 |           10 |           10 |           10 |           10 |           20 |           21 |           21 |           21 |           21 |           21 |           21 |           43 |           44 |           43 |           44 |           44 |           44 |           44 |           91 |           91 |           90 |           93 |           92 |           93 |           92 |          187 |          187 |          189 |          191 |          191 |          191 |          190 |
sim_inst_rate                          868489.0000 |  868489.0000 |  868489.0000 |  868489.0000 |  868489.0000 |  868489.0000 |  868489.0000 | 1867503.0000 | 1867503.0000 | 1867503.0000 | 1867503.0000 | 1867503.0000 | 1867503.0000 | 1867503.0000 | 4000499.0000 | 4000499.0000 | 4000499.0000 | 4000499.0000 | 4000499.0000 | 4000499.0000 | 4000499.0000 | 8532667.0000 | 8532667.0000 | 8532667.0000 | 8532667.0000 | 8532667.0000 | 8532667.0000 | 4266333.5000 | 9077200.5000 | 9077200.5000 | 6051467.0000 | 9077200.5000 | 9077200.5000 | 6051467.0000 | 9077200.5000 | 7688472.8000 | 7688472.8000 | 9610591.0000 | 7688472.8000 | 7688472.8000 | 7688472.8000 | 9610591.0000 | 8126537.0000 | 8126537.0000 | 8126537.0000 | 8126537.0000 | 8126537.0000 | 8126537.0000 | 8126537.0000 | 8554299.7000 | 8146952.0952 | 8146952.0952 | 8146952.0952 | 8146952.0952 | 8146952.0952 | 8146952.0952 | 8366756.8605 | 8176603.2955 | 8366756.8605 | 8176603.2955 | 8176603.2955 | 8176603.2955 | 8176603.2955 | 8282612.4066 | 8282612.4066 | 8374641.4333 | 8104491.7097 | 8192584.0109 | 8104491.7097 | 8192584.0109 | 8437310.9733 | 8437310.9733 | 8348027.2593 | 8260613.3613 | 8260613.3613 | 8260613.3613 | 8304090.2737 |
sim_num_branches                            154618 |       154618 |       154618 |       154618 |       154618 |       154618 |       154618 |       333274 |       333274 |       333274 |       333274 |       333274 |       333274 |       333274 |       715089 |       715089 |       715089 |       715089 |       715089 |       715089 |       715089 |      1527188 |      1527188 |      1527188 |      1527188 |      1527188 |      1527188 |      1527188 |      3252055 |      3252055 |      3252055 |      3252055 |      3252055 |      3252055 |      3252055 |      6891920 |      6891920 |      6891920 |      6891920 |      6891920 |      6891920 |      6891920 |     14577506 |     14577506 |     14577506 |     14577506 |     14577506 |     14577506 |     14577506 |     30711138 |     30711138 |     30711138 |     30711138 |     30711138 |     30711138 |     30711138 |     64606023 |     64606023 |     64606023 |     64606023 |     64606023 |     64606023 |     64606023 |    135423741 |    135423741 |    135423741 |    135423741 |    135423741 |    135423741 |    135423741 |    283581783 |    283581783 |    283581783 |    283581783 |    283581783 |    283581783 |    283581783 |
sim_IPB                                     5.6170 |       5.6170 |       5.6170 |       5.6170 |       5.6170 |       5.6170 |       5.6170 |       5.6035 |       5.6035 |       5.6035 |       5.6035 |       5.6035 |       5.6035 |       5.6035 |       5.5944 |       5.5944 |       5.5944 |       5.5944 |       5.5944 |       5.5944 |       5.5944 |       5.5872 |       5.5872 |       5.5872 |       5.5872 |       5.5872 |       5.5872 |       5.5872 |       5.5824 |       5.5824 |       5.5824 |       5.5824 |       5.5824 |       5.5824 |       5.5824 |       5.5779 |       5.5779 |       5.5779 |       5.5779 |       5.5779 |       5.5779 |       5.5779 |       5.5747 |       5.5747 |       5.5747 |       5.5747 |       5.5747 |       5.5747 |       5.5747 |       5.5708 |       5.5708 |       5.5708 |       5.5708 |       5.5708 |       5.5708 |       5.5708 |       5.5687 |       5.5687 |       5.5687 |       5.5687 |       5.5687 |       5.5687 |       5.5687 |       5.5656 |       5.5656 |       5.5656 |       5.5656 |       5.5656 |       5.5656 |       5.5656 |       5.5637 |       5.5637 |       5.5637 |       5.5637 |       5.5637 |       5.5637 |       5.5637 |
bpred_bimod.lookups                         154618 |       154618 |       154618 |xxxxxxxxxxxxx |xxxxxxxxxxxxx |xxxxxxxxxxxxx |xxxxxxxxxxxxx |       333274 |       333274 |       333274 |xxxxxxxxxxxxx |xxxxxxxxxxxxx |xxxxxxxxxxxxx |xxxxxxxxxxxxx |       715089 |       715089 |       715089 |xxxxxxxxxxxxx |xxxxxxxxxxxxx |xxxxxxxxxxxxx |xxxxxxxxxxxxx |      1527188 |      1527188 |      1527188 |xxxxxxxxxxxxx |xxxxxxxxxxxxx |xxxxxxxxxxxxx |xxxxxxxxxxxxx |      3252055 |      3252055 |      3252055 |xxxxxxxxxxxxx |xxxxxxxxxxxxx |xxxxxxxxxxxxx |xxxxxxxxxxxxx |      6891920 |      6891920 |      6891920 |xxxxxxxxxxxxx |xxxxxxxxxxxxx |xxxxxxxxxxxxx |xxxxxxxxxxxxx |     14577506 |     14577506 |     14577506 |xxxxxxxxxxxxx |xxxxxxxxxxxxx |xxxxxxxxxxxxx |xxxxxxxxxxxxx |     30711138 |     30711138 |     30711138 |xxxxxxxxxxxxx |xxxxxxxxxxxxx |xxxxxxxxxxxxx |xxxxxxxxxxxxx |     64606023 |     64606023 |     64606023 |xxxxxxxxxxxxx |xxxxxxxxxxxxx |xxxxxxxxxxxxx |xxxxxxxxxxxxx |    135423741 |    135423741 |    135423741 |xxxxxxxxxxxxx |xxxxxxxxxxxxx |xxxxxxxxxxxxx |xxxxxxxxxxxxx |    283581783 |    283581783 |    283581783 |
bpred_bimod.updates                         154618 |       154618 |       154618 |xxxxxxxxxxxxx |xxxxxxxxxxxxx |xxxxxxxxxxxxx |xxxxxxxxxxxxx |       333274 |       333274 |       333274 |xxxxxxxxxxxxx |xxxxxxxxxxxxx |xxxxxxxxxxxxx |xxxxxxxxxxxxx |       715089 |       715089 |       715089 |xxxxxxxxxxxxx |xxxxxxxxxxxxx |xxxxxxxxxxxxx |xxxxxxxxxxxxx |      1527188 |      1527188 |      1527188 |xxxxxxxxxxxxx |xxxxxxxxxxxxx |xxxxxxxxxxxxx |xxxxxxxxxxxxx |      3252055 |      3252055 |      3252055 |xxxxxxxxxxxxx |xxxxxxxxxxxxx |xxxxxxxxxxxxx |xxxxxxxxxxxxx |      6891920 |      6891920 |      6891920 |xxxxxxxxxxxxx |xxxxxxxxxxxxx |xxxxxxxxxxxxx |xxxxxxxxxxxxx |     14577506 |     14577506 |     14577506 |xxxxxxxxxxxxx |xxxxxxxxxxxxx |xxxxxxxxxxxxx |xxxxxxxxxxxxx |     30711138 |     30711138 |     30711138 |xxxxxxxxxxxxx |xxxxxxxxxxxxx |xxxxxxxxxxxxx |xxxxxxxxxxxxx |     64606023 |     64606023 |     64606023 |xxxxxxxxxxxxx |xxxxxxxxxxxxx |xxxxxxxxxxxxx |xxxxxxxxxxxxx |    135423741 |    135423741 |    135423741 |xxxxxxxxxxxxx |xxxxxxxxxxxxx |xxxxxxxxxxxxx |xxxxxxxxxxxxx |    283581783 |    283581783 |    283581783 |
bpred_bimod.addr_hits                       124086 |       124094 |       124094 |xxxxxxxxxxxxx |xxxxxxxxxxxxx |xxxxxxxxxxxxx |xxxxxxxxxxxxx |       266653 |       266659 |       266659 |xxxxxxxxxxxxx |xxxxxxxxxxxxx |xxxxxxxxxxxxx |xxxxxxxxxxxxx |       573223 |       573229 |       573230 |xxxxxxxxxxxxx |xxxxxxxxxxxxx |xxxxxxxxxxxxx |xxxxxxxxxxxxx |      1222193 |      1222199 |      1222202 |xxxxxxxxxxxxx |xxxxxxxxxxxxx |xxxxxxxxxxxxx |xxxxxxxxxxxxx |      2604656 |      2604662 |      2604665 |xxxxxxxxxxxxx |xxxxxxxxxxxxx |xxxxxxxxxxxxx |xxxxxxxxxxxxx |      5511975 |      5511982 |      5511984 |xxxxxxxxxxxxx |xxxxxxxxxxxxx |xxxxxxxxxxxxx |xxxxxxxxxxxxx |     11670273 |     11670280 |     11670282 |xxxxxxxxxxxxx |xxxxxxxxxxxxx |xxxxxxxxxxxxx |xxxxxxxxxxxxx |     24566361 |     24566368 |     24566370 |xxxxxxxxxxxxx |xxxxxxxxxxxxx |xxxxxxxxxxxxx |xxxxxxxxxxxxx |     51716139 |     51716145 |     51716146 |xxxxxxxxxxxxx |xxxxxxxxxxxxx |xxxxxxxxxxxxx |xxxxxxxxxxxxx |    108328693 |    108328699 |    108328700 |xxxxxxxxxxxxx |xxxxxxxxxxxxx |xxxxxxxxxxxxx |xxxxxxxxxxxxx |    226980341 |    226980347 |    226980348 |
bpred_bimod.dir_hits                        124208 |       124216 |       124217 |xxxxxxxxxxxxx |xxxxxxxxxxxxx |xxxxxxxxxxxxx |xxxxxxxxxxxxx |       266780 |       266786 |       266786 |xxxxxxxxxxxxx |xxxxxxxxxxxxx |xxxxxxxxxxxxx |xxxxxxxxxxxxx |       573349 |       573355 |       573356 |xxxxxxxxxxxxx |xxxxxxxxxxxxx |xxxxxxxxxxxxx |xxxxxxxxxxxxx |      1222317 |      1222323 |      1222326 |xxxxxxxxxxxxx |xxxxxxxxxxxxx |xxxxxxxxxxxxx |xxxxxxxxxxxxx |      2604780 |      2604786 |      2604789 |xxxxxxxxxxxxx |xxxxxxxxxxxxx |xxxxxxxxxxxxx |xxxxxxxxxxxxx |      5512102 |      5512109 |      5512111 |xxxxxxxxxxxxx |xxxxxxxxxxxxx |xxxxxxxxxxxxx |xxxxxxxxxxxxx |     11670399 |     11670406 |     11670408 |xxxxxxxxxxxxx |xxxxxxxxxxxxx |xxxxxxxxxxxxx |xxxxxxxxxxxxx |     24566487 |     24566494 |     24566496 |xxxxxxxxxxxxx |xxxxxxxxxxxxx |xxxxxxxxxxxxx |xxxxxxxxxxxxx |     51716277 |     51716283 |     51716284 |xxxxxxxxxxxxx |xxxxxxxxxxxxx |xxxxxxxxxxxxx |xxxxxxxxxxxxx |    108328832 |    108328838 |    108328839 |xxxxxxxxxxxxx |xxxxxxxxxxxxx |xxxxxxxxxxxxx |xxxxxxxxxxxxx |    226980480 |    226980486 |    226980487 |
bpred_bimod.misses                           30410 |        30402 |        30401 |xxxxxxxxxxxxx |xxxxxxxxxxxxx |xxxxxxxxxxxxx |xxxxxxxxxxxxx |        66494 |        66488 |        66488 |xxxxxxxxxxxxx |xxxxxxxxxxxxx |xxxxxxxxxxxxx |xxxxxxxxxxxxx |       141740 |       141734 |       141733 |xxxxxxxxxxxxx |xxxxxxxxxxxxx |xxxxxxxxxxxxx |xxxxxxxxxxxxx |       304871 |       304865 |       304862 |xxxxxxxxxxxxx |xxxxxxxxxxxxx |xxxxxxxxxxxxx |xxxxxxxxxxxxx |       647275 |       647269 |       647266 |xxxxxxxxxxxxx |xxxxxxxxxxxxx |xxxxxxxxxxxxx |xxxxxxxxxxxxx |      1379818 |      1379811 |      1379809 |xxxxxxxxxxxxx |xxxxxxxxxxxxx |xxxxxxxxxxxxx |xxxxxxxxxxxxx |      2907107 |      2907100 |      2907098 |xxxxxxxxxxxxx |xxxxxxxxxxxxx |xxxxxxxxxxxxx |xxxxxxxxxxxxx |      6144651 |      6144644 |      6144642 |xxxxxxxxxxxxx |xxxxxxxxxxxxx |xxxxxxxxxxxxx |xxxxxxxxxxxxx |     12889746 |     12889740 |     12889739 |xxxxxxxxxxxxx |xxxxxxxxxxxxx |xxxxxxxxxxxxx |xxxxxxxxxxxxx |     27094909 |     27094903 |     27094902 |xxxxxxxxxxxxx |xxxxxxxxxxxxx |xxxxxxxxxxxxx |xxxxxxxxxxxxx |     56601303 |     56601297 |     56601296 |
bpred_bimod.jr_hits                           4157 |         4157 |         4157 |xxxxxxxxxxxxx |xxxxxxxxxxxxx |xxxxxxxxxxxxx |xxxxxxxxxxxxx |         8261 |         8261 |         8261 |xxxxxxxxxxxxx |xxxxxxxxxxxxx |xxxxxxxxxxxxx |xxxxxxxxxxxxx |        16453 |        16453 |        16453 |xxxxxxxxxxxxx |xxxxxxxxxxxxx |xxxxxxxxxxxxx |xxxxxxxxxxxxx |        32837 |        32837 |        32837 |xxxxxxxxxxxxx |xxxxxxxxxxxxx |xxxxxxxxxxxxx |xxxxxxxxxxxxx |        65605 |        65605 |        65605 |xxxxxxxxxxxxx |xxxxxxxxxxxxx |xxxxxxxxxxxxx |xxxxxxxxxxxxx |       131141 |       131141 |       131141 |xxxxxxxxxxxxx |xxxxxxxxxxxxx |xxxxxxxxxxxxx |xxxxxxxxxxxxx |       262213 |       262213 |       262213 |xxxxxxxxxxxxx |xxxxxxxxxxxxx |xxxxxxxxxxxxx |xxxxxxxxxxxxx |       524357 |       524357 |       524357 |xxxxxxxxxxxxx |xxxxxxxxxxxxx |xxxxxxxxxxxxx |xxxxxxxxxxxxx |      1048648 |      1048648 |      1048648 |xxxxxxxxxxxxx |xxxxxxxxxxxxx |xxxxxxxxxxxxx |xxxxxxxxxxxxx |      2097224 |      2097224 |      2097224 |xxxxxxxxxxxxx |xxxxxxxxxxxxx |xxxxxxxxxxxxx |xxxxxxxxxxxxx |      4194376 |      4194376 |      4194376 |
bpred_bimod.jr_seen                           4157 |         4157 |         4157 |xxxxxxxxxxxxx |xxxxxxxxxxxxx |xxxxxxxxxxxxx |xxxxxxxxxxxxx |         8262 |         8262 |         8262 |xxxxxxxxxxxxx |xxxxxxxxxxxxx |xxxxxxxxxxxxx |xxxxxxxxxxxxx |        16454 |        16454 |        16454 |xxxxxxxxxxxxx |xxxxxxxxxxxxx |xxxxxxxxxxxxx |xxxxxxxxxxxxx |        32838 |        32838 |        32838 |xxxxxxxxxxxxx |xxxxxxxxxxxxx |xxxxxxxxxxxxx |xxxxxxxxxxxxx |        65606 |        65606 |        65606 |xxxxxxxxxxxxx |xxxxxxxxxxxxx |xxxxxxxxxxxxx |xxxxxxxxxxxxx |       131142 |       131142 |       131142 |xxxxxxxxxxxxx |xxxxxxxxxxxxx |xxxxxxxxxxxxx |xxxxxxxxxxxxx |       262214 |       262214 |       262214 |xxxxxxxxxxxxx |xxxxxxxxxxxxx |xxxxxxxxxxxxx |xxxxxxxxxxxxx |       524358 |       524358 |       524358 |xxxxxxxxxxxxx |xxxxxxxxxxxxx |xxxxxxxxxxxxx |xxxxxxxxxxxxx |      1048649 |      1048649 |      1048649 |xxxxxxxxxxxxx |xxxxxxxxxxxxx |xxxxxxxxxxxxx |xxxxxxxxxxxxx |      2097225 |      2097225 |      2097225 |xxxxxxxxxxxxx |xxxxxxxxxxxxx |xxxxxxxxxxxxx |xxxxxxxxxxxxx |      4194377 |      4194377 |      4194377 |
bpred_bimod.jr_non_ras_hits.PP                   0 |            0 |            0 |xxxxxxxxxxxxx |xxxxxxxxxxxxx |xxxxxxxxxxxxx |xxxxxxxxxxxxx |            0 |            0 |            0 |xxxxxxxxxxxxx |xxxxxxxxxxxxx |xxxxxxxxxxxxx |xxxxxxxxxxxxx |            0 |            0 |            0 |xxxxxxxxxxxxx |xxxxxxxxxxxxx |xxxxxxxxxxxxx |xxxxxxxxxxxxx |            0 |            0 |            0 |xxxxxxxxxxxxx |xxxxxxxxxxxxx |xxxxxxxxxxxxx |xxxxxxxxxxxxx |            0 |            0 |            0 |xxxxxxxxxxxxx |xxxxxxxxxxxxx |xxxxxxxxxxxxx |xxxxxxxxxxxxx |            0 |            0 |            0 |xxxxxxxxxxxxx |xxxxxxxxxxxxx |xxxxxxxxxxxxx |xxxxxxxxxxxxx |            0 |            0 |            0 |xxxxxxxxxxxxx |xxxxxxxxxxxxx |xxxxxxxxxxxxx |xxxxxxxxxxxxx |            0 |            0 |            0 |xxxxxxxxxxxxx |xxxxxxxxxxxxx |xxxxxxxxxxxxx |xxxxxxxxxxxxx |            0 |            0 |            0 |xxxxxxxxxxxxx |xxxxxxxxxxxxx |xxxxxxxxxxxxx |xxxxxxxxxxxxx |            0 |            0 |            0 |xxxxxxxxxxxxx |xxxxxxxxxxxxx |xxxxxxxxxxxxx |xxxxxxxxxxxxx |            0 |            0 |            0 |
bpred_bimod.jr_non_ras_seen.PP                   0 |            0 |            0 |xxxxxxxxxxxxx |xxxxxxxxxxxxx |xxxxxxxxxxxxx |xxxxxxxxxxxxx |            0 |            0 |            0 |xxxxxxxxxxxxx |xxxxxxxxxxxxx |xxxxxxxxxxxxx |xxxxxxxxxxxxx |            0 |            0 |            0 |xxxxxxxxxxxxx |xxxxxxxxxxxxx |xxxxxxxxxxxxx |xxxxxxxxxxxxx |            0 |            0 |            0 |xxxxxxxxxxxxx |xxxxxxxxxxxxx |xxxxxxxxxxxxx |xxxxxxxxxxxxx |            0 |            0 |            0 |xxxxxxxxxxxxx |xxxxxxxxxxxxx |xxxxxxxxxxxxx |xxxxxxxxxxxxx |            0 |            0 |            0 |xxxxxxxxxxxxx |xxxxxxxxxxxxx |xxxxxxxxxxxxx |xxxxxxxxxxxxx |            0 |            0 |            0 |xxxxxxxxxxxxx |xxxxxxxxxxxxx |xxxxxxxxxxxxx |xxxxxxxxxxxxx |            0 |            0 |            0 |xxxxxxxxxxxxx |xxxxxxxxxxxxx |xxxxxxxxxxxxx |xxxxxxxxxxxxx |            1 |            1 |            1 |xxxxxxxxxxxxx |xxxxxxxxxxxxx |xxxxxxxxxxxxx |xxxxxxxxxxxxx |            1 |            1 |            1 |xxxxxxxxxxxxx |xxxxxxxxxxxxx |xxxxxxxxxxxxx |xxxxxxxxxxxxx |            1 |            1 |            1 |
bpred_bimod.bpred_addr_rate                 0.8025 |       0.8026 |       0.8026 |xxxxxxxxxxxxx |xxxxxxxxxxxxx |xxxxxxxxxxxxx |xxxxxxxxxxxxx |       0.8001 |       0.8001 |       0.8001 |xxxxxxxxxxxxx |xxxxxxxxxxxxx |xxxxxxxxxxxxx |xxxxxxxxxxxxx |       0.8016 |       0.8016 |       0.8016 |xxxxxxxxxxxxx |xxxxxxxxxxxxx |xxxxxxxxxxxxx |xxxxxxxxxxxxx |       0.8003 |       0.8003 |       0.8003 |xxxxxxxxxxxxx |xxxxxxxxxxxxx |xxxxxxxxxxxxx |xxxxxxxxxxxxx |       0.8009 |       0.8009 |       0.8009 |xxxxxxxxxxxxx |xxxxxxxxxxxxx |xxxxxxxxxxxxx |xxxxxxxxxxxxx |       0.7998 |       0.7998 |       0.7998 |xxxxxxxxxxxxx |xxxxxxxxxxxxx |xxxxxxxxxxxxx |xxxxxxxxxxxxx |       0.8006 |       0.8006 |       0.8006 |xxxxxxxxxxxxx |xxxxxxxxxxxxx |xxxxxxxxxxxxx |xxxxxxxxxxxxx |       0.7999 |       0.7999 |       0.7999 |xxxxxxxxxxxxx |xxxxxxxxxxxxx |xxxxxxxxxxxxx |xxxxxxxxxxxxx |       0.8005 |       0.8005 |       0.8005 |xxxxxxxxxxxxx |xxxxxxxxxxxxx |xxxxxxxxxxxxx |xxxxxxxxxxxxx |       0.7999 |       0.7999 |       0.7999 |xxxxxxxxxxxxx |xxxxxxxxxxxxx |xxxxxxxxxxxxx |xxxxxxxxxxxxx |       0.8004 |       0.8004 |       0.8004 |
bpred_bimod.bpred_dir_rate                  0.8033 |       0.8034 |       0.8034 |xxxxxxxxxxxxx |xxxxxxxxxxxxx |xxxxxxxxxxxxx |xxxxxxxxxxxxx |       0.8005 |       0.8005 |       0.8005 |xxxxxxxxxxxxx |xxxxxxxxxxxxx |xxxxxxxxxxxxx |xxxxxxxxxxxxx |       0.8018 |       0.8018 |       0.8018 |xxxxxxxxxxxxx |xxxxxxxxxxxxx |xxxxxxxxxxxxx |xxxxxxxxxxxxx |       0.8004 |       0.8004 |       0.8004 |xxxxxxxxxxxxx |xxxxxxxxxxxxx |xxxxxxxxxxxxx |xxxxxxxxxxxxx |       0.8010 |       0.8010 |       0.8010 |xxxxxxxxxxxxx |xxxxxxxxxxxxx |xxxxxxxxxxxxx |xxxxxxxxxxxxx |       0.7998 |       0.7998 |       0.7998 |xxxxxxxxxxxxx |xxxxxxxxxxxxx |xxxxxxxxxxxxx |xxxxxxxxxxxxx |       0.8006 |       0.8006 |       0.8006 |xxxxxxxxxxxxx |xxxxxxxxxxxxx |xxxxxxxxxxxxx |xxxxxxxxxxxxx |       0.7999 |       0.7999 |       0.7999 |xxxxxxxxxxxxx |xxxxxxxxxxxxx |xxxxxxxxxxxxx |xxxxxxxxxxxxx |       0.8005 |       0.8005 |       0.8005 |xxxxxxxxxxxxx |xxxxxxxxxxxxx |xxxxxxxxxxxxx |xxxxxxxxxxxxx |       0.7999 |       0.7999 |       0.7999 |xxxxxxxxxxxxx |xxxxxxxxxxxxx |xxxxxxxxxxxxx |xxxxxxxxxxxxx |       0.8004 |       0.8004 |       0.8004 |
bpred_bimod.bpred_jr_rate                   1.0000 |       1.0000 |       1.0000 |xxxxxxxxxxxxx |xxxxxxxxxxxxx |xxxxxxxxxxxxx |xxxxxxxxxxxxx |       0.9999 |       0.9999 |       0.9999 |xxxxxxxxxxxxx |xxxxxxxxxxxxx |xxxxxxxxxxxxx |xxxxxxxxxxxxx |       0.9999 |       0.9999 |       0.9999 |xxxxxxxxxxxxx |xxxxxxxxxxxxx |xxxxxxxxxxxxx |xxxxxxxxxxxxx |       1.0000 |       1.0000 |       1.0000 |xxxxxxxxxxxxx |xxxxxxxxxxxxx |xxxxxxxxxxxxx |xxxxxxxxxxxxx |       1.0000 |       1.0000 |       1.0000 |xxxxxxxxxxxxx |xxxxxxxxxxxxx |xxxxxxxxxxxxx |xxxxxxxxxxxxx |       1.0000 |       1.0000 |       1.0000 |xxxxxxxxxxxxx |xxxxxxxxxxxxx |xxxxxxxxxxxxx |xxxxxxxxxxxxx |       1.0000 |       1.0000 |       1.0000 |xxxxxxxxxxxxx |xxxxxxxxxxxxx |xxxxxxxxxxxxx |xxxxxxxxxxxxx |       1.0000 |       1.0000 |       1.0000 |xxxxxxxxxxxxx |xxxxxxxxxxxxx |xxxxxxxxxxxxx |xxxxxxxxxxxxx |       1.0000 |       1.0000 |       1.0000 |xxxxxxxxxxxxx |xxxxxxxxxxxxx |xxxxxxxxxxxxx |xxxxxxxxxxxxx |       1.0000 |       1.0000 |       1.0000 |xxxxxxxxxxxxx |xxxxxxxxxxxxx |xxxxxxxxxxxxx |xxxxxxxxxxxxx |       1.0000 |       1.0000 |       1.0000 |
bpred_bimod.bpred_jr_non_ras_rate.PP       <error: |      <error: |      <error: |xxxxxxxxxxxxx |xxxxxxxxxxxxx |xxxxxxxxxxxxx |xxxxxxxxxxxxx |      <error: |      <error: |      <error: |xxxxxxxxxxxxx |xxxxxxxxxxxxx |xxxxxxxxxxxxx |xxxxxxxxxxxxx |      <error: |      <error: |      <error: |xxxxxxxxxxxxx |xxxxxxxxxxxxx |xxxxxxxxxxxxx |xxxxxxxxxxxxx |      <error: |      <error: |      <error: |xxxxxxxxxxxxx |xxxxxxxxxxxxx |xxxxxxxxxxxxx |xxxxxxxxxxxxx |      <error: |      <error: |      <error: |xxxxxxxxxxxxx |xxxxxxxxxxxxx |xxxxxxxxxxxxx |xxxxxxxxxxxxx |      <error: |      <error: |      <error: |xxxxxxxxxxxxx |xxxxxxxxxxxxx |xxxxxxxxxxxxx |xxxxxxxxxxxxx |      <error: |      <error: |      <error: |xxxxxxxxxxxxx |xxxxxxxxxxxxx |xxxxxxxxxxxxx |xxxxxxxxxxxxx |      <error: |      <error: |      <error: |xxxxxxxxxxxxx |xxxxxxxxxxxxx |xxxxxxxxxxxxx |xxxxxxxxxxxxx |       0.0000 |       0.0000 |       0.0000 |xxxxxxxxxxxxx |xxxxxxxxxxxxx |xxxxxxxxxxxxx |xxxxxxxxxxxxx |       0.0000 |       0.0000 |       0.0000 |xxxxxxxxxxxxx |xxxxxxxxxxxxx |xxxxxxxxxxxxx |xxxxxxxxxxxxx |       0.0000 |       0.0000 |       0.0000 |
bpred_bimod.retstack_pushes                   4159 |         4159 |         4159 |xxxxxxxxxxxxx |xxxxxxxxxxxxx |xxxxxxxxxxxxx |xxxxxxxxxxxxx |         8264 |         8264 |         8264 |xxxxxxxxxxxxx |xxxxxxxxxxxxx |xxxxxxxxxxxxx |xxxxxxxxxxxxx |        16456 |        16456 |        16456 |xxxxxxxxxxxxx |xxxxxxxxxxxxx |xxxxxxxxxxxxx |xxxxxxxxxxxxx |        32840 |        32840 |        32840 |xxxxxxxxxxxxx |xxxxxxxxxxxxx |xxxxxxxxxxxxx |xxxxxxxxxxxxx |        65608 |        65608 |        65608 |xxxxxxxxxxxxx |xxxxxxxxxxxxx |xxxxxxxxxxxxx |xxxxxxxxxxxxx |       131144 |       131144 |       131144 |xxxxxxxxxxxxx |xxxxxxxxxxxxx |xxxxxxxxxxxxx |xxxxxxxxxxxxx |       262216 |       262216 |       262216 |xxxxxxxxxxxxx |xxxxxxxxxxxxx |xxxxxxxxxxxxx |xxxxxxxxxxxxx |       524360 |       524360 |       524360 |xxxxxxxxxxxxx |xxxxxxxxxxxxx |xxxxxxxxxxxxx |xxxxxxxxxxxxx |      1048650 |      1048650 |      1048650 |xxxxxxxxxxxxx |xxxxxxxxxxxxx |xxxxxxxxxxxxx |xxxxxxxxxxxxx |      2097226 |      2097226 |      2097226 |xxxxxxxxxxxxx |xxxxxxxxxxxxx |xxxxxxxxxxxxx |xxxxxxxxxxxxx |      4194378 |      4194378 |      4194378 |
bpred_bimod.retstack_pops                     4157 |         4157 |         4157 |xxxxxxxxxxxxx |xxxxxxxxxxxxx |xxxxxxxxxxxxx |xxxxxxxxxxxxx |         8262 |         8262 |         8262 |xxxxxxxxxxxxx |xxxxxxxxxxxxx |xxxxxxxxxxxxx |xxxxxxxxxxxxx |        16454 |        16454 |        16454 |xxxxxxxxxxxxx |xxxxxxxxxxxxx |xxxxxxxxxxxxx |xxxxxxxxxxxxx |        32838 |        32838 |        32838 |xxxxxxxxxxxxx |xxxxxxxxxxxxx |xxxxxxxxxxxxx |xxxxxxxxxxxxx |        65606 |        65606 |        65606 |xxxxxxxxxxxxx |xxxxxxxxxxxxx |xxxxxxxxxxxxx |xxxxxxxxxxxxx |       131142 |       131142 |       131142 |xxxxxxxxxxxxx |xxxxxxxxxxxxx |xxxxxxxxxxxxx |xxxxxxxxxxxxx |       262214 |       262214 |       262214 |xxxxxxxxxxxxx |xxxxxxxxxxxxx |xxxxxxxxxxxxx |xxxxxxxxxxxxx |       524358 |       524358 |       524358 |xxxxxxxxxxxxx |xxxxxxxxxxxxx |xxxxxxxxxxxxx |xxxxxxxxxxxxx |      1048648 |      1048648 |      1048648 |xxxxxxxxxxxxx |xxxxxxxxxxxxx |xxxxxxxxxxxxx |xxxxxxxxxxxxx |      2097224 |      2097224 |      2097224 |xxxxxxxxxxxxx |xxxxxxxxxxxxx |xxxxxxxxxxxxx |xxxxxxxxxxxxx |      4194376 |      4194376 |      4194376 |
bpred_bimod.used_ras.PP                       4157 |         4157 |         4157 |xxxxxxxxxxxxx |xxxxxxxxxxxxx |xxxxxxxxxxxxx |xxxxxxxxxxxxx |         8262 |         8262 |         8262 |xxxxxxxxxxxxx |xxxxxxxxxxxxx |xxxxxxxxxxxxx |xxxxxxxxxxxxx |        16454 |        16454 |        16454 |xxxxxxxxxxxxx |xxxxxxxxxxxxx |xxxxxxxxxxxxx |xxxxxxxxxxxxx |        32838 |        32838 |        32838 |xxxxxxxxxxxxx |xxxxxxxxxxxxx |xxxxxxxxxxxxx |xxxxxxxxxxxxx |        65606 |        65606 |        65606 |xxxxxxxxxxxxx |xxxxxxxxxxxxx |xxxxxxxxxxxxx |xxxxxxxxxxxxx |       131142 |       131142 |       131142 |xxxxxxxxxxxxx |xxxxxxxxxxxxx |xxxxxxxxxxxxx |xxxxxxxxxxxxx |       262214 |       262214 |       262214 |xxxxxxxxxxxxx |xxxxxxxxxxxxx |xxxxxxxxxxxxx |xxxxxxxxxxxxx |       524358 |       524358 |       524358 |xxxxxxxxxxxxx |xxxxxxxxxxxxx |xxxxxxxxxxxxx |xxxxxxxxxxxxx |      1048648 |      1048648 |      1048648 |xxxxxxxxxxxxx |xxxxxxxxxxxxx |xxxxxxxxxxxxx |xxxxxxxxxxxxx |      2097224 |      2097224 |      2097224 |xxxxxxxxxxxxx |xxxxxxxxxxxxx |xxxxxxxxxxxxx |xxxxxxxxxxxxx |      4194376 |      4194376 |      4194376 |
bpred_bimod.ras_hits.PP                       4157 |         4157 |         4157 |xxxxxxxxxxxxx |xxxxxxxxxxxxx |xxxxxxxxxxxxx |xxxxxxxxxxxxx |         8261 |         8261 |         8261 |xxxxxxxxxxxxx |xxxxxxxxxxxxx |xxxxxxxxxxxxx |xxxxxxxxxxxxx |        16453 |        16453 |        16453 |xxxxxxxxxxxxx |xxxxxxxxxxxxx |xxxxxxxxxxxxx |xxxxxxxxxxxxx |        32837 |        32837 |        32837 |xxxxxxxxxxxxx |xxxxxxxxxxxxx |xxxxxxxxxxxxx |xxxxxxxxxxxxx |        65605 |        65605 |        65605 |xxxxxxxxxxxxx |xxxxxxxxxxxxx |xxxxxxxxxxxxx |xxxxxxxxxxxxx |       131141 |       131141 |       131141 |xxxxxxxxxxxxx |xxxxxxxxxxxxx |xxxxxxxxxxxxx |xxxxxxxxxxxxx |       262213 |       262213 |       262213 |xxxxxxxxxxxxx |xxxxxxxxxxxxx |xxxxxxxxxxxxx |xxxxxxxxxxxxx |       524357 |       524357 |       524357 |xxxxxxxxxxxxx |xxxxxxxxxxxxx |xxxxxxxxxxxxx |xxxxxxxxxxxxx |      1048648 |      1048648 |      1048648 |xxxxxxxxxxxxx |xxxxxxxxxxxxx |xxxxxxxxxxxxx |xxxxxxxxxxxxx |      2097224 |      2097224 |      2097224 |xxxxxxxxxxxxx |xxxxxxxxxxxxx |xxxxxxxxxxxxx |xxxxxxxxxxxxx |      4194376 |      4194376 |      4194376 |
bpred_bimod.ras_rate.PP                     1.0000 |       1.0000 |       1.0000 |xxxxxxxxxxxxx |xxxxxxxxxxxxx |xxxxxxxxxxxxx |xxxxxxxxxxxxx |       0.9999 |       0.9999 |       0.9999 |xxxxxxxxxxxxx |xxxxxxxxxxxxx |xxxxxxxxxxxxx |xxxxxxxxxxxxx |       0.9999 |       0.9999 |       0.9999 |xxxxxxxxxxxxx |xxxxxxxxxxxxx |xxxxxxxxxxxxx |xxxxxxxxxxxxx |       1.0000 |       1.0000 |       1.0000 |xxxxxxxxxxxxx |xxxxxxxxxxxxx |xxxxxxxxxxxxx |xxxxxxxxxxxxx |       1.0000 |       1.0000 |       1.0000 |xxxxxxxxxxxxx |xxxxxxxxxxxxx |xxxxxxxxxxxxx |xxxxxxxxxxxxx |       1.0000 |       1.0000 |       1.0000 |xxxxxxxxxxxxx |xxxxxxxxxxxxx |xxxxxxxxxxxxx |xxxxxxxxxxxxx |       1.0000 |       1.0000 |       1.0000 |xxxxxxxxxxxxx |xxxxxxxxxxxxx |xxxxxxxxxxxxx |xxxxxxxxxxxxx |       1.0000 |       1.0000 |       1.0000 |xxxxxxxxxxxxx |xxxxxxxxxxxxx |xxxxxxxxxxxxx |xxxxxxxxxxxxx |       1.0000 |       1.0000 |       1.0000 |xxxxxxxxxxxxx |xxxxxxxxxxxxx |xxxxxxxxxxxxx |xxxxxxxxxxxxx |       1.0000 |       1.0000 |       1.0000 |xxxxxxxxxxxxx |xxxxxxxxxxxxx |xxxxxxxxxxxxx |xxxxxxxxxxxxx |       1.0000 |       1.0000 |       1.0000 |
bpred_2lev.lookups                   xxxxxxxxxxxxx |xxxxxxxxxxxxx |xxxxxxxxxxxxx |       154618 |       154618 |       154618 |       154618 |xxxxxxxxxxxxx |xxxxxxxxxxxxx |xxxxxxxxxxxxx |       333274 |       333274 |       333274 |       333274 |xxxxxxxxxxxxx |xxxxxxxxxxxxx |xxxxxxxxxxxxx |       715089 |       715089 |       715089 |       715089 |xxxxxxxxxxxxx |xxxxxxxxxxxxx |xxxxxxxxxxxxx |      1527188 |      1527188 |      1527188 |      1527188 |xxxxxxxxxxxxx |xxxxxxxxxxxxx |xxxxxxxxxxxxx |      3252055 |      3252055 |      3252055 |      3252055 |xxxxxxxxxxxxx |xxxxxxxxxxxxx |xxxxxxxxxxxxx |      6891920 |      6891920 |      6891920 |      6891920 |xxxxxxxxxxxxx |xxxxxxxxxxxxx |xxxxxxxxxxxxx |     14577506 |     14577506 |     14577506 |     14577506 |xxxxxxxxxxxxx |xxxxxxxxxxxxx |xxxxxxxxxxxxx |     30711138 |     30711138 |     30711138 |     30711138 |xxxxxxxxxxxxx |xxxxxxxxxxxxx |xxxxxxxxxxxxx |     64606023 |     64606023 |     64606023 |     64606023 |xxxxxxxxxxxxx |xxxxxxxxxxxxx |xxxxxxxxxxxxx |    135423741 |    135423741 |    135423741 |    135423741 |xxxxxxxxxxxxx |xxxxxxxxxxxxx |xxxxxxxxxxxxx |    283581783 |    283581783 |    283581783 |    283581783 |
[...]
bpred_2lev.retstack_pushes           xxxxxxxxxxxxx |xxxxxxxxxxxxx |xxxxxxxxxxxxx |         4159 |         4159 |         4159 |         4159 |xxxxxxxxxxxxx |xxxxxxxxxxxxx |xxxxxxxxxxxxx |         8264 |         8264 |         8264 |         8264 |xxxxxxxxxxxxx |xxxxxxxxxxxxx |xxxxxxxxxxxxx |        16456 |        16456 |        16456 |        16456 |xxxxxxxxxxxxx |xxxxxxxxxxxxx |xxxxxxxxxxxxx |        32840 |        32840 |        32840 |        32840 |xxxxxxxxxxxxx |xxxxxxxxxxxxx |xxxxxxxxxxxxx |        65608 |        65608 |        65608 |        65608 |xxxxxxxxxxxxx |xxxxxxxxxxxxx |xxxxxxxxxxxxx |       131144 |       131144 |       131144 |       131144 |xxxxxxxxxxxxx |xxxxxxxxxxxxx |xxxxxxxxxxxxx |       262216 |       262216 |       262216 |       262216 |xxxxxxxxxxxxx |xxxxxxxxxxxxx |xxxxxxxxxxxxx |       524360 |       524360 |       524360 |       524360 |xxxxxxxxxxxxx |xxxxxxxxxxxxx |xxxxxxxxxxxxx |      1048650 |      1048650 |      1048650 |      1048650 |xxxxxxxxxxxxx |xxxxxxxxxxxxx |xxxxxxxxxxxxx |      2097226 |      2097226 |      2097226 |      2097226 |xxxxxxxxxxxxx |xxxxxxxxxxxxx |xxxxxxxxxxxxx |      4194378 |      4194378 |      4194378 |      4194378 |
bpred_2lev.retstack_pops             xxxxxxxxxxxxx |xxxxxxxxxxxxx |xxxxxxxxxxxxx |         4157 |         4157 |         4157 |         4157 |xxxxxxxxxxxxx |xxxxxxxxxxxxx |xxxxxxxxxxxxx |         8262 |         8262 |         8262 |         8262 |xxxxxxxxxxxxx |xxxxxxxxxxxxx |xxxxxxxxxxxxx |        16454 |        16454 |        16454 |        16454 |xxxxxxxxxxxxx |xxxxxxxxxxxxx |xxxxxxxxxxxxx |        32838 |        32838 |        32838 |        32838 |xxxxxxxxxxxxx |xxxxxxxxxxxxx |xxxxxxxxxxxxx |        65606 |        65606 |        65606 |        65606 |xxxxxxxxxxxxx |xxxxxxxxxxxxx |xxxxxxxxxxxxx |       131142 |       131142 |       131142 |       131142 |xxxxxxxxxxxxx |xxxxxxxxxxxxx |xxxxxxxxxxxxx |       262214 |       262214 |       262214 |       262214 |xxxxxxxxxxxxx |xxxxxxxxxxxxx |xxxxxxxxxxxxx |       524358 |       524358 |       524358 |       524358 |xxxxxxxxxxxxx |xxxxxxxxxxxxx |xxxxxxxxxxxxx |      1048648 |      1048648 |      1048648 |      1048648 |xxxxxxxxxxxxx |xxxxxxxxxxxxx |xxxxxxxxxxxxx |      2097224 |      2097224 |      2097224 |      2097224 |xxxxxxxxxxxxx |xxxxxxxxxxxxx |xxxxxxxxxxxxx |      4194376 |      4194376 |      4194376 |      4194376 |
bpred_2lev.used_ras.PP               xxxxxxxxxxxxx |xxxxxxxxxxxxx |xxxxxxxxxxxxx |         4157 |         4157 |         4157 |         4157 |xxxxxxxxxxxxx |xxxxxxxxxxxxx |xxxxxxxxxxxxx |         8262 |         8262 |         8262 |         8262 |xxxxxxxxxxxxx |xxxxxxxxxxxxx |xxxxxxxxxxxxx |        16454 |        16454 |        16454 |        16454 |xxxxxxxxxxxxx |xxxxxxxxxxxxx |xxxxxxxxxxxxx |        32838 |        32838 |        32838 |        32838 |xxxxxxxxxxxxx |xxxxxxxxxxxxx |xxxxxxxxxxxxx |        65606 |        65606 |        65606 |        65606 |xxxxxxxxxxxxx |xxxxxxxxxxxxx |xxxxxxxxxxxxx |       131142 |       131142 |       131142 |       131142 |xxxxxxxxxxxxx |xxxxxxxxxxxxx |xxxxxxxxxxxxx |       262214 |       262214 |       262214 |       262214 |xxxxxxxxxxxxx |xxxxxxxxxxxxx |xxxxxxxxxxxxx |       524358 |       524358 |       524358 |       524358 |xxxxxxxxxxxxx |xxxxxxxxxxxxx |xxxxxxxxxxxxx |      1048648 |      1048648 |      1048648 |      1048648 |xxxxxxxxxxxxx |xxxxxxxxxxxxx |xxxxxxxxxxxxx |      2097224 |      2097224 |      2097224 |      2097224 |xxxxxxxxxxxxx |xxxxxxxxxxxxx |xxxxxxxxxxxxx |      4194376 |      4194376 |      4194376 |      4194376 |
bpred_2lev.ras_hits.PP               xxxxxxxxxxxxx |xxxxxxxxxxxxx |xxxxxxxxxxxxx |         4157 |         4157 |         4157 |         4157 |xxxxxxxxxxxxx |xxxxxxxxxxxxx |xxxxxxxxxxxxx |         8261 |         8261 |         8261 |         8261 |xxxxxxxxxxxxx |xxxxxxxxxxxxx |xxxxxxxxxxxxx |        16453 |        16453 |        16453 |        16453 |xxxxxxxxxxxxx |xxxxxxxxxxxxx |xxxxxxxxxxxxx |        32837 |        32837 |        32837 |        32837 |xxxxxxxxxxxxx |xxxxxxxxxxxxx |xxxxxxxxxxxxx |        65605 |        65605 |        65605 |        65605 |xxxxxxxxxxxxx |xxxxxxxxxxxxx |xxxxxxxxxxxxx |       131141 |       131141 |       131141 |       131141 |xxxxxxxxxxxxx |xxxxxxxxxxxxx |xxxxxxxxxxxxx |       262213 |       262213 |       262213 |       262213 |xxxxxxxxxxxxx |xxxxxxxxxxxxx |xxxxxxxxxxxxx |       524357 |       524357 |       524357 |       524357 |xxxxxxxxxxxxx |xxxxxxxxxxxxx |xxxxxxxxxxxxx |      1048648 |      1048648 |      1048648 |      1048648 |xxxxxxxxxxxxx |xxxxxxxxxxxxx |xxxxxxxxxxxxx |      2097224 |      2097224 |      2097224 |      2097224 |xxxxxxxxxxxxx |xxxxxxxxxxxxx |xxxxxxxxxxxxx |      4194376 |      4194376 |      4194376 |      4194376 |
bpred_2lev.ras_rate.PP               xxxxxxxxxxxxx |xxxxxxxxxxxxx |xxxxxxxxxxxxx |       1.0000 |       1.0000 |       1.0000 |       1.0000 |xxxxxxxxxxxxx |xxxxxxxxxxxxx |xxxxxxxxxxxxx |       0.9999 |       0.9999 |       0.9999 |       0.9999 |xxxxxxxxxxxxx |xxxxxxxxxxxxx |xxxxxxxxxxxxx |       0.9999 |       0.9999 |       0.9999 |       0.9999 |xxxxxxxxxxxxx |xxxxxxxxxxxxx |xxxxxxxxxxxxx |       1.0000 |       1.0000 |       1.0000 |       1.0000 |xxxxxxxxxxxxx |xxxxxxxxxxxxx |xxxxxxxxxxxxx |       1.0000 |       1.0000 |       1.0000 |       1.0000 |xxxxxxxxxxxxx |xxxxxxxxxxxxx |xxxxxxxxxxxxx |       1.0000 |       1.0000 |       1.0000 |       1.0000 |xxxxxxxxxxxxx |xxxxxxxxxxxxx |xxxxxxxxxxxxx |       1.0000 |       1.0000 |       1.0000 |       1.0000 |xxxxxxxxxxxxx |xxxxxxxxxxxxx |xxxxxxxxxxxxx |       1.0000 |       1.0000 |       1.0000 |       1.0000 |xxxxxxxxxxxxx |xxxxxxxxxxxxx |xxxxxxxxxxxxx |       1.0000 |       1.0000 |       1.0000 |       1.0000 |xxxxxxxxxxxxx |xxxxxxxxxxxxx |xxxxxxxxxxxxx |       1.0000 |       1.0000 |       1.0000 |       1.0000 |xxxxxxxxxxxxx |xxxxxxxxxxxxx |xxxxxxxxxxxxx |       1.0000 |       1.0000 |       1.0000 |       1.0000 |

Command list: 
	sslittle-na-sstrix-gcc -Wall -O3 -funroll-loops -finline-functions  -DRANDOM_SIZE=4096 -DOFFSET=2 -DSORT=cache4_heapsort sorts/cache4_heapsort438433788.c simpleMain.c -o cache4_heapsort651221869
	sim-cache -cache:dl1 dl1:256:32:1:l -cache:dl2 dl2:131072:32:1:l -cache:il1 il1:256:32:1:l -cache:il2 dl2 cache4_heapsort651221869
	sim-cache -cache:dl1 dl1:256:32:1:l -cache:dl2 dl2:65536:32:1:l -cache:il1 il1:256:32:1:l -cache:il2 dl2 cache4_heapsort651221869
	sim-cache -cache:dl1 dl1:1:32:256:l -cache:dl2 dl2:1:32:131072:l -cache:il1 il1:1:32:256:l -cache:il2 dl2 cache4_heapsort651221869
	sim-cache -cache:dl1 dl1:1:32:256:l -cache:dl2 dl2:1:32:65536:l -cache:il1 il1:1:32:256:l -cache:il2 dl2 cache4_heapsort651221869
	sim-bpred -bpred bimod -bpred:bimod 512 cache4_heapsort651221869
	sim-bpred -bpred bimod -bpred:bimod 1024 cache4_heapsort651221869
	sim-bpred -bpred bimod -bpred:bimod 2048 cache4_heapsort651221869
	sim-bpred -bpred 2lev -bpred:2lev 1 512 10 1 cache4_heapsort651221869
	sim-bpred -bpred 2lev -bpred:2lev 1 1024 10 1 cache4_heapsort651221869
	sim-bpred -bpred 2lev -bpred:2lev 1 2048 10 1 cache4_heapsort651221869
	sim-bpred -bpred 2lev -bpred:2lev 1 4096 10 1 cache4_heapsort651221869
	sslittle-na-sstrix-gcc -Wall -O3 -funroll-loops -finline-functions  -DRANDOM_SIZE=8192 -DOFFSET=2 -DSORT=cache4_heapsort sorts/cache4_heapsort438433788.c simpleMain.c -o cache4_heapsort651221869
	sim-cache -cache:dl1 dl1:256:32:1:l -cache:dl2 dl2:131072:32:1:l -cache:il1 il1:256:32:1:l -cache:il2 dl2 cache4_heapsort651221869
	sim-cache -cache:dl1 dl1:256:32:1:l -cache:dl2 dl2:65536:32:1:l -cache:il1 il1:256:32:1:l -cache:il2 dl2 cache4_heapsort651221869
	sim-cache -cache:dl1 dl1:1:32:256:l -cache:dl2 dl2:1:32:131072:l -cache:il1 il1:1:32:256:l -cache:il2 dl2 cache4_heapsort651221869
	sim-cache -cache:dl1 dl1:1:32:256:l -cache:dl2 dl2:1:32:65536:l -cache:il1 il1:1:32:256:l -cache:il2 dl2 cache4_heapsort651221869
	sim-bpred -bpred bimod -bpred:bimod 512 cache4_heapsort651221869
	sim-bpred -bpred bimod -bpred:bimod 1024 cache4_heapsort651221869
	sim-bpred -bpred bimod -bpred:bimod 2048 cache4_heapsort651221869
	sim-bpred -bpred 2lev -bpred:2lev 1 512 10 1 cache4_heapsort651221869
	sim-bpred -bpred 2lev -bpred:2lev 1 1024 10 1 cache4_heapsort651221869
	sim-bpred -bpred 2lev -bpred:2lev 1 2048 10 1 cache4_heapsort651221869
	sim-bpred -bpred 2lev -bpred:2lev 1 4096 10 1 cache4_heapsort651221869
	sslittle-na-sstrix-gcc -Wall -O3 -funroll-loops -finline-functions  -DRANDOM_SIZE=16384 -DOFFSET=2 -DSORT=cache4_heapsort sorts/cache4_heapsort438433788.c simpleMain.c -o cache4_heapsort651221869
	sim-cache -cache:dl1 dl1:256:32:1:l -cache:dl2 dl2:131072:32:1:l -cache:il1 il1:256:32:1:l -cache:il2 dl2 cache4_heapsort651221869
	sim-cache -cache:dl1 dl1:256:32:1:l -cache:dl2 dl2:65536:32:1:l -cache:il1 il1:256:32:1:l -cache:il2 dl2 cache4_heapsort651221869
	sim-cache -cache:dl1 dl1:1:32:256:l -cache:dl2 dl2:1:32:131072:l -cache:il1 il1:1:32:256:l -cache:il2 dl2 cache4_heapsort651221869
	sim-cache -cache:dl1 dl1:1:32:256:l -cache:dl2 dl2:1:32:65536:l -cache:il1 il1:1:32:256:l -cache:il2 dl2 cache4_heapsort651221869
	sim-bpred -bpred bimod -bpred:bimod 512 cache4_heapsort651221869
	sim-bpred -bpred bimod -bpred:bimod 1024 cache4_heapsort651221869
	sim-bpred -bpred bimod -bpred:bimod 2048 cache4_heapsort651221869
	sim-bpred -bpred 2lev -bpred:2lev 1 512 10 1 cache4_heapsort651221869
	sim-bpred -bpred 2lev -bpred:2lev 1 1024 10 1 cache4_heapsort651221869
	sim-bpred -bpred 2lev -bpred:2lev 1 2048 10 1 cache4_heapsort651221869
	sim-bpred -bpred 2lev -bpred:2lev 1 4096 10 1 cache4_heapsort651221869
	sslittle-na-sstrix-gcc -Wall -O3 -funroll-loops -finline-functions  -DRANDOM_SIZE=32768 -DOFFSET=2 -DSORT=cache4_heapsort sorts/cache4_heapsort438433788.c simpleMain.c -o cache4_heapsort651221869
	sim-cache -cache:dl1 dl1:256:32:1:l -cache:dl2 dl2:131072:32:1:l -cache:il1 il1:256:32:1:l -cache:il2 dl2 cache4_heapsort651221869
	sim-cache -cache:dl1 dl1:256:32:1:l -cache:dl2 dl2:65536:32:1:l -cache:il1 il1:256:32:1:l -cache:il2 dl2 cache4_heapsort651221869
	sim-cache -cache:dl1 dl1:1:32:256:l -cache:dl2 dl2:1:32:131072:l -cache:il1 il1:1:32:256:l -cache:il2 dl2 cache4_heapsort651221869
	sim-cache -cache:dl1 dl1:1:32:256:l -cache:dl2 dl2:1:32:65536:l -cache:il1 il1:1:32:256:l -cache:il2 dl2 cache4_heapsort651221869
	sim-bpred -bpred bimod -bpred:bimod 512 cache4_heapsort651221869
	sim-bpred -bpred bimod -bpred:bimod 1024 cache4_heapsort651221869
	sim-bpred -bpred bimod -bpred:bimod 2048 cache4_heapsort651221869
	sim-bpred -bpred 2lev -bpred:2lev 1 512 10 1 cache4_heapsort651221869
	sim-bpred -bpred 2lev -bpred:2lev 1 1024 10 1 cache4_heapsort651221869
	sim-bpred -bpred 2lev -bpred:2lev 1 2048 10 1 cache4_heapsort651221869
	sim-bpred -bpred 2lev -bpred:2lev 1 4096 10 1 cache4_heapsort651221869
	sslittle-na-sstrix-gcc -Wall -O3 -funroll-loops -finline-functions  -DRANDOM_SIZE=65536 -DOFFSET=2 -DSORT=cache4_heapsort sorts/cache4_heapsort438433788.c simpleMain.c -o cache4_heapsort651221869
	sim-cache -cache:dl1 dl1:256:32:1:l -cache:dl2 dl2:131072:32:1:l -cache:il1 il1:256:32:1:l -cache:il2 dl2 cache4_heapsort651221869
	sim-cache -cache:dl1 dl1:256:32:1:l -cache:dl2 dl2:65536:32:1:l -cache:il1 il1:256:32:1:l -cache:il2 dl2 cache4_heapsort651221869
	sim-cache -cache:dl1 dl1:1:32:256:l -cache:dl2 dl2:1:32:131072:l -cache:il1 il1:1:32:256:l -cache:il2 dl2 cache4_heapsort651221869
	sim-cache -cache:dl1 dl1:1:32:256:l -cache:dl2 dl2:1:32:65536:l -cache:il1 il1:1:32:256:l -cache:il2 dl2 cache4_heapsort651221869
	sim-bpred -bpred bimod -bpred:bimod 512 cache4_heapsort651221869
	sim-bpred -bpred bimod -bpred:bimod 1024 cache4_heapsort651221869
	sim-bpred -bpred bimod -bpred:bimod 2048 cache4_heapsort651221869
	sim-bpred -bpred 2lev -bpred:2lev 1 512 10 1 cache4_heapsort651221869
	sim-bpred -bpred 2lev -bpred:2lev 1 1024 10 1 cache4_heapsort651221869
	sim-bpred -bpred 2lev -bpred:2lev 1 2048 10 1 cache4_heapsort651221869
	sim-bpred -bpred 2lev -bpred:2lev 1 4096 10 1 cache4_heapsort651221869
	sslittle-na-sstrix-gcc -Wall -O3 -funroll-loops -finline-functions  -DRANDOM_SIZE=131072 -DOFFSET=2 -DSORT=cache4_heapsort sorts/cache4_heapsort438433788.c simpleMain.c -o cache4_heapsort651221869
	sim-cache -cache:dl1 dl1:256:32:1:l -cache:dl2 dl2:131072:32:1:l -cache:il1 il1:256:32:1:l -cache:il2 dl2 cache4_heapsort651221869
	sim-cache -cache:dl1 dl1:256:32:1:l -cache:dl2 dl2:65536:32:1:l -cache:il1 il1:256:32:1:l -cache:il2 dl2 cache4_heapsort651221869
	sim-cache -cache:dl1 dl1:1:32:256:l -cache:dl2 dl2:1:32:131072:l -cache:il1 il1:1:32:256:l -cache:il2 dl2 cache4_heapsort651221869
	sim-cache -cache:dl1 dl1:1:32:256:l -cache:dl2 dl2:1:32:65536:l -cache:il1 il1:1:32:256:l -cache:il2 dl2 cache4_heapsort651221869
	sim-bpred -bpred bimod -bpred:bimod 512 cache4_heapsort651221869
	sim-bpred -bpred bimod -bpred:bimod 1024 cache4_heapsort651221869
	sim-bpred -bpred bimod -bpred:bimod 2048 cache4_heapsort651221869
	sim-bpred -bpred 2lev -bpred:2lev 1 512 10 1 cache4_heapsort651221869
	sim-bpred -bpred 2lev -bpred:2lev 1 1024 10 1 cache4_heapsort651221869
	sim-bpred -bpred 2lev -bpred:2lev 1 2048 10 1 cache4_heapsort651221869
	sim-bpred -bpred 2lev -bpred:2lev 1 4096 10 1 cache4_heapsort651221869
	sslittle-na-sstrix-gcc -Wall -O3 -funroll-loops -finline-functions  -DRANDOM_SIZE=262144 -DOFFSET=2 -DSORT=cache4_heapsort sorts/cache4_heapsort438433788.c simpleMain.c -o cache4_heapsort651221869
	sim-cache -cache:dl1 dl1:256:32:1:l -cache:dl2 dl2:131072:32:1:l -cache:il1 il1:256:32:1:l -cache:il2 dl2 cache4_heapsort651221869
	sim-cache -cache:dl1 dl1:256:32:1:l -cache:dl2 dl2:65536:32:1:l -cache:il1 il1:256:32:1:l -cache:il2 dl2 cache4_heapsort651221869
	sim-cache -cache:dl1 dl1:1:32:256:l -cache:dl2 dl2:1:32:131072:l -cache:il1 il1:1:32:256:l -cache:il2 dl2 cache4_heapsort651221869
	sim-cache -cache:dl1 dl1:1:32:256:l -cache:dl2 dl2:1:32:65536:l -cache:il1 il1:1:32:256:l -cache:il2 dl2 cache4_heapsort651221869
	sim-bpred -bpred bimod -bpred:bimod 512 cache4_heapsort651221869
	sim-bpred -bpred bimod -bpred:bimod 1024 cache4_heapsort651221869
	sim-bpred -bpred bimod -bpred:bimod 2048 cache4_heapsort651221869
	sim-bpred -bpred 2lev -bpred:2lev 1 512 10 1 cache4_heapsort651221869
	sim-bpred -bpred 2lev -bpred:2lev 1 1024 10 1 cache4_heapsort651221869
	sim-bpred -bpred 2lev -bpred:2lev 1 2048 10 1 cache4_heapsort651221869
	sim-bpred -bpred 2lev -bpred:2lev 1 4096 10 1 cache4_heapsort651221869
	sslittle-na-sstrix-gcc -Wall -O3 -funroll-loops -finline-functions  -DRANDOM_SIZE=524288 -DOFFSET=2 -DSORT=cache4_heapsort sorts/cache4_heapsort438433788.c simpleMain.c -o cache4_heapsort651221869
	sim-cache -cache:dl1 dl1:256:32:1:l -cache:dl2 dl2:131072:32:1:l -cache:il1 il1:256:32:1:l -cache:il2 dl2 cache4_heapsort651221869
	sim-cache -cache:dl1 dl1:256:32:1:l -cache:dl2 dl2:65536:32:1:l -cache:il1 il1:256:32:1:l -cache:il2 dl2 cache4_heapsort651221869
	sim-cache -cache:dl1 dl1:1:32:256:l -cache:dl2 dl2:1:32:131072:l -cache:il1 il1:1:32:256:l -cache:il2 dl2 cache4_heapsort651221869
	sim-cache -cache:dl1 dl1:1:32:256:l -cache:dl2 dl2:1:32:65536:l -cache:il1 il1:1:32:256:l -cache:il2 dl2 cache4_heapsort651221869
	sim-bpred -bpred bimod -bpred:bimod 512 cache4_heapsort651221869
	sim-bpred -bpred bimod -bpred:bimod 1024 cache4_heapsort651221869
	sim-bpred -bpred bimod -bpred:bimod 2048 cache4_heapsort651221869
	sim-bpred -bpred 2lev -bpred:2lev 1 512 10 1 cache4_heapsort651221869
	sim-bpred -bpred 2lev -bpred:2lev 1 1024 10 1 cache4_heapsort651221869
	sim-bpred -bpred 2lev -bpred:2lev 1 2048 10 1 cache4_heapsort651221869
	sim-bpred -bpred 2lev -bpred:2lev 1 4096 10 1 cache4_heapsort651221869
	sslittle-na-sstrix-gcc -Wall -O3 -funroll-loops -finline-functions  -DRANDOM_SIZE=1048576 -DOFFSET=2 -DSORT=cache4_heapsort sorts/cache4_heapsort438433788.c simpleMain.c -o cache4_heapsort651221869
	sim-cache -cache:dl1 dl1:256:32:1:l -cache:dl2 dl2:131072:32:1:l -cache:il1 il1:256:32:1:l -cache:il2 dl2 cache4_heapsort651221869
	sim-cache -cache:dl1 dl1:256:32:1:l -cache:dl2 dl2:65536:32:1:l -cache:il1 il1:256:32:1:l -cache:il2 dl2 cache4_heapsort651221869
	sim-cache -cache:dl1 dl1:1:32:256:l -cache:dl2 dl2:1:32:131072:l -cache:il1 il1:1:32:256:l -cache:il2 dl2 cache4_heapsort651221869
	sim-cache -cache:dl1 dl1:1:32:256:l -cache:dl2 dl2:1:32:65536:l -cache:il1 il1:1:32:256:l -cache:il2 dl2 cache4_heapsort651221869
	sim-bpred -bpred bimod -bpred:bimod 512 cache4_heapsort651221869
	sim-bpred -bpred bimod -bpred:bimod 1024 cache4_heapsort651221869
	sim-bpred -bpred bimod -bpred:bimod 2048 cache4_heapsort651221869
	sim-bpred -bpred 2lev -bpred:2lev 1 512 10 1 cache4_heapsort651221869
	sim-bpred -bpred 2lev -bpred:2lev 1 1024 10 1 cache4_heapsort651221869
	sim-bpred -bpred 2lev -bpred:2lev 1 2048 10 1 cache4_heapsort651221869
	sim-bpred -bpred 2lev -bpred:2lev 1 4096 10 1 cache4_heapsort651221869
	sslittle-na-sstrix-gcc -Wall -O3 -funroll-loops -finline-functions  -DRANDOM_SIZE=2097152 -DOFFSET=2 -DSORT=cache4_heapsort sorts/cache4_heapsort438433788.c simpleMain.c -o cache4_heapsort651221869
	sim-cache -cache:dl1 dl1:256:32:1:l -cache:dl2 dl2:131072:32:1:l -cache:il1 il1:256:32:1:l -cache:il2 dl2 cache4_heapsort651221869
	sim-cache -cache:dl1 dl1:256:32:1:l -cache:dl2 dl2:65536:32:1:l -cache:il1 il1:256:32:1:l -cache:il2 dl2 cache4_heapsort651221869
	sim-cache -cache:dl1 dl1:1:32:256:l -cache:dl2 dl2:1:32:131072:l -cache:il1 il1:1:32:256:l -cache:il2 dl2 cache4_heapsort651221869
	sim-cache -cache:dl1 dl1:1:32:256:l -cache:dl2 dl2:1:32:65536:l -cache:il1 il1:1:32:256:l -cache:il2 dl2 cache4_heapsort651221869
	sim-bpred -bpred bimod -bpred:bimod 512 cache4_heapsort651221869
	sim-bpred -bpred bimod -bpred:bimod 1024 cache4_heapsort651221869
	sim-bpred -bpred bimod -bpred:bimod 2048 cache4_heapsort651221869
	sim-bpred -bpred 2lev -bpred:2lev 1 512 10 1 cache4_heapsort651221869
	sim-bpred -bpred 2lev -bpred:2lev 1 1024 10 1 cache4_heapsort651221869
	sim-bpred -bpred 2lev -bpred:2lev 1 2048 10 1 cache4_heapsort651221869
	sim-bpred -bpred 2lev -bpred:2lev 1 4096 10 1 cache4_heapsort651221869
	sslittle-na-sstrix-gcc -Wall -O3 -funroll-loops -finline-functions  -DRANDOM_SIZE=4194304 -DOFFSET=2 -DSORT=cache4_heapsort sorts/cache4_heapsort438433788.c simpleMain.c -o cache4_heapsort651221869
	sim-cache -cache:dl1 dl1:256:32:1:l -cache:dl2 dl2:131072:32:1:l -cache:il1 il1:256:32:1:l -cache:il2 dl2 cache4_heapsort651221869
	sim-cache -cache:dl1 dl1:256:32:1:l -cache:dl2 dl2:65536:32:1:l -cache:il1 il1:256:32:1:l -cache:il2 dl2 cache4_heapsort651221869
	sim-cache -cache:dl1 dl1:1:32:256:l -cache:dl2 dl2:1:32:131072:l -cache:il1 il1:1:32:256:l -cache:il2 dl2 cache4_heapsort651221869
	sim-cache -cache:dl1 dl1:1:32:256:l -cache:dl2 dl2:1:32:65536:l -cache:il1 il1:1:32:256:l -cache:il2 dl2 cache4_heapsort651221869
	sim-bpred -bpred bimod -bpred:bimod 512 cache4_heapsort651221869
	sim-bpred -bpred bimod -bpred:bimod 1024 cache4_heapsort651221869
	sim-bpred -bpred bimod -bpred:bimod 2048 cache4_heapsort651221869
	sim-bpred -bpred 2lev -bpred:2lev 1 512 10 1 cache4_heapsort651221869
	sim-bpred -bpred 2lev -bpred:2lev 1 1024 10 1 cache4_heapsort651221869
	sim-bpred -bpred 2lev -bpred:2lev 1 2048 10 1 cache4_heapsort651221869
	sim-bpred -bpred 2lev -bpred:2lev 1 4096 10 1 cache4_heapsort651221869
