Thu Jul  7 15:31:57 2005
Run as: "./do_simple -c random.org4 -o 4 cache_quicksort"
-------------------------------------------------------------------------------------------------
sim-cache                                     4096 |         4096 |         4096 |         4096 |         8192 |         8192 |         8192 |         8192 |        16384 |        16384 |        16384 |        16384 |        32768 |        32768 |        32768 |        32768 |        65536 |        65536 |        65536 |        65536 |       131072 |       131072 |       131072 |       131072 |       262144 |       262144 |       262144 |       262144 |       524288 |       524288 |       524288 |       524288 |      1048576 |      1048576 |      1048576 |      1048576 |      2097152 |      2097152 |      2097152 |      2097152 |      4194304 |      4194304 |      4194304 |      4194304 |
-cache:dl1 dl1:256:32:1:l -cache:dl2 dl2:131072:32:1:l -cache:il1 il1:256:32:1:l -cache:il2 dl2
-cache:dl1 dl1:256:32:1:l -cache:dl2 dl2:65536:32:1:l -cache:il1 il1:256:32:1:l -cache:il2 dl2
-cache:dl1 dl1:1:32:256:l -cache:dl2 dl2:1:32:131072:l -cache:il1 il1:1:32:256:l -cache:il2 dl2
-cache:dl1 dl1:1:32:256:l -cache:dl2 dl2:1:32:65536:l -cache:il1 il1:1:32:256:l -cache:il2 dl2
-------------------------------------------------------------------------------------------------
sim_num_insn                                482074 |       482074 |       482074 |       482074 |       979568 |       979568 |       979568 |       979568 |      2125309 |      2125309 |      2125309 |      2125309 |      4535098 |      4535098 |      4535098 |      4535098 |      9735256 |      9735256 |      9735256 |      9735256 |     20591663 |     20591663 |     20591663 |     20591663 |     43813551 |     43813551 |     43813551 |     43813551 |     93842420 |     93842420 |     93842420 |     93842420 |    195237821 |    195237821 |    195237821 |    195237821 |    411301857 |    411301857 |    411301857 |    411301857 |    854966829 |    854966829 |    854966829 |    854966829 |
sim_num_refs                                125365 |       125365 |       125365 |       125365 |       256701 |       256701 |       256701 |       256701 |       548049 |       548049 |       548049 |       548049 |      1160844 |      1160844 |      1160844 |      1160844 |      2463379 |      2463379 |      2463379 |      2463379 |      5190562 |      5190562 |      5190562 |      5190562 |     10974786 |     10974786 |     10974786 |     10974786 |     23265261 |     23265261 |     23265261 |     23265261 |     48459336 |     48459336 |     48459336 |     48459336 |    101569184 |    101569184 |    101569184 |    101569184 |    211141987 |    211141987 |    211141987 |    211141987 |
sim_elapsed_time                                 1 |            1 |            8 |            3 |            1 |            1 |           10 |            5 |            1 |            1 |           16 |            8 |            1 |            1 |           26 |           14 |            2 |            3 |           49 |           25 |            5 |            6 |           92 |           51 |           12 |           12 |          179 |           79 |           25 |           26 |          288 |          113 |           53 |           53 |          400 |          143 |          112 |          111 |          468 |          206 |          232 |          233 |          598 |          336 |
sim_inst_rate                          482074.0000 |  482074.0000 |   60259.2500 |  160691.3333 |  979568.0000 |  979568.0000 |   97956.8000 |  195913.6000 | 2125309.0000 | 2125309.0000 |  132831.8125 |  265663.6250 | 4535098.0000 | 4535098.0000 |  174426.8462 |  323935.5714 | 4867628.0000 | 3245085.3333 |  198678.6939 |  389410.2400 | 4118332.6000 | 3431943.8333 |  223822.4239 |  403758.0980 | 3651129.2500 | 3651129.2500 |  244768.4413 |  554601.9114 | 3753696.8000 | 3609323.8462 |  325841.7361 |  830463.8938 | 3683732.4717 | 3683732.4717 |  488094.5525 | 1365299.4476 | 3672338.0089 | 3705422.1351 |  878850.1218 | 1996610.9563 | 3685201.8491 | 3669385.5322 | 1429710.4164 | 2544544.1339 |
il1.accesses                                482074 |       482074 |       482074 |       482074 |       979568 |       979568 |       979568 |       979568 |      2125309 |      2125309 |      2125309 |      2125309 |      4535098 |      4535098 |      4535098 |      4535098 |      9735256 |      9735256 |      9735256 |      9735256 |     20591663 |     20591663 |     20591663 |     20591663 |     43813551 |     43813551 |     43813551 |     43813551 |     93842420 |     93842420 |     93842420 |     93842420 |    195237821 |    195237821 |    195237821 |    195237821 |    411301857 |    411301857 |    411301857 |    411301857 |    854966829 |    854966829 |    854966829 |    854966829 |
il1.hits                                    481622 |       481622 |       481653 |       481653 |       979113 |       979113 |       979143 |       979143 |      2124839 |      2124839 |      2124875 |      2124875 |      4534637 |      4534637 |      4534664 |      4534664 |      9734802 |      9734802 |      9734830 |      9734830 |     20591212 |     20591212 |     20591241 |     20591241 |     43813092 |     43813092 |     43813119 |     43813119 |     93841960 |     93841960 |     93841987 |     93841987 |    195237368 |    195237368 |    195237396 |    195237396 |    411301400 |    411301400 |    411301427 |    411301427 |    854966370 |    854966370 |    854966397 |    854966397 |
il1.misses                                     452 |          452 |          421 |          421 |          455 |          455 |          425 |          425 |          470 |          470 |          434 |          434 |          461 |          461 |          434 |          434 |          454 |          454 |          426 |          426 |          451 |          451 |          422 |          422 |          459 |          459 |          432 |          432 |          460 |          460 |          433 |          433 |          453 |          453 |          425 |          425 |          457 |          457 |          430 |          430 |          459 |          459 |          432 |          432 |
il1.replacements                               219 |          219 |          165 |          165 |          216 |          216 |          169 |          169 |          231 |          231 |          178 |          178 |          222 |          222 |          178 |          178 |          215 |          215 |          170 |          170 |          218 |          218 |          166 |          166 |          221 |          221 |          176 |          176 |          222 |          222 |          177 |          177 |          215 |          215 |          169 |          169 |          219 |          219 |          174 |          174 |          221 |          221 |          176 |          176 |
il1.writebacks                                   0 |            0 |            0 |            0 |            0 |            0 |            0 |            0 |            0 |            0 |            0 |            0 |            0 |            0 |            0 |            0 |            0 |            0 |            0 |            0 |            0 |            0 |            0 |            0 |            0 |            0 |            0 |            0 |            0 |            0 |            0 |            0 |            0 |            0 |            0 |            0 |            0 |            0 |            0 |            0 |            0 |            0 |            0 |            0 |
il1.invalidations                                0 |            0 |            0 |            0 |            0 |            0 |            0 |            0 |            0 |            0 |            0 |            0 |            0 |            0 |            0 |            0 |            0 |            0 |            0 |            0 |            0 |            0 |            0 |            0 |            0 |            0 |            0 |            0 |            0 |            0 |            0 |            0 |            0 |            0 |            0 |            0 |            0 |            0 |            0 |            0 |            0 |            0 |            0 |            0 |
il1.miss_rate                               0.0009 |       0.0009 |       0.0009 |       0.0009 |       0.0005 |       0.0005 |       0.0004 |       0.0004 |       0.0002 |       0.0002 |       0.0002 |       0.0002 |       0.0001 |       0.0001 |       0.0001 |       0.0001 |       0.0000 |       0.0000 |       0.0000 |       0.0000 |       0.0000 |       0.0000 |       0.0000 |       0.0000 |       0.0000 |       0.0000 |       0.0000 |       0.0000 |       0.0000 |       0.0000 |       0.0000 |       0.0000 |       0.0000 |       0.0000 |       0.0000 |       0.0000 |       0.0000 |       0.0000 |       0.0000 |       0.0000 |       0.0000 |       0.0000 |       0.0000 |       0.0000 |
il1.repl_rate                               0.0005 |       0.0005 |       0.0003 |       0.0003 |       0.0002 |       0.0002 |       0.0002 |       0.0002 |       0.0001 |       0.0001 |       0.0001 |       0.0001 |       0.0000 |       0.0000 |       0.0000 |       0.0000 |       0.0000 |       0.0000 |       0.0000 |       0.0000 |       0.0000 |       0.0000 |       0.0000 |       0.0000 |       0.0000 |       0.0000 |       0.0000 |       0.0000 |       0.0000 |       0.0000 |       0.0000 |       0.0000 |       0.0000 |       0.0000 |       0.0000 |       0.0000 |       0.0000 |       0.0000 |       0.0000 |       0.0000 |       0.0000 |       0.0000 |       0.0000 |       0.0000 |
il1.wb_rate                                 0.0000 |       0.0000 |       0.0000 |       0.0000 |       0.0000 |       0.0000 |       0.0000 |       0.0000 |       0.0000 |       0.0000 |       0.0000 |       0.0000 |       0.0000 |       0.0000 |       0.0000 |       0.0000 |       0.0000 |       0.0000 |       0.0000 |       0.0000 |       0.0000 |       0.0000 |       0.0000 |       0.0000 |       0.0000 |       0.0000 |       0.0000 |       0.0000 |       0.0000 |       0.0000 |       0.0000 |       0.0000 |       0.0000 |       0.0000 |       0.0000 |       0.0000 |       0.0000 |       0.0000 |       0.0000 |       0.0000 |       0.0000 |       0.0000 |       0.0000 |       0.0000 |
il1.inv_rate                                0.0000 |       0.0000 |       0.0000 |       0.0000 |       0.0000 |       0.0000 |       0.0000 |       0.0000 |       0.0000 |       0.0000 |       0.0000 |       0.0000 |       0.0000 |       0.0000 |       0.0000 |       0.0000 |       0.0000 |       0.0000 |       0.0000 |       0.0000 |       0.0000 |       0.0000 |       0.0000 |       0.0000 |       0.0000 |       0.0000 |       0.0000 |       0.0000 |       0.0000 |       0.0000 |       0.0000 |       0.0000 |       0.0000 |       0.0000 |       0.0000 |       0.0000 |       0.0000 |       0.0000 |       0.0000 |       0.0000 |       0.0000 |       0.0000 |       0.0000 |       0.0000 |
dl1.accesses                                141831 |       141831 |       141831 |       141831 |       289551 |       289551 |       289551 |       289551 |       613667 |       613667 |       613667 |       613667 |      1291998 |      1291998 |      1291998 |      1291998 |      2725605 |      2725605 |      2725605 |      2725605 |      5714932 |      5714932 |      5714932 |      5714932 |     12023444 |     12023444 |     12023444 |     12023444 |     25362495 |     25362495 |     25362495 |     25362495 |     52653722 |     52653722 |     52653722 |     52653722 |    109957874 |    109957874 |    109957874 |    109957874 |    227919285 |    227919285 |    227919285 |    227919285 |
dl1.hits                                    139108 |       139108 |       139055 |       139055 |       284918 |       284918 |       284815 |       284815 |       602165 |       602165 |       601664 |       601664 |      1264813 |      1264813 |      1264953 |      1264953 |      2661278 |      2661278 |      2660868 |      2660868 |      5567044 |      5567044 |      5567660 |      5567660 |     11681550 |     11681550 |     11684174 |     11684174 |     24569832 |     24569832 |     24578301 |     24578301 |     50962790 |     50962790 |     50982011 |     50982011 |    106215811 |    106215811 |    106262011 |    106262011 |    219946117 |    219946117 |    220054561 |    220054561 |
dl1.misses                                    2723 |         2723 |         2776 |         2776 |         4633 |         4633 |         4736 |         4736 |        11502 |        11502 |        12003 |        12003 |        27185 |        27185 |        27045 |        27045 |        64327 |        64327 |        64737 |        64737 |       147888 |       147888 |       147272 |       147272 |       341894 |       341894 |       339270 |       339270 |       792663 |       792663 |       784194 |       784194 |      1690932 |      1690932 |      1671711 |      1671711 |      3742063 |      3742063 |      3695863 |      3695863 |      7973168 |      7973168 |      7864724 |      7864724 |
dl1.replacements                              2467 |         2467 |         2520 |         2520 |         4377 |         4377 |         4480 |         4480 |        11246 |        11246 |        11747 |        11747 |        26929 |        26929 |        26789 |        26789 |        64071 |        64071 |        64481 |        64481 |       147632 |       147632 |       147016 |       147016 |       341638 |       341638 |       339014 |       339014 |       792407 |       792407 |       783938 |       783938 |      1690676 |      1690676 |      1671455 |      1671455 |      3741807 |      3741807 |      3695607 |      3695607 |      7972912 |      7972912 |      7864468 |      7864468 |
dl1.writebacks                                2053 |         2053 |         2119 |         2119 |         4290 |         4290 |         4446 |         4446 |        10867 |        10867 |        11397 |        11397 |        25616 |        25616 |        25683 |        25683 |        60357 |        60357 |        61363 |        61363 |       139334 |       139334 |       139956 |       139956 |       314149 |       314149 |       315037 |       315037 |       709768 |       709768 |       709376 |       709376 |      1541223 |      1541223 |      1539320 |      1539320 |      3405530 |      3405530 |      3399436 |      3399436 |      7347865 |      7347865 |      7328511 |      7328511 |
dl1.invalidations                                0 |            0 |            0 |            0 |            0 |            0 |            0 |            0 |            0 |            0 |            0 |            0 |            0 |            0 |            0 |            0 |            0 |            0 |            0 |            0 |            0 |            0 |            0 |            0 |            0 |            0 |            0 |            0 |            0 |            0 |            0 |            0 |            0 |            0 |            0 |            0 |            0 |            0 |            0 |            0 |            0 |            0 |            0 |            0 |
dl1.miss_rate                               0.0192 |       0.0192 |       0.0196 |       0.0196 |       0.0160 |       0.0160 |       0.0164 |       0.0164 |       0.0187 |       0.0187 |       0.0196 |       0.0196 |       0.0210 |       0.0210 |       0.0209 |       0.0209 |       0.0236 |       0.0236 |       0.0238 |       0.0238 |       0.0259 |       0.0259 |       0.0258 |       0.0258 |       0.0284 |       0.0284 |       0.0282 |       0.0282 |       0.0313 |       0.0313 |       0.0309 |       0.0309 |       0.0321 |       0.0321 |       0.0317 |       0.0317 |       0.0340 |       0.0340 |       0.0336 |       0.0336 |       0.0350 |       0.0350 |       0.0345 |       0.0345 |
dl1.repl_rate                               0.0174 |       0.0174 |       0.0178 |       0.0178 |       0.0151 |       0.0151 |       0.0155 |       0.0155 |       0.0183 |       0.0183 |       0.0191 |       0.0191 |       0.0208 |       0.0208 |       0.0207 |       0.0207 |       0.0235 |       0.0235 |       0.0237 |       0.0237 |       0.0258 |       0.0258 |       0.0257 |       0.0257 |       0.0284 |       0.0284 |       0.0282 |       0.0282 |       0.0312 |       0.0312 |       0.0309 |       0.0309 |       0.0321 |       0.0321 |       0.0317 |       0.0317 |       0.0340 |       0.0340 |       0.0336 |       0.0336 |       0.0350 |       0.0350 |       0.0345 |       0.0345 |
dl1.wb_rate                                 0.0145 |       0.0145 |       0.0149 |       0.0149 |       0.0148 |       0.0148 |       0.0154 |       0.0154 |       0.0177 |       0.0177 |       0.0186 |       0.0186 |       0.0198 |       0.0198 |       0.0199 |       0.0199 |       0.0221 |       0.0221 |       0.0225 |       0.0225 |       0.0244 |       0.0244 |       0.0245 |       0.0245 |       0.0261 |       0.0261 |       0.0262 |       0.0262 |       0.0280 |       0.0280 |       0.0280 |       0.0280 |       0.0293 |       0.0293 |       0.0292 |       0.0292 |       0.0310 |       0.0310 |       0.0309 |       0.0309 |       0.0322 |       0.0322 |       0.0322 |       0.0322 |
dl1.inv_rate                                0.0000 |       0.0000 |       0.0000 |       0.0000 |       0.0000 |       0.0000 |       0.0000 |       0.0000 |       0.0000 |       0.0000 |       0.0000 |       0.0000 |       0.0000 |       0.0000 |       0.0000 |       0.0000 |       0.0000 |       0.0000 |       0.0000 |       0.0000 |       0.0000 |       0.0000 |       0.0000 |       0.0000 |       0.0000 |       0.0000 |       0.0000 |       0.0000 |       0.0000 |       0.0000 |       0.0000 |       0.0000 |       0.0000 |       0.0000 |       0.0000 |       0.0000 |       0.0000 |       0.0000 |       0.0000 |       0.0000 |       0.0000 |       0.0000 |       0.0000 |       0.0000 |
dl2.accesses                                  5228 |         5228 |         5316 |         5316 |         9378 |         9378 |         9607 |         9607 |        22839 |        22839 |        23834 |        23834 |        53262 |        53262 |        53162 |        53162 |       125138 |       125138 |       126526 |       126526 |       287673 |       287673 |       287650 |       287650 |       656502 |       656502 |       654739 |       654739 |      1502891 |      1502891 |      1494003 |      1494003 |      3232608 |      3232608 |      3211456 |      3211456 |      7148050 |      7148050 |      7095729 |      7095729 |     15321492 |     15321492 |     15193667 |     15193667 |
dl2.hits                                      3857 |         3857 |         3960 |         3960 |         7494 |         7494 |         7736 |         7736 |        19929 |        19929 |        20941 |        20941 |        48307 |        48307 |        48219 |        48219 |       116093 |       116093 |       117493 |       117493 |       270439 |       270439 |       270428 |       270428 |       622876 |       622876 |       621125 |       621125 |      1436496 |      1435799 |      1427620 |      1394701 |      3100018 |      2900507 |      3001123 |      2823516 |      6478976 |      6118936 |      6408609 |      5951041 |     13182248 |     12586401 |     12933485 |     12287929 |
dl2.misses                                    1371 |         1371 |         1356 |         1356 |         1884 |         1884 |         1871 |         1871 |         2910 |         2910 |         2893 |         2893 |         4955 |         4955 |         4943 |         4943 |         9045 |         9045 |         9033 |         9033 |        17234 |        17234 |        17222 |        17222 |        33626 |        33626 |        33614 |        33614 |        66395 |        67092 |        66383 |        99302 |       132590 |       332101 |       210333 |       387940 |       669074 |      1029114 |       687120 |      1144688 |      2139244 |      2735091 |      2260182 |      2905738 |
dl2.replacements                               147 |          147 |            0 |            0 |          146 |          146 |            0 |            0 |          150 |          150 |            0 |            0 |          145 |          145 |            0 |            0 |          145 |          145 |            0 |            0 |          145 |          145 |            0 |            0 |          145 |          145 |            0 |            0 |          145 |         1556 |            0 |        33766 |         1518 |       266565 |        79261 |       322404 |       538002 |       963578 |       556048 |      1079152 |      2008172 |      2669555 |      2129110 |      2840202 |
dl2.writebacks                                  82 |           82 |            0 |            0 |           83 |           83 |            0 |            0 |           85 |           85 |            0 |            0 |           84 |           84 |            0 |            0 |           84 |           84 |            0 |            0 |           84 |           84 |            0 |            0 |           84 |           84 |            0 |            0 |           84 |         1298 |            0 |        33523 |         1269 |       265875 |        79036 |       318031 |       536948 |       930788 |       554856 |      1031138 |      1942587 |      2572192 |      2056229 |      2723431 |
dl2.invalidations                                0 |            0 |            0 |            0 |            0 |            0 |            0 |            0 |            0 |            0 |            0 |            0 |            0 |            0 |            0 |            0 |            0 |            0 |            0 |            0 |            0 |            0 |            0 |            0 |            0 |            0 |            0 |            0 |            0 |            0 |            0 |            0 |            0 |            0 |            0 |            0 |            0 |            0 |            0 |            0 |            0 |            0 |            0 |            0 |
dl2.miss_rate                               0.2622 |       0.2622 |       0.2551 |       0.2551 |       0.2009 |       0.2009 |       0.1948 |       0.1948 |       0.1274 |       0.1274 |       0.1214 |       0.1214 |       0.0930 |       0.0930 |       0.0930 |       0.0930 |       0.0723 |       0.0723 |       0.0714 |       0.0714 |       0.0599 |       0.0599 |       0.0599 |       0.0599 |       0.0512 |       0.0512 |       0.0513 |       0.0513 |       0.0442 |       0.0446 |       0.0444 |       0.0665 |       0.0410 |       0.1027 |       0.0655 |       0.1208 |       0.0936 |       0.1440 |       0.0968 |       0.1613 |       0.1396 |       0.1785 |       0.1488 |       0.1912 |
dl2.repl_rate                               0.0281 |       0.0281 |       0.0000 |       0.0000 |       0.0156 |       0.0156 |       0.0000 |       0.0000 |       0.0066 |       0.0066 |       0.0000 |       0.0000 |       0.0027 |       0.0027 |       0.0000 |       0.0000 |       0.0012 |       0.0012 |       0.0000 |       0.0000 |       0.0005 |       0.0005 |       0.0000 |       0.0000 |       0.0002 |       0.0002 |       0.0000 |       0.0000 |       0.0001 |       0.0010 |       0.0000 |       0.0226 |       0.0005 |       0.0825 |       0.0247 |       0.1004 |       0.0753 |       0.1348 |       0.0784 |       0.1521 |       0.1311 |       0.1742 |       0.1401 |       0.1869 |
dl2.wb_rate                                 0.0157 |       0.0157 |       0.0000 |       0.0000 |       0.0089 |       0.0089 |       0.0000 |       0.0000 |       0.0037 |       0.0037 |       0.0000 |       0.0000 |       0.0016 |       0.0016 |       0.0000 |       0.0000 |       0.0007 |       0.0007 |       0.0000 |       0.0000 |       0.0003 |       0.0003 |       0.0000 |       0.0000 |       0.0001 |       0.0001 |       0.0000 |       0.0000 |       0.0001 |       0.0009 |       0.0000 |       0.0224 |       0.0004 |       0.0822 |       0.0246 |       0.0990 |       0.0751 |       0.1302 |       0.0782 |       0.1453 |       0.1268 |       0.1679 |       0.1353 |       0.1792 |
dl2.inv_rate                                0.0000 |       0.0000 |       0.0000 |       0.0000 |       0.0000 |       0.0000 |       0.0000 |       0.0000 |       0.0000 |       0.0000 |       0.0000 |       0.0000 |       0.0000 |       0.0000 |       0.0000 |       0.0000 |       0.0000 |       0.0000 |       0.0000 |       0.0000 |       0.0000 |       0.0000 |       0.0000 |       0.0000 |       0.0000 |       0.0000 |       0.0000 |       0.0000 |       0.0000 |       0.0000 |       0.0000 |       0.0000 |       0.0000 |       0.0000 |       0.0000 |       0.0000 |       0.0000 |       0.0000 |       0.0000 |       0.0000 |       0.0000 |       0.0000 |       0.0000 |       0.0000 |
itlb.accesses                               482074 |       482074 |       482074 |       482074 |       979568 |       979568 |       979568 |       979568 |      2125309 |      2125309 |      2125309 |      2125309 |      4535098 |      4535098 |      4535098 |      4535098 |      9735256 |      9735256 |      9735256 |      9735256 |     20591663 |     20591663 |     20591663 |     20591663 |     43813551 |     43813551 |     43813551 |     43813551 |     93842420 |     93842420 |     93842420 |     93842420 |    195237821 |    195237821 |    195237821 |    195237821 |    411301857 |    411301857 |    411301857 |    411301857 |    854966829 |    854966829 |    854966829 |    854966829 |
itlb.hits                                   482063 |       482063 |       482063 |       482063 |       979557 |       979557 |       979557 |       979557 |      2125298 |      2125298 |      2125298 |      2125298 |      4535088 |      4535088 |      4535088 |      4535088 |      9735246 |      9735246 |      9735246 |      9735246 |     20591653 |     20591653 |     20591653 |     20591653 |     43813541 |     43813541 |     43813541 |     43813541 |     93842410 |     93842410 |     93842410 |     93842410 |    195237811 |    195237811 |    195237811 |    195237811 |    411301847 |    411301847 |    411301847 |    411301847 |    854966819 |    854966819 |    854966819 |    854966819 |
itlb.misses                                     11 |           11 |           11 |           11 |           11 |           11 |           11 |           11 |           11 |           11 |           11 |           11 |           10 |           10 |           10 |           10 |           10 |           10 |           10 |           10 |           10 |           10 |           10 |           10 |           10 |           10 |           10 |           10 |           10 |           10 |           10 |           10 |           10 |           10 |           10 |           10 |           10 |           10 |           10 |           10 |           10 |           10 |           10 |           10 |
itlb.replacements                                0 |            0 |            0 |            0 |            0 |            0 |            0 |            0 |            0 |            0 |            0 |            0 |            0 |            0 |            0 |            0 |            0 |            0 |            0 |            0 |            0 |            0 |            0 |            0 |            0 |            0 |            0 |            0 |            0 |            0 |            0 |            0 |            0 |            0 |            0 |            0 |            0 |            0 |            0 |            0 |            0 |            0 |            0 |            0 |
itlb.writebacks                                  0 |            0 |            0 |            0 |            0 |            0 |            0 |            0 |            0 |            0 |            0 |            0 |            0 |            0 |            0 |            0 |            0 |            0 |            0 |            0 |            0 |            0 |            0 |            0 |            0 |            0 |            0 |            0 |            0 |            0 |            0 |            0 |            0 |            0 |            0 |            0 |            0 |            0 |            0 |            0 |            0 |            0 |            0 |            0 |
itlb.invalidations                               0 |            0 |            0 |            0 |            0 |            0 |            0 |            0 |            0 |            0 |            0 |            0 |            0 |            0 |            0 |            0 |            0 |            0 |            0 |            0 |            0 |            0 |            0 |            0 |            0 |            0 |            0 |            0 |            0 |            0 |            0 |            0 |            0 |            0 |            0 |            0 |            0 |            0 |            0 |            0 |            0 |            0 |            0 |            0 |
itlb.miss_rate                              0.0000 |       0.0000 |       0.0000 |       0.0000 |       0.0000 |       0.0000 |       0.0000 |       0.0000 |       0.0000 |       0.0000 |       0.0000 |       0.0000 |       0.0000 |       0.0000 |       0.0000 |       0.0000 |       0.0000 |       0.0000 |       0.0000 |       0.0000 |       0.0000 |       0.0000 |       0.0000 |       0.0000 |       0.0000 |       0.0000 |       0.0000 |       0.0000 |       0.0000 |       0.0000 |       0.0000 |       0.0000 |       0.0000 |       0.0000 |       0.0000 |       0.0000 |       0.0000 |       0.0000 |       0.0000 |       0.0000 |       0.0000 |       0.0000 |       0.0000 |       0.0000 |
itlb.repl_rate                              0.0000 |       0.0000 |       0.0000 |       0.0000 |       0.0000 |       0.0000 |       0.0000 |       0.0000 |       0.0000 |       0.0000 |       0.0000 |       0.0000 |       0.0000 |       0.0000 |       0.0000 |       0.0000 |       0.0000 |       0.0000 |       0.0000 |       0.0000 |       0.0000 |       0.0000 |       0.0000 |       0.0000 |       0.0000 |       0.0000 |       0.0000 |       0.0000 |       0.0000 |       0.0000 |       0.0000 |       0.0000 |       0.0000 |       0.0000 |       0.0000 |       0.0000 |       0.0000 |       0.0000 |       0.0000 |       0.0000 |       0.0000 |       0.0000 |       0.0000 |       0.0000 |
itlb.wb_rate                                0.0000 |       0.0000 |       0.0000 |       0.0000 |       0.0000 |       0.0000 |       0.0000 |       0.0000 |       0.0000 |       0.0000 |       0.0000 |       0.0000 |       0.0000 |       0.0000 |       0.0000 |       0.0000 |       0.0000 |       0.0000 |       0.0000 |       0.0000 |       0.0000 |       0.0000 |       0.0000 |       0.0000 |       0.0000 |       0.0000 |       0.0000 |       0.0000 |       0.0000 |       0.0000 |       0.0000 |       0.0000 |       0.0000 |       0.0000 |       0.0000 |       0.0000 |       0.0000 |       0.0000 |       0.0000 |       0.0000 |       0.0000 |       0.0000 |       0.0000 |       0.0000 |
itlb.inv_rate                               0.0000 |       0.0000 |       0.0000 |       0.0000 |       0.0000 |       0.0000 |       0.0000 |       0.0000 |       0.0000 |       0.0000 |       0.0000 |       0.0000 |       0.0000 |       0.0000 |       0.0000 |       0.0000 |       0.0000 |       0.0000 |       0.0000 |       0.0000 |       0.0000 |       0.0000 |       0.0000 |       0.0000 |       0.0000 |       0.0000 |       0.0000 |       0.0000 |       0.0000 |       0.0000 |       0.0000 |       0.0000 |       0.0000 |       0.0000 |       0.0000 |       0.0000 |       0.0000 |       0.0000 |       0.0000 |       0.0000 |       0.0000 |       0.0000 |       0.0000 |       0.0000 |
dtlb.accesses                               141831 |       141831 |       141831 |       141831 |       289551 |       289551 |       289551 |       289551 |       613667 |       613667 |       613667 |       613667 |      1291998 |      1291998 |      1291998 |      1291998 |      2725605 |      2725605 |      2725605 |      2725605 |      5714932 |      5714932 |      5714932 |      5714932 |     12023444 |     12023444 |     12023444 |     12023444 |     25362495 |     25362495 |     25362495 |     25362495 |     52653722 |     52653722 |     52653722 |     52653722 |    109957874 |    109957874 |    109957874 |    109957874 |    227919285 |    227919285 |    227919285 |    227919285 |
dtlb.hits                                   141819 |       141819 |       141819 |       141819 |       289535 |       289535 |       289535 |       289535 |       613643 |       613643 |       613643 |       613643 |      1291958 |      1291958 |      1291958 |      1291958 |      2725533 |      2725533 |      2725533 |      2725533 |      5714764 |      5714764 |      5714764 |      5714764 |     12022722 |     12022722 |     12022722 |     12022722 |     25360144 |     25360144 |     25360144 |     25360144 |     52647798 |     52647798 |     52647798 |     52647798 |    109943690 |    109943690 |    109943690 |    109943690 |    227887196 |    227887196 |    227887196 |    227887196 |
dtlb.misses                                     12 |           12 |           12 |           12 |           16 |           16 |           16 |           16 |           24 |           24 |           24 |           24 |           40 |           40 |           40 |           40 |           72 |           72 |           72 |           72 |          168 |          168 |          168 |          168 |          722 |          722 |          722 |          722 |         2351 |         2351 |         2351 |         2351 |         5924 |         5924 |         5924 |         5924 |        14184 |        14184 |        14184 |        14184 |        32089 |        32089 |        32089 |        32089 |
dtlb.replacements                                0 |            0 |            0 |            0 |            0 |            0 |            0 |            0 |            0 |            0 |            0 |            0 |            0 |            0 |            0 |            0 |            0 |            0 |            0 |            0 |           40 |           40 |           40 |           40 |          594 |          594 |          594 |          594 |         2223 |         2223 |         2223 |         2223 |         5796 |         5796 |         5796 |         5796 |        14056 |        14056 |        14056 |        14056 |        31961 |        31961 |        31961 |        31961 |
dtlb.writebacks                                  0 |            0 |            0 |            0 |            0 |            0 |            0 |            0 |            0 |            0 |            0 |            0 |            0 |            0 |            0 |            0 |            0 |            0 |            0 |            0 |           38 |           38 |           38 |           38 |          592 |          592 |          592 |          592 |         2221 |         2221 |         2221 |         2221 |         5793 |         5793 |         5793 |         5793 |        14054 |        14054 |        14054 |        14054 |        31959 |        31959 |        31959 |        31959 |
dtlb.invalidations                               0 |            0 |            0 |            0 |            0 |            0 |            0 |            0 |            0 |            0 |            0 |            0 |            0 |            0 |            0 |            0 |            0 |            0 |            0 |            0 |            0 |            0 |            0 |            0 |            0 |            0 |            0 |            0 |            0 |            0 |            0 |            0 |            0 |            0 |            0 |            0 |            0 |            0 |            0 |            0 |            0 |            0 |            0 |            0 |
dtlb.miss_rate                              0.0001 |       0.0001 |       0.0001 |       0.0001 |       0.0001 |       0.0001 |       0.0001 |       0.0001 |       0.0000 |       0.0000 |       0.0000 |       0.0000 |       0.0000 |       0.0000 |       0.0000 |       0.0000 |       0.0000 |       0.0000 |       0.0000 |       0.0000 |       0.0000 |       0.0000 |       0.0000 |       0.0000 |       0.0001 |       0.0001 |       0.0001 |       0.0001 |       0.0001 |       0.0001 |       0.0001 |       0.0001 |       0.0001 |       0.0001 |       0.0001 |       0.0001 |       0.0001 |       0.0001 |       0.0001 |       0.0001 |       0.0001 |       0.0001 |       0.0001 |       0.0001 |
dtlb.repl_rate                              0.0000 |       0.0000 |       0.0000 |       0.0000 |       0.0000 |       0.0000 |       0.0000 |       0.0000 |       0.0000 |       0.0000 |       0.0000 |       0.0000 |       0.0000 |       0.0000 |       0.0000 |       0.0000 |       0.0000 |       0.0000 |       0.0000 |       0.0000 |       0.0000 |       0.0000 |       0.0000 |       0.0000 |       0.0000 |       0.0000 |       0.0000 |       0.0000 |       0.0001 |       0.0001 |       0.0001 |       0.0001 |       0.0001 |       0.0001 |       0.0001 |       0.0001 |       0.0001 |       0.0001 |       0.0001 |       0.0001 |       0.0001 |       0.0001 |       0.0001 |       0.0001 |
dtlb.wb_rate                                0.0000 |       0.0000 |       0.0000 |       0.0000 |       0.0000 |       0.0000 |       0.0000 |       0.0000 |       0.0000 |       0.0000 |       0.0000 |       0.0000 |       0.0000 |       0.0000 |       0.0000 |       0.0000 |       0.0000 |       0.0000 |       0.0000 |       0.0000 |       0.0000 |       0.0000 |       0.0000 |       0.0000 |       0.0000 |       0.0000 |       0.0000 |       0.0000 |       0.0001 |       0.0001 |       0.0001 |       0.0001 |       0.0001 |       0.0001 |       0.0001 |       0.0001 |       0.0001 |       0.0001 |       0.0001 |       0.0001 |       0.0001 |       0.0001 |       0.0001 |       0.0001 |
dtlb.inv_rate                               0.0000 |       0.0000 |       0.0000 |       0.0000 |       0.0000 |       0.0000 |       0.0000 |       0.0000 |       0.0000 |       0.0000 |       0.0000 |       0.0000 |       0.0000 |       0.0000 |       0.0000 |       0.0000 |       0.0000 |       0.0000 |       0.0000 |       0.0000 |       0.0000 |       0.0000 |       0.0000 |       0.0000 |       0.0000 |       0.0000 |       0.0000 |       0.0000 |       0.0000 |       0.0000 |       0.0000 |       0.0000 |       0.0000 |       0.0000 |       0.0000 |       0.0000 |       0.0000 |       0.0000 |       0.0000 |       0.0000 |       0.0000 |       0.0000 |       0.0000 |       0.0000 |
ld_text_base                            0x00400000 |   0x00400000 |   0x00400000 |   0x00400000 |   0x00400000 |   0x00400000 |   0x00400000 |   0x00400000 |   0x00400000 |   0x00400000 |   0x00400000 |   0x00400000 |   0x00400000 |   0x00400000 |   0x00400000 |   0x00400000 |   0x00400000 |   0x00400000 |   0x00400000 |   0x00400000 |   0x00400000 |   0x00400000 |   0x00400000 |   0x00400000 |   0x00400000 |   0x00400000 |   0x00400000 |   0x00400000 |   0x00400000 |   0x00400000 |   0x00400000 |   0x00400000 |   0x00400000 |   0x00400000 |   0x00400000 |   0x00400000 |   0x00400000 |   0x00400000 |   0x00400000 |   0x00400000 |   0x00400000 |   0x00400000 |   0x00400000 |   0x00400000 |
ld_text_size                                 73104 |        73104 |        73104 |        73104 |        73136 |        73136 |        73136 |        73136 |        73152 |        73152 |        73152 |        73152 |        73168 |        73168 |        73168 |        73168 |        73168 |        73168 |        73168 |        73168 |        73168 |        73168 |        73168 |        73168 |        73168 |        73168 |        73168 |        73168 |        73168 |        73168 |        73168 |        73168 |        73168 |        73168 |        73168 |        73168 |        73168 |        73168 |        73168 |        73168 |        73168 |        73168 |        73168 |        73168 |
ld_data_base                            0x10000000 |   0x10000000 |   0x10000000 |   0x10000000 |   0x10000000 |   0x10000000 |   0x10000000 |   0x10000000 |   0x10000000 |   0x10000000 |   0x10000000 |   0x10000000 |   0x10000000 |   0x10000000 |   0x10000000 |   0x10000000 |   0x10000000 |   0x10000000 |   0x10000000 |   0x10000000 |   0x10000000 |   0x10000000 |   0x10000000 |   0x10000000 |   0x10000000 |   0x10000000 |   0x10000000 |   0x10000000 |   0x10000000 |   0x10000000 |   0x10000000 |   0x10000000 |   0x10000000 |   0x10000000 |   0x10000000 |   0x10000000 |   0x10000000 |   0x10000000 |   0x10000000 |   0x10000000 |   0x10000000 |   0x10000000 |   0x10000000 |   0x10000000 |
ld_data_size                                  8192 |         8192 |         8192 |         8192 |         8192 |         8192 |         8192 |         8192 |         8192 |         8192 |         8192 |         8192 |         8192 |         8192 |         8192 |         8192 |         8192 |         8192 |         8192 |         8192 |         8192 |         8192 |         8192 |         8192 |         8192 |         8192 |         8192 |         8192 |         8192 |         8192 |         8192 |         8192 |         8192 |         8192 |         8192 |         8192 |         8192 |         8192 |         8192 |         8192 |         8192 |         8192 |         8192 |         8192 |
ld_stack_base                           0x7fffc000 |   0x7fffc000 |   0x7fffc000 |   0x7fffc000 |   0x7fffc000 |   0x7fffc000 |   0x7fffc000 |   0x7fffc000 |   0x7fffc000 |   0x7fffc000 |   0x7fffc000 |   0x7fffc000 |   0x7fffc000 |   0x7fffc000 |   0x7fffc000 |   0x7fffc000 |   0x7fffc000 |   0x7fffc000 |   0x7fffc000 |   0x7fffc000 |   0x7fffc000 |   0x7fffc000 |   0x7fffc000 |   0x7fffc000 |   0x7fffc000 |   0x7fffc000 |   0x7fffc000 |   0x7fffc000 |   0x7fffc000 |   0x7fffc000 |   0x7fffc000 |   0x7fffc000 |   0x7fffc000 |   0x7fffc000 |   0x7fffc000 |   0x7fffc000 |   0x7fffc000 |   0x7fffc000 |   0x7fffc000 |   0x7fffc000 |   0x7fffc000 |   0x7fffc000 |   0x7fffc000 |   0x7fffc000 |
ld_stack_size                                16384 |        16384 |        16384 |        16384 |        16384 |        16384 |        16384 |        16384 |        16384 |        16384 |        16384 |        16384 |        16384 |        16384 |        16384 |        16384 |        16384 |        16384 |        16384 |        16384 |        16384 |        16384 |        16384 |        16384 |        16384 |        16384 |        16384 |        16384 |        16384 |        16384 |        16384 |        16384 |        16384 |        16384 |        16384 |        16384 |        16384 |        16384 |        16384 |        16384 |        16384 |        16384 |        16384 |        16384 |
ld_prog_entry                           0x00400140 |   0x00400140 |   0x00400140 |   0x00400140 |   0x00400140 |   0x00400140 |   0x00400140 |   0x00400140 |   0x00400140 |   0x00400140 |   0x00400140 |   0x00400140 |   0x00400140 |   0x00400140 |   0x00400140 |   0x00400140 |   0x00400140 |   0x00400140 |   0x00400140 |   0x00400140 |   0x00400140 |   0x00400140 |   0x00400140 |   0x00400140 |   0x00400140 |   0x00400140 |   0x00400140 |   0x00400140 |   0x00400140 |   0x00400140 |   0x00400140 |   0x00400140 |   0x00400140 |   0x00400140 |   0x00400140 |   0x00400140 |   0x00400140 |   0x00400140 |   0x00400140 |   0x00400140 |   0x00400140 |   0x00400140 |   0x00400140 |   0x00400140 |
ld_environ_base                         0x7fff8000 |   0x7fff8000 |   0x7fff8000 |   0x7fff8000 |   0x7fff8000 |   0x7fff8000 |   0x7fff8000 |   0x7fff8000 |   0x7fff8000 |   0x7fff8000 |   0x7fff8000 |   0x7fff8000 |   0x7fff8000 |   0x7fff8000 |   0x7fff8000 |   0x7fff8000 |   0x7fff8000 |   0x7fff8000 |   0x7fff8000 |   0x7fff8000 |   0x7fff8000 |   0x7fff8000 |   0x7fff8000 |   0x7fff8000 |   0x7fff8000 |   0x7fff8000 |   0x7fff8000 |   0x7fff8000 |   0x7fff8000 |   0x7fff8000 |   0x7fff8000 |   0x7fff8000 |   0x7fff8000 |   0x7fff8000 |   0x7fff8000 |   0x7fff8000 |   0x7fff8000 |   0x7fff8000 |   0x7fff8000 |   0x7fff8000 |   0x7fff8000 |   0x7fff8000 |   0x7fff8000 |   0x7fff8000 |
ld_target_big_endian                             0 |            0 |            0 |            0 |            0 |            0 |            0 |            0 |            0 |            0 |            0 |            0 |            0 |            0 |            0 |            0 |            0 |            0 |            0 |            0 |            0 |            0 |            0 |            0 |            0 |            0 |            0 |            0 |            0 |            0 |            0 |            0 |            0 |            0 |            0 |            0 |            0 |            0 |            0 |            0 |            0 |            0 |            0 |            0 |
mem.page_count                                  30 |           30 |           30 |           30 |           34 |           34 |           34 |           34 |           42 |           42 |           42 |           42 |           58 |           58 |           58 |           58 |           90 |           90 |           90 |           90 |          154 |          154 |          154 |          154 |          282 |          282 |          282 |          282 |          538 |          538 |          538 |          538 |         1050 |         1050 |         1050 |         1050 |         2074 |         2074 |         2074 |         2074 |         4122 |         4122 |         4122 |         4122 |
mem.page_mem                                  120k |         120k |         120k |         120k |         136k |         136k |         136k |         136k |         168k |         168k |         168k |         168k |         232k |         232k |         232k |         232k |         360k |         360k |         360k |         360k |         616k |         616k |         616k |         616k |        1128k |        1128k |        1128k |        1128k |        2152k |        2152k |        2152k |        2152k |        4200k |        4200k |        4200k |        4200k |        8296k |        8296k |        8296k |        8296k |       16488k |       16488k |       16488k |       16488k |
mem.ptab_misses                                 30 |           30 |           30 |           30 |           34 |           34 |           34 |           34 |           42 |           42 |           42 |           42 |           58 |           58 |           58 |           58 |           90 |           90 |           90 |           90 |          154 |          154 |          154 |          154 |          282 |          282 |          282 |          282 |          538 |          538 |          538 |          538 |         1050 |         1050 |         1050 |         1050 |         2074 |         2074 |         2074 |         2074 |         4122 |         4122 |         4122 |         4122 |
mem.ptab_accesses                          2665206 |      2665206 |      2665206 |      2665206 |      4950814 |      4950814 |      4950814 |      4950814 |     10182106 |     10182106 |     10182106 |     10182106 |     21178020 |     21178020 |     21178020 |     21178020 |     44845866 |     44845866 |     44845866 |     44845866 |     94250148 |     94250148 |     94250148 |     94250148 |    199754724 |    199754724 |    199754724 |    199754724 |    426548302 |    426548302 |    426548302 |    426548302 |    886712360 |    886712360 |    886712360 |    886712360 |   1865576808 |   1865576808 |   1865576808 |   1865576808 |   3876159518 |   3876159518 |   3876159518 |   3876159518 |
mem.ptab_miss_rate                          0.0000 |       0.0000 |       0.0000 |       0.0000 |       0.0000 |       0.0000 |       0.0000 |       0.0000 |       0.0000 |       0.0000 |       0.0000 |       0.0000 |       0.0000 |       0.0000 |       0.0000 |       0.0000 |       0.0000 |       0.0000 |       0.0000 |       0.0000 |       0.0000 |       0.0000 |       0.0000 |       0.0000 |       0.0000 |       0.0000 |       0.0000 |       0.0000 |       0.0000 |       0.0000 |       0.0000 |       0.0000 |       0.0000 |       0.0000 |       0.0000 |       0.0000 |       0.0000 |       0.0000 |       0.0000 |       0.0000 |       0.0000 |       0.0000 |       0.0000 |       0.0000 |
-------------------------------------------------------------------------------------------------
sim-bpred                                     4096 |         4096 |         4096 |         4096 |         4096 |         4096 |         4096 |         8192 |         8192 |         8192 |         8192 |         8192 |         8192 |         8192 |        16384 |        16384 |        16384 |        16384 |        16384 |        16384 |        16384 |        32768 |        32768 |        32768 |        32768 |        32768 |        32768 |        32768 |        65536 |        65536 |        65536 |        65536 |        65536 |        65536 |        65536 |       131072 |       131072 |       131072 |       131072 |       131072 |       131072 |       131072 |       262144 |       262144 |       262144 |       262144 |       262144 |       262144 |       262144 |       524288 |       524288 |       524288 |       524288 |       524288 |       524288 |       524288 |      1048576 |      1048576 |      1048576 |      1048576 |      1048576 |      1048576 |      1048576 |      2097152 |      2097152 |      2097152 |      2097152 |      2097152 |      2097152 |      2097152 |      4194304 |      4194304 |      4194304 |      4194304 |      4194304 |      4194304 |      4194304 |
-bpred bimod -bpred:bimod 512
-bpred bimod -bpred:bimod 1024
-bpred bimod -bpred:bimod 2048
-bpred 2lev -bpred:2lev 1 512 10 1
-bpred 2lev -bpred:2lev 1 1024 10 1
-bpred 2lev -bpred:2lev 1 2048 10 1
-bpred 2lev -bpred:2lev 1 4096 10 1
-------------------------------------------------------------------------------------------------
sim_num_insn                                482074 |       482074 |       482074 |       482074 |       482074 |       482074 |       482074 |       979568 |       979568 |       979568 |       979568 |       979568 |       979568 |       979568 |      2125309 |      2125309 |      2125309 |      2125309 |      2125309 |      2125309 |      2125309 |      4535098 |      4535098 |      4535098 |      4535098 |      4535098 |      4535098 |      4535098 |      9735256 |      9735256 |      9735256 |      9735256 |      9735256 |      9735256 |      9735256 |     20591663 |     20591663 |     20591663 |     20591663 |     20591663 |     20591663 |     20591663 |     43813551 |     43813551 |     43813551 |     43813551 |     43813551 |     43813551 |     43813551 |     93842420 |     93842420 |     93842420 |     93842420 |     93842420 |     93842420 |     93842420 |    195237821 |    195237821 |    195237821 |    195237821 |    195237821 |    195237821 |    195237821 |    411301857 |    411301857 |    411301857 |    411301857 |    411301857 |    411301857 |    411301857 |    854966829 |    854966829 |    854966829 |    854966829 |    854966829 |    854966829 |    854966829 |
sim_num_refs                                125365 |       125365 |       125365 |       125365 |       125365 |       125365 |       125365 |       256701 |       256701 |       256701 |       256701 |       256701 |       256701 |       256701 |       548049 |       548049 |       548049 |       548049 |       548049 |       548049 |       548049 |      1160844 |      1160844 |      1160844 |      1160844 |      1160844 |      1160844 |      1160844 |      2463379 |      2463379 |      2463379 |      2463379 |      2463379 |      2463379 |      2463379 |      5190562 |      5190562 |      5190562 |      5190562 |      5190562 |      5190562 |      5190562 |     10974786 |     10974786 |     10974786 |     10974786 |     10974786 |     10974786 |     10974786 |     23265261 |     23265261 |     23265261 |     23265261 |     23265261 |     23265261 |     23265261 |     48459336 |     48459336 |     48459336 |     48459336 |     48459336 |     48459336 |     48459336 |    101569184 |    101569184 |    101569184 |    101569184 |    101569184 |    101569184 |    101569184 |    211141987 |    211141987 |    211141987 |    211141987 |    211141987 |    211141987 |    211141987 |
sim_elapsed_time                                 1 |            1 |            1 |            1 |            1 |            1 |            1 |            1 |            1 |            1 |            1 |            1 |            1 |            1 |            1 |            1 |            1 |            1 |            1 |            1 |            1 |            1 |            1 |            1 |            1 |            1 |            1 |            1 |            1 |            1 |            1 |            2 |            1 |            1 |            1 |            2 |            3 |            2 |            3 |            2 |            3 |            3 |            5 |            5 |            6 |            5 |            6 |            5 |            6 |           12 |           11 |           12 |           12 |           11 |           12 |           12 |           24 |           24 |           24 |           25 |           24 |           25 |           24 |           51 |           51 |           51 |           51 |           52 |           52 |           51 |          105 |          106 |          105 |          106 |          107 |          107 |          107 |
sim_inst_rate                          482074.0000 |  482074.0000 |  482074.0000 |  482074.0000 |  482074.0000 |  482074.0000 |  482074.0000 |  979568.0000 |  979568.0000 |  979568.0000 |  979568.0000 |  979568.0000 |  979568.0000 |  979568.0000 | 2125309.0000 | 2125309.0000 | 2125309.0000 | 2125309.0000 | 2125309.0000 | 2125309.0000 | 2125309.0000 | 4535098.0000 | 4535098.0000 | 4535098.0000 | 4535098.0000 | 4535098.0000 | 4535098.0000 | 4535098.0000 | 9735256.0000 | 9735256.0000 | 9735256.0000 | 4867628.0000 | 9735256.0000 | 9735256.0000 | 9735256.0000 |10295831.5000 | 6863887.6667 |10295831.5000 | 6863887.6667 |10295831.5000 | 6863887.6667 | 6863887.6667 | 8762710.2000 | 8762710.2000 | 7302258.5000 | 8762710.2000 | 7302258.5000 | 8762710.2000 | 7302258.5000 | 7820201.6667 | 8531129.0909 | 7820201.6667 | 7820201.6667 | 8531129.0909 | 7820201.6667 | 7820201.6667 | 8134909.2083 | 8134909.2083 | 8134909.2083 | 7809512.8400 | 8134909.2083 | 7809512.8400 | 8134909.2083 | 8064742.2941 | 8064742.2941 | 8064742.2941 | 8064742.2941 | 7909651.0962 | 7909651.0962 | 8064742.2941 | 8142541.2286 | 8065724.8019 | 8142541.2286 | 8065724.8019 | 7990344.1963 | 7990344.1963 | 7990344.1963 |
sim_num_branches                             78804 |        78804 |        78804 |        78804 |        78804 |        78804 |        78804 |       162029 |       162029 |       162029 |       162029 |       162029 |       162029 |       162029 |       353603 |       353603 |       353603 |       353603 |       353603 |       353603 |       353603 |       759872 |       759872 |       759872 |       759872 |       759872 |       759872 |       759872 |      1635278 |      1635278 |      1635278 |      1635278 |      1635278 |      1635278 |      1635278 |      3473438 |      3473438 |      3473438 |      3473438 |      3473438 |      3473438 |      3473438 |      7426883 |      7426883 |      7426883 |      7426883 |      7426883 |      7426883 |      7426883 |     15944253 |     15944253 |     15944253 |     15944253 |     15944253 |     15944253 |     15944253 |     33262387 |     33262387 |     33262387 |     33262387 |     33262387 |     33262387 |     33262387 |     70252841 |     70252841 |     70252841 |     70252841 |     70252841 |     70252841 |     70252841 |    146418705 |    146418705 |    146418705 |    146418705 |    146418705 |    146418705 |    146418705 |
sim_IPB                                     6.1174 |       6.1174 |       6.1174 |       6.1174 |       6.1174 |       6.1174 |       6.1174 |       6.0456 |       6.0456 |       6.0456 |       6.0456 |       6.0456 |       6.0456 |       6.0456 |       6.0104 |       6.0104 |       6.0104 |       6.0104 |       6.0104 |       6.0104 |       6.0104 |       5.9682 |       5.9682 |       5.9682 |       5.9682 |       5.9682 |       5.9682 |       5.9682 |       5.9533 |       5.9533 |       5.9533 |       5.9533 |       5.9533 |       5.9533 |       5.9533 |       5.9283 |       5.9283 |       5.9283 |       5.9283 |       5.9283 |       5.9283 |       5.9283 |       5.8993 |       5.8993 |       5.8993 |       5.8993 |       5.8993 |       5.8993 |       5.8993 |       5.8857 |       5.8857 |       5.8857 |       5.8857 |       5.8857 |       5.8857 |       5.8857 |       5.8696 |       5.8696 |       5.8696 |       5.8696 |       5.8696 |       5.8696 |       5.8696 |       5.8546 |       5.8546 |       5.8546 |       5.8546 |       5.8546 |       5.8546 |       5.8546 |       5.8392 |       5.8392 |       5.8392 |       5.8392 |       5.8392 |       5.8392 |       5.8392 |
bpred_bimod.lookups                          78804 |        78804 |        78804 |xxxxxxxxxxxxx |xxxxxxxxxxxxx |xxxxxxxxxxxxx |xxxxxxxxxxxxx |       162029 |       162029 |       162029 |xxxxxxxxxxxxx |xxxxxxxxxxxxx |xxxxxxxxxxxxx |xxxxxxxxxxxxx |       353603 |       353603 |       353603 |xxxxxxxxxxxxx |xxxxxxxxxxxxx |xxxxxxxxxxxxx |xxxxxxxxxxxxx |       759872 |       759872 |       759872 |xxxxxxxxxxxxx |xxxxxxxxxxxxx |xxxxxxxxxxxxx |xxxxxxxxxxxxx |      1635278 |      1635278 |      1635278 |xxxxxxxxxxxxx |xxxxxxxxxxxxx |xxxxxxxxxxxxx |xxxxxxxxxxxxx |      3473438 |      3473438 |      3473438 |xxxxxxxxxxxxx |xxxxxxxxxxxxx |xxxxxxxxxxxxx |xxxxxxxxxxxxx |      7426883 |      7426883 |      7426883 |xxxxxxxxxxxxx |xxxxxxxxxxxxx |xxxxxxxxxxxxx |xxxxxxxxxxxxx |     15944253 |     15944253 |     15944253 |xxxxxxxxxxxxx |xxxxxxxxxxxxx |xxxxxxxxxxxxx |xxxxxxxxxxxxx |     33262387 |     33262387 |     33262387 |xxxxxxxxxxxxx |xxxxxxxxxxxxx |xxxxxxxxxxxxx |xxxxxxxxxxxxx |     70252841 |     70252841 |     70252841 |xxxxxxxxxxxxx |xxxxxxxxxxxxx |xxxxxxxxxxxxx |xxxxxxxxxxxxx |    146418705 |    146418705 |    146418705 |
bpred_bimod.updates                          78804 |        78804 |        78804 |xxxxxxxxxxxxx |xxxxxxxxxxxxx |xxxxxxxxxxxxx |xxxxxxxxxxxxx |       162029 |       162029 |       162029 |xxxxxxxxxxxxx |xxxxxxxxxxxxx |xxxxxxxxxxxxx |xxxxxxxxxxxxx |       353603 |       353603 |       353603 |xxxxxxxxxxxxx |xxxxxxxxxxxxx |xxxxxxxxxxxxx |xxxxxxxxxxxxx |       759872 |       759872 |       759872 |xxxxxxxxxxxxx |xxxxxxxxxxxxx |xxxxxxxxxxxxx |xxxxxxxxxxxxx |      1635278 |      1635278 |      1635278 |xxxxxxxxxxxxx |xxxxxxxxxxxxx |xxxxxxxxxxxxx |xxxxxxxxxxxxx |      3473438 |      3473438 |      3473438 |xxxxxxxxxxxxx |xxxxxxxxxxxxx |xxxxxxxxxxxxx |xxxxxxxxxxxxx |      7426883 |      7426883 |      7426883 |xxxxxxxxxxxxx |xxxxxxxxxxxxx |xxxxxxxxxxxxx |xxxxxxxxxxxxx |     15944253 |     15944253 |     15944253 |xxxxxxxxxxxxx |xxxxxxxxxxxxx |xxxxxxxxxxxxx |xxxxxxxxxxxxx |     33262387 |     33262387 |     33262387 |xxxxxxxxxxxxx |xxxxxxxxxxxxx |xxxxxxxxxxxxx |xxxxxxxxxxxxx |     70252841 |     70252841 |     70252841 |xxxxxxxxxxxxx |xxxxxxxxxxxxx |xxxxxxxxxxxxx |xxxxxxxxxxxxx |    146418705 |    146418705 |    146418705 |
bpred_bimod.addr_hits                        57736 |        57735 |        57735 |xxxxxxxxxxxxx |xxxxxxxxxxxxx |xxxxxxxxxxxxx |xxxxxxxxxxxxx |       114561 |       114560 |       114561 |xxxxxxxxxxxxx |xxxxxxxxxxxxx |xxxxxxxxxxxxx |xxxxxxxxxxxxx |       253668 |       253670 |       253670 |xxxxxxxxxxxxx |xxxxxxxxxxxxx |xxxxxxxxxxxxx |xxxxxxxxxxxxx |       544028 |       544027 |       544028 |xxxxxxxxxxxxx |xxxxxxxxxxxxx |xxxxxxxxxxxxx |xxxxxxxxxxxxx |      1180503 |      1180502 |      1180502 |xxxxxxxxxxxxx |xxxxxxxxxxxxx |xxxxxxxxxxxxx |xxxxxxxxxxxxx |      2509063 |      2509062 |      2509064 |xxxxxxxxxxxxx |xxxxxxxxxxxxx |xxxxxxxxxxxxx |xxxxxxxxxxxxx |      5380583 |      5380582 |      5380583 |xxxxxxxxxxxxx |xxxxxxxxxxxxx |xxxxxxxxxxxxx |xxxxxxxxxxxxx |     11689019 |     11689018 |     11689019 |xxxxxxxxxxxxx |xxxxxxxxxxxxx |xxxxxxxxxxxxx |xxxxxxxxxxxxx |     24176983 |     24176982 |     24176984 |xxxxxxxxxxxxx |xxxxxxxxxxxxx |xxxxxxxxxxxxx |xxxxxxxxxxxxx |     51398007 |     51398006 |     51398006 |xxxxxxxxxxxxx |xxxxxxxxxxxxx |xxxxxxxxxxxxx |xxxxxxxxxxxxx |    106776798 |    106776797 |    106776798 |
bpred_bimod.dir_hits                         57846 |        57843 |        57844 |xxxxxxxxxxxxx |xxxxxxxxxxxxx |xxxxxxxxxxxxx |xxxxxxxxxxxxx |       114678 |       114673 |       114673 |xxxxxxxxxxxxx |xxxxxxxxxxxxx |xxxxxxxxxxxxx |xxxxxxxxxxxxx |       253781 |       253780 |       253780 |xxxxxxxxxxxxx |xxxxxxxxxxxxx |xxxxxxxxxxxxx |xxxxxxxxxxxxx |       544144 |       544140 |       544139 |xxxxxxxxxxxxx |xxxxxxxxxxxxx |xxxxxxxxxxxxx |xxxxxxxxxxxxx |      1180616 |      1180612 |      1180610 |xxxxxxxxxxxxx |xxxxxxxxxxxxx |xxxxxxxxxxxxx |xxxxxxxxxxxxx |      2509177 |      2509173 |      2509172 |xxxxxxxxxxxxx |xxxxxxxxxxxxx |xxxxxxxxxxxxx |xxxxxxxxxxxxx |      5380700 |      5380696 |      5380693 |xxxxxxxxxxxxx |xxxxxxxxxxxxx |xxxxxxxxxxxxx |xxxxxxxxxxxxx |     11689135 |     11689131 |     11689131 |xxxxxxxxxxxxx |xxxxxxxxxxxxx |xxxxxxxxxxxxx |xxxxxxxxxxxxx |     24177099 |     24177096 |     24177096 |xxxxxxxxxxxxx |xxxxxxxxxxxxx |xxxxxxxxxxxxx |xxxxxxxxxxxxx |     51398122 |     51398118 |     51398116 |xxxxxxxxxxxxx |xxxxxxxxxxxxx |xxxxxxxxxxxxx |xxxxxxxxxxxxx |    106776915 |    106776911 |    106776908 |
bpred_bimod.misses                           20958 |        20961 |        20960 |xxxxxxxxxxxxx |xxxxxxxxxxxxx |xxxxxxxxxxxxx |xxxxxxxxxxxxx |        47351 |        47356 |        47356 |xxxxxxxxxxxxx |xxxxxxxxxxxxx |xxxxxxxxxxxxx |xxxxxxxxxxxxx |        99822 |        99823 |        99823 |xxxxxxxxxxxxx |xxxxxxxxxxxxx |xxxxxxxxxxxxx |xxxxxxxxxxxxx |       215728 |       215732 |       215733 |xxxxxxxxxxxxx |xxxxxxxxxxxxx |xxxxxxxxxxxxx |xxxxxxxxxxxxx |       454662 |       454666 |       454668 |xxxxxxxxxxxxx |xxxxxxxxxxxxx |xxxxxxxxxxxxx |xxxxxxxxxxxxx |       964261 |       964265 |       964266 |xxxxxxxxxxxxx |xxxxxxxxxxxxx |xxxxxxxxxxxxx |xxxxxxxxxxxxx |      2046183 |      2046187 |      2046190 |xxxxxxxxxxxxx |xxxxxxxxxxxxx |xxxxxxxxxxxxx |xxxxxxxxxxxxx |      4255118 |      4255122 |      4255122 |xxxxxxxxxxxxx |xxxxxxxxxxxxx |xxxxxxxxxxxxx |xxxxxxxxxxxxx |      9085288 |      9085291 |      9085291 |xxxxxxxxxxxxx |xxxxxxxxxxxxx |xxxxxxxxxxxxx |xxxxxxxxxxxxx |     18854719 |     18854723 |     18854725 |xxxxxxxxxxxxx |xxxxxxxxxxxxx |xxxxxxxxxxxxx |xxxxxxxxxxxxx |     39641790 |     39641794 |     39641797 |
bpred_bimod.jr_hits                             64 |           64 |           64 |xxxxxxxxxxxxx |xxxxxxxxxxxxx |xxxxxxxxxxxxx |xxxxxxxxxxxxx |           64 |           64 |           64 |xxxxxxxxxxxxx |xxxxxxxxxxxxx |xxxxxxxxxxxxx |xxxxxxxxxxxxx |           64 |           64 |           64 |xxxxxxxxxxxxx |xxxxxxxxxxxxx |xxxxxxxxxxxxx |xxxxxxxxxxxxx |           64 |           64 |           64 |xxxxxxxxxxxxx |xxxxxxxxxxxxx |xxxxxxxxxxxxx |xxxxxxxxxxxxx |           64 |           64 |           64 |xxxxxxxxxxxxx |xxxxxxxxxxxxx |xxxxxxxxxxxxx |xxxxxxxxxxxxx |           64 |           64 |           64 |xxxxxxxxxxxxx |xxxxxxxxxxxxx |xxxxxxxxxxxxx |xxxxxxxxxxxxx |           64 |           64 |           64 |xxxxxxxxxxxxx |xxxxxxxxxxxxx |xxxxxxxxxxxxx |xxxxxxxxxxxxx |           64 |           64 |           64 |xxxxxxxxxxxxx |xxxxxxxxxxxxx |xxxxxxxxxxxxx |xxxxxxxxxxxxx |           64 |           64 |           64 |xxxxxxxxxxxxx |xxxxxxxxxxxxx |xxxxxxxxxxxxx |xxxxxxxxxxxxx |           64 |           64 |           64 |xxxxxxxxxxxxx |xxxxxxxxxxxxx |xxxxxxxxxxxxx |xxxxxxxxxxxxx |           64 |           64 |           64 |
bpred_bimod.jr_seen                             64 |           64 |           64 |xxxxxxxxxxxxx |xxxxxxxxxxxxx |xxxxxxxxxxxxx |xxxxxxxxxxxxx |           64 |           64 |           64 |xxxxxxxxxxxxx |xxxxxxxxxxxxx |xxxxxxxxxxxxx |xxxxxxxxxxxxx |           64 |           64 |           64 |xxxxxxxxxxxxx |xxxxxxxxxxxxx |xxxxxxxxxxxxx |xxxxxxxxxxxxx |           64 |           64 |           64 |xxxxxxxxxxxxx |xxxxxxxxxxxxx |xxxxxxxxxxxxx |xxxxxxxxxxxxx |           64 |           64 |           64 |xxxxxxxxxxxxx |xxxxxxxxxxxxx |xxxxxxxxxxxxx |xxxxxxxxxxxxx |           64 |           64 |           64 |xxxxxxxxxxxxx |xxxxxxxxxxxxx |xxxxxxxxxxxxx |xxxxxxxxxxxxx |           64 |           64 |           64 |xxxxxxxxxxxxx |xxxxxxxxxxxxx |xxxxxxxxxxxxx |xxxxxxxxxxxxx |           64 |           64 |           64 |xxxxxxxxxxxxx |xxxxxxxxxxxxx |xxxxxxxxxxxxx |xxxxxxxxxxxxx |           64 |           64 |           64 |xxxxxxxxxxxxx |xxxxxxxxxxxxx |xxxxxxxxxxxxx |xxxxxxxxxxxxx |           64 |           64 |           64 |xxxxxxxxxxxxx |xxxxxxxxxxxxx |xxxxxxxxxxxxx |xxxxxxxxxxxxx |           64 |           64 |           64 |
bpred_bimod.jr_non_ras_hits.PP                   0 |            0 |            0 |xxxxxxxxxxxxx |xxxxxxxxxxxxx |xxxxxxxxxxxxx |xxxxxxxxxxxxx |            0 |            0 |            0 |xxxxxxxxxxxxx |xxxxxxxxxxxxx |xxxxxxxxxxxxx |xxxxxxxxxxxxx |            0 |            0 |            0 |xxxxxxxxxxxxx |xxxxxxxxxxxxx |xxxxxxxxxxxxx |xxxxxxxxxxxxx |            0 |            0 |            0 |xxxxxxxxxxxxx |xxxxxxxxxxxxx |xxxxxxxxxxxxx |xxxxxxxxxxxxx |            0 |            0 |            0 |xxxxxxxxxxxxx |xxxxxxxxxxxxx |xxxxxxxxxxxxx |xxxxxxxxxxxxx |            0 |            0 |            0 |xxxxxxxxxxxxx |xxxxxxxxxxxxx |xxxxxxxxxxxxx |xxxxxxxxxxxxx |            0 |            0 |            0 |xxxxxxxxxxxxx |xxxxxxxxxxxxx |xxxxxxxxxxxxx |xxxxxxxxxxxxx |            0 |            0 |            0 |xxxxxxxxxxxxx |xxxxxxxxxxxxx |xxxxxxxxxxxxx |xxxxxxxxxxxxx |            0 |            0 |            0 |xxxxxxxxxxxxx |xxxxxxxxxxxxx |xxxxxxxxxxxxx |xxxxxxxxxxxxx |            0 |            0 |            0 |xxxxxxxxxxxxx |xxxxxxxxxxxxx |xxxxxxxxxxxxx |xxxxxxxxxxxxx |            0 |            0 |            0 |
bpred_bimod.jr_non_ras_seen.PP                   0 |            0 |            0 |xxxxxxxxxxxxx |xxxxxxxxxxxxx |xxxxxxxxxxxxx |xxxxxxxxxxxxx |            0 |            0 |            0 |xxxxxxxxxxxxx |xxxxxxxxxxxxx |xxxxxxxxxxxxx |xxxxxxxxxxxxx |            0 |            0 |            0 |xxxxxxxxxxxxx |xxxxxxxxxxxxx |xxxxxxxxxxxxx |xxxxxxxxxxxxx |            0 |            0 |            0 |xxxxxxxxxxxxx |xxxxxxxxxxxxx |xxxxxxxxxxxxx |xxxxxxxxxxxxx |            0 |            0 |            0 |xxxxxxxxxxxxx |xxxxxxxxxxxxx |xxxxxxxxxxxxx |xxxxxxxxxxxxx |            0 |            0 |            0 |xxxxxxxxxxxxx |xxxxxxxxxxxxx |xxxxxxxxxxxxx |xxxxxxxxxxxxx |            0 |            0 |            0 |xxxxxxxxxxxxx |xxxxxxxxxxxxx |xxxxxxxxxxxxx |xxxxxxxxxxxxx |            0 |            0 |            0 |xxxxxxxxxxxxx |xxxxxxxxxxxxx |xxxxxxxxxxxxx |xxxxxxxxxxxxx |            0 |            0 |            0 |xxxxxxxxxxxxx |xxxxxxxxxxxxx |xxxxxxxxxxxxx |xxxxxxxxxxxxx |            0 |            0 |            0 |xxxxxxxxxxxxx |xxxxxxxxxxxxx |xxxxxxxxxxxxx |xxxxxxxxxxxxx |            0 |            0 |            0 |
bpred_bimod.bpred_addr_rate                 0.7327 |       0.7326 |       0.7326 |xxxxxxxxxxxxx |xxxxxxxxxxxxx |xxxxxxxxxxxxx |xxxxxxxxxxxxx |       0.7070 |       0.7070 |       0.7070 |xxxxxxxxxxxxx |xxxxxxxxxxxxx |xxxxxxxxxxxxx |xxxxxxxxxxxxx |       0.7174 |       0.7174 |       0.7174 |xxxxxxxxxxxxx |xxxxxxxxxxxxx |xxxxxxxxxxxxx |xxxxxxxxxxxxx |       0.7159 |       0.7159 |       0.7159 |xxxxxxxxxxxxx |xxxxxxxxxxxxx |xxxxxxxxxxxxx |xxxxxxxxxxxxx |       0.7219 |       0.7219 |       0.7219 |xxxxxxxxxxxxx |xxxxxxxxxxxxx |xxxxxxxxxxxxx |xxxxxxxxxxxxx |       0.7224 |       0.7224 |       0.7224 |xxxxxxxxxxxxx |xxxxxxxxxxxxx |xxxxxxxxxxxxx |xxxxxxxxxxxxx |       0.7245 |       0.7245 |       0.7245 |xxxxxxxxxxxxx |xxxxxxxxxxxxx |xxxxxxxxxxxxx |xxxxxxxxxxxxx |       0.7331 |       0.7331 |       0.7331 |xxxxxxxxxxxxx |xxxxxxxxxxxxx |xxxxxxxxxxxxx |xxxxxxxxxxxxx |       0.7269 |       0.7269 |       0.7269 |xxxxxxxxxxxxx |xxxxxxxxxxxxx |xxxxxxxxxxxxx |xxxxxxxxxxxxx |       0.7316 |       0.7316 |       0.7316 |xxxxxxxxxxxxx |xxxxxxxxxxxxx |xxxxxxxxxxxxx |xxxxxxxxxxxxx |       0.7293 |       0.7293 |       0.7293 |
bpred_bimod.bpred_dir_rate                  0.7340 |       0.7340 |       0.7340 |xxxxxxxxxxxxx |xxxxxxxxxxxxx |xxxxxxxxxxxxx |xxxxxxxxxxxxx |       0.7078 |       0.7077 |       0.7077 |xxxxxxxxxxxxx |xxxxxxxxxxxxx |xxxxxxxxxxxxx |xxxxxxxxxxxxx |       0.7177 |       0.7177 |       0.7177 |xxxxxxxxxxxxx |xxxxxxxxxxxxx |xxxxxxxxxxxxx |xxxxxxxxxxxxx |       0.7161 |       0.7161 |       0.7161 |xxxxxxxxxxxxx |xxxxxxxxxxxxx |xxxxxxxxxxxxx |xxxxxxxxxxxxx |       0.7220 |       0.7220 |       0.7220 |xxxxxxxxxxxxx |xxxxxxxxxxxxx |xxxxxxxxxxxxx |xxxxxxxxxxxxx |       0.7224 |       0.7224 |       0.7224 |xxxxxxxxxxxxx |xxxxxxxxxxxxx |xxxxxxxxxxxxx |xxxxxxxxxxxxx |       0.7245 |       0.7245 |       0.7245 |xxxxxxxxxxxxx |xxxxxxxxxxxxx |xxxxxxxxxxxxx |xxxxxxxxxxxxx |       0.7331 |       0.7331 |       0.7331 |xxxxxxxxxxxxx |xxxxxxxxxxxxx |xxxxxxxxxxxxx |xxxxxxxxxxxxx |       0.7269 |       0.7269 |       0.7269 |xxxxxxxxxxxxx |xxxxxxxxxxxxx |xxxxxxxxxxxxx |xxxxxxxxxxxxx |       0.7316 |       0.7316 |       0.7316 |xxxxxxxxxxxxx |xxxxxxxxxxxxx |xxxxxxxxxxxxx |xxxxxxxxxxxxx |       0.7293 |       0.7293 |       0.7293 |
bpred_bimod.bpred_jr_rate                   1.0000 |       1.0000 |       1.0000 |xxxxxxxxxxxxx |xxxxxxxxxxxxx |xxxxxxxxxxxxx |xxxxxxxxxxxxx |       1.0000 |       1.0000 |       1.0000 |xxxxxxxxxxxxx |xxxxxxxxxxxxx |xxxxxxxxxxxxx |xxxxxxxxxxxxx |       1.0000 |       1.0000 |       1.0000 |xxxxxxxxxxxxx |xxxxxxxxxxxxx |xxxxxxxxxxxxx |xxxxxxxxxxxxx |       1.0000 |       1.0000 |       1.0000 |xxxxxxxxxxxxx |xxxxxxxxxxxxx |xxxxxxxxxxxxx |xxxxxxxxxxxxx |       1.0000 |       1.0000 |       1.0000 |xxxxxxxxxxxxx |xxxxxxxxxxxxx |xxxxxxxxxxxxx |xxxxxxxxxxxxx |       1.0000 |       1.0000 |       1.0000 |xxxxxxxxxxxxx |xxxxxxxxxxxxx |xxxxxxxxxxxxx |xxxxxxxxxxxxx |       1.0000 |       1.0000 |       1.0000 |xxxxxxxxxxxxx |xxxxxxxxxxxxx |xxxxxxxxxxxxx |xxxxxxxxxxxxx |       1.0000 |       1.0000 |       1.0000 |xxxxxxxxxxxxx |xxxxxxxxxxxxx |xxxxxxxxxxxxx |xxxxxxxxxxxxx |       1.0000 |       1.0000 |       1.0000 |xxxxxxxxxxxxx |xxxxxxxxxxxxx |xxxxxxxxxxxxx |xxxxxxxxxxxxx |       1.0000 |       1.0000 |       1.0000 |xxxxxxxxxxxxx |xxxxxxxxxxxxx |xxxxxxxxxxxxx |xxxxxxxxxxxxx |       1.0000 |       1.0000 |       1.0000 |
bpred_bimod.bpred_jr_non_ras_rate.PP       <error: |      <error: |      <error: |xxxxxxxxxxxxx |xxxxxxxxxxxxx |xxxxxxxxxxxxx |xxxxxxxxxxxxx |      <error: |      <error: |      <error: |xxxxxxxxxxxxx |xxxxxxxxxxxxx |xxxxxxxxxxxxx |xxxxxxxxxxxxx |      <error: |      <error: |      <error: |xxxxxxxxxxxxx |xxxxxxxxxxxxx |xxxxxxxxxxxxx |xxxxxxxxxxxxx |      <error: |      <error: |      <error: |xxxxxxxxxxxxx |xxxxxxxxxxxxx |xxxxxxxxxxxxx |xxxxxxxxxxxxx |      <error: |      <error: |      <error: |xxxxxxxxxxxxx |xxxxxxxxxxxxx |xxxxxxxxxxxxx |xxxxxxxxxxxxx |      <error: |      <error: |      <error: |xxxxxxxxxxxxx |xxxxxxxxxxxxx |xxxxxxxxxxxxx |xxxxxxxxxxxxx |      <error: |      <error: |      <error: |xxxxxxxxxxxxx |xxxxxxxxxxxxx |xxxxxxxxxxxxx |xxxxxxxxxxxxx |      <error: |      <error: |      <error: |xxxxxxxxxxxxx |xxxxxxxxxxxxx |xxxxxxxxxxxxx |xxxxxxxxxxxxx |      <error: |      <error: |      <error: |xxxxxxxxxxxxx |xxxxxxxxxxxxx |xxxxxxxxxxxxx |xxxxxxxxxxxxx |      <error: |      <error: |      <error: |xxxxxxxxxxxxx |xxxxxxxxxxxxx |xxxxxxxxxxxxx |xxxxxxxxxxxxx |      <error: |      <error: |      <error: |
bpred_bimod.retstack_pushes                     66 |           66 |           66 |xxxxxxxxxxxxx |xxxxxxxxxxxxx |xxxxxxxxxxxxx |xxxxxxxxxxxxx |           66 |           66 |           66 |xxxxxxxxxxxxx |xxxxxxxxxxxxx |xxxxxxxxxxxxx |xxxxxxxxxxxxx |           66 |           66 |           66 |xxxxxxxxxxxxx |xxxxxxxxxxxxx |xxxxxxxxxxxxx |xxxxxxxxxxxxx |           66 |           66 |           66 |xxxxxxxxxxxxx |xxxxxxxxxxxxx |xxxxxxxxxxxxx |xxxxxxxxxxxxx |           66 |           66 |           66 |xxxxxxxxxxxxx |xxxxxxxxxxxxx |xxxxxxxxxxxxx |xxxxxxxxxxxxx |           66 |           66 |           66 |xxxxxxxxxxxxx |xxxxxxxxxxxxx |xxxxxxxxxxxxx |xxxxxxxxxxxxx |           66 |           66 |           66 |xxxxxxxxxxxxx |xxxxxxxxxxxxx |xxxxxxxxxxxxx |xxxxxxxxxxxxx |           66 |           66 |           66 |xxxxxxxxxxxxx |xxxxxxxxxxxxx |xxxxxxxxxxxxx |xxxxxxxxxxxxx |           66 |           66 |           66 |xxxxxxxxxxxxx |xxxxxxxxxxxxx |xxxxxxxxxxxxx |xxxxxxxxxxxxx |           66 |           66 |           66 |xxxxxxxxxxxxx |xxxxxxxxxxxxx |xxxxxxxxxxxxx |xxxxxxxxxxxxx |           66 |           66 |           66 |
bpred_bimod.retstack_pops                       64 |           64 |           64 |xxxxxxxxxxxxx |xxxxxxxxxxxxx |xxxxxxxxxxxxx |xxxxxxxxxxxxx |           64 |           64 |           64 |xxxxxxxxxxxxx |xxxxxxxxxxxxx |xxxxxxxxxxxxx |xxxxxxxxxxxxx |           64 |           64 |           64 |xxxxxxxxxxxxx |xxxxxxxxxxxxx |xxxxxxxxxxxxx |xxxxxxxxxxxxx |           64 |           64 |           64 |xxxxxxxxxxxxx |xxxxxxxxxxxxx |xxxxxxxxxxxxx |xxxxxxxxxxxxx |           64 |           64 |           64 |xxxxxxxxxxxxx |xxxxxxxxxxxxx |xxxxxxxxxxxxx |xxxxxxxxxxxxx |           64 |           64 |           64 |xxxxxxxxxxxxx |xxxxxxxxxxxxx |xxxxxxxxxxxxx |xxxxxxxxxxxxx |           64 |           64 |           64 |xxxxxxxxxxxxx |xxxxxxxxxxxxx |xxxxxxxxxxxxx |xxxxxxxxxxxxx |           64 |           64 |           64 |xxxxxxxxxxxxx |xxxxxxxxxxxxx |xxxxxxxxxxxxx |xxxxxxxxxxxxx |           64 |           64 |           64 |xxxxxxxxxxxxx |xxxxxxxxxxxxx |xxxxxxxxxxxxx |xxxxxxxxxxxxx |           64 |           64 |           64 |xxxxxxxxxxxxx |xxxxxxxxxxxxx |xxxxxxxxxxxxx |xxxxxxxxxxxxx |           64 |           64 |           64 |
bpred_bimod.used_ras.PP                         64 |           64 |           64 |xxxxxxxxxxxxx |xxxxxxxxxxxxx |xxxxxxxxxxxxx |xxxxxxxxxxxxx |           64 |           64 |           64 |xxxxxxxxxxxxx |xxxxxxxxxxxxx |xxxxxxxxxxxxx |xxxxxxxxxxxxx |           64 |           64 |           64 |xxxxxxxxxxxxx |xxxxxxxxxxxxx |xxxxxxxxxxxxx |xxxxxxxxxxxxx |           64 |           64 |           64 |xxxxxxxxxxxxx |xxxxxxxxxxxxx |xxxxxxxxxxxxx |xxxxxxxxxxxxx |           64 |           64 |           64 |xxxxxxxxxxxxx |xxxxxxxxxxxxx |xxxxxxxxxxxxx |xxxxxxxxxxxxx |           64 |           64 |           64 |xxxxxxxxxxxxx |xxxxxxxxxxxxx |xxxxxxxxxxxxx |xxxxxxxxxxxxx |           64 |           64 |           64 |xxxxxxxxxxxxx |xxxxxxxxxxxxx |xxxxxxxxxxxxx |xxxxxxxxxxxxx |           64 |           64 |           64 |xxxxxxxxxxxxx |xxxxxxxxxxxxx |xxxxxxxxxxxxx |xxxxxxxxxxxxx |           64 |           64 |           64 |xxxxxxxxxxxxx |xxxxxxxxxxxxx |xxxxxxxxxxxxx |xxxxxxxxxxxxx |           64 |           64 |           64 |xxxxxxxxxxxxx |xxxxxxxxxxxxx |xxxxxxxxxxxxx |xxxxxxxxxxxxx |           64 |           64 |           64 |
bpred_bimod.ras_hits.PP                         64 |           64 |           64 |xxxxxxxxxxxxx |xxxxxxxxxxxxx |xxxxxxxxxxxxx |xxxxxxxxxxxxx |           64 |           64 |           64 |xxxxxxxxxxxxx |xxxxxxxxxxxxx |xxxxxxxxxxxxx |xxxxxxxxxxxxx |           64 |           64 |           64 |xxxxxxxxxxxxx |xxxxxxxxxxxxx |xxxxxxxxxxxxx |xxxxxxxxxxxxx |           64 |           64 |           64 |xxxxxxxxxxxxx |xxxxxxxxxxxxx |xxxxxxxxxxxxx |xxxxxxxxxxxxx |           64 |           64 |           64 |xxxxxxxxxxxxx |xxxxxxxxxxxxx |xxxxxxxxxxxxx |xxxxxxxxxxxxx |           64 |           64 |           64 |xxxxxxxxxxxxx |xxxxxxxxxxxxx |xxxxxxxxxxxxx |xxxxxxxxxxxxx |           64 |           64 |           64 |xxxxxxxxxxxxx |xxxxxxxxxxxxx |xxxxxxxxxxxxx |xxxxxxxxxxxxx |           64 |           64 |           64 |xxxxxxxxxxxxx |xxxxxxxxxxxxx |xxxxxxxxxxxxx |xxxxxxxxxxxxx |           64 |           64 |           64 |xxxxxxxxxxxxx |xxxxxxxxxxxxx |xxxxxxxxxxxxx |xxxxxxxxxxxxx |           64 |           64 |           64 |xxxxxxxxxxxxx |xxxxxxxxxxxxx |xxxxxxxxxxxxx |xxxxxxxxxxxxx |           64 |           64 |           64 |
bpred_bimod.ras_rate.PP                     1.0000 |       1.0000 |       1.0000 |xxxxxxxxxxxxx |xxxxxxxxxxxxx |xxxxxxxxxxxxx |xxxxxxxxxxxxx |       1.0000 |       1.0000 |       1.0000 |xxxxxxxxxxxxx |xxxxxxxxxxxxx |xxxxxxxxxxxxx |xxxxxxxxxxxxx |       1.0000 |       1.0000 |       1.0000 |xxxxxxxxxxxxx |xxxxxxxxxxxxx |xxxxxxxxxxxxx |xxxxxxxxxxxxx |       1.0000 |       1.0000 |       1.0000 |xxxxxxxxxxxxx |xxxxxxxxxxxxx |xxxxxxxxxxxxx |xxxxxxxxxxxxx |       1.0000 |       1.0000 |       1.0000 |xxxxxxxxxxxxx |xxxxxxxxxxxxx |xxxxxxxxxxxxx |xxxxxxxxxxxxx |       1.0000 |       1.0000 |       1.0000 |xxxxxxxxxxxxx |xxxxxxxxxxxxx |xxxxxxxxxxxxx |xxxxxxxxxxxxx |       1.0000 |       1.0000 |       1.0000 |xxxxxxxxxxxxx |xxxxxxxxxxxxx |xxxxxxxxxxxxx |xxxxxxxxxxxxx |       1.0000 |       1.0000 |       1.0000 |xxxxxxxxxxxxx |xxxxxxxxxxxxx |xxxxxxxxxxxxx |xxxxxxxxxxxxx |       1.0000 |       1.0000 |       1.0000 |xxxxxxxxxxxxx |xxxxxxxxxxxxx |xxxxxxxxxxxxx |xxxxxxxxxxxxx |       1.0000 |       1.0000 |       1.0000 |xxxxxxxxxxxxx |xxxxxxxxxxxxx |xxxxxxxxxxxxx |xxxxxxxxxxxxx |       1.0000 |       1.0000 |       1.0000 |
bpred_2lev.lookups                   xxxxxxxxxxxxx |xxxxxxxxxxxxx |xxxxxxxxxxxxx |        78804 |        78804 |        78804 |        78804 |xxxxxxxxxxxxx |xxxxxxxxxxxxx |xxxxxxxxxxxxx |       162029 |       162029 |       162029 |       162029 |xxxxxxxxxxxxx |xxxxxxxxxxxxx |xxxxxxxxxxxxx |       353603 |       353603 |       353603 |       353603 |xxxxxxxxxxxxx |xxxxxxxxxxxxx |xxxxxxxxxxxxx |       759872 |       759872 |       759872 |       759872 |xxxxxxxxxxxxx |xxxxxxxxxxxxx |xxxxxxxxxxxxx |      1635278 |      1635278 |      1635278 |      1635278 |xxxxxxxxxxxxx |xxxxxxxxxxxxx |xxxxxxxxxxxxx |      3473438 |      3473438 |      3473438 |      3473438 |xxxxxxxxxxxxx |xxxxxxxxxxxxx |xxxxxxxxxxxxx |      7426883 |      7426883 |      7426883 |      7426883 |xxxxxxxxxxxxx |xxxxxxxxxxxxx |xxxxxxxxxxxxx |     15944253 |     15944253 |     15944253 |     15944253 |xxxxxxxxxxxxx |xxxxxxxxxxxxx |xxxxxxxxxxxxx |     33262387 |     33262387 |     33262387 |     33262387 |xxxxxxxxxxxxx |xxxxxxxxxxxxx |xxxxxxxxxxxxx |     70252841 |     70252841 |     70252841 |     70252841 |xxxxxxxxxxxxx |xxxxxxxxxxxxx |xxxxxxxxxxxxx |    146418705 |    146418705 |    146418705 |    146418705 |
[...]
bpred_2lev.retstack_pushes           xxxxxxxxxxxxx |xxxxxxxxxxxxx |xxxxxxxxxxxxx |           66 |           66 |           66 |           66 |xxxxxxxxxxxxx |xxxxxxxxxxxxx |xxxxxxxxxxxxx |           66 |           66 |           66 |           66 |xxxxxxxxxxxxx |xxxxxxxxxxxxx |xxxxxxxxxxxxx |           66 |           66 |           66 |           66 |xxxxxxxxxxxxx |xxxxxxxxxxxxx |xxxxxxxxxxxxx |           66 |           66 |           66 |           66 |xxxxxxxxxxxxx |xxxxxxxxxxxxx |xxxxxxxxxxxxx |           66 |           66 |           66 |           66 |xxxxxxxxxxxxx |xxxxxxxxxxxxx |xxxxxxxxxxxxx |           66 |           66 |           66 |           66 |xxxxxxxxxxxxx |xxxxxxxxxxxxx |xxxxxxxxxxxxx |           66 |           66 |           66 |           66 |xxxxxxxxxxxxx |xxxxxxxxxxxxx |xxxxxxxxxxxxx |           66 |           66 |           66 |           66 |xxxxxxxxxxxxx |xxxxxxxxxxxxx |xxxxxxxxxxxxx |           66 |           66 |           66 |           66 |xxxxxxxxxxxxx |xxxxxxxxxxxxx |xxxxxxxxxxxxx |           66 |           66 |           66 |           66 |xxxxxxxxxxxxx |xxxxxxxxxxxxx |xxxxxxxxxxxxx |           66 |           66 |           66 |           66 |
bpred_2lev.retstack_pops             xxxxxxxxxxxxx |xxxxxxxxxxxxx |xxxxxxxxxxxxx |           64 |           64 |           64 |           64 |xxxxxxxxxxxxx |xxxxxxxxxxxxx |xxxxxxxxxxxxx |           64 |           64 |           64 |           64 |xxxxxxxxxxxxx |xxxxxxxxxxxxx |xxxxxxxxxxxxx |           64 |           64 |           64 |           64 |xxxxxxxxxxxxx |xxxxxxxxxxxxx |xxxxxxxxxxxxx |           64 |           64 |           64 |           64 |xxxxxxxxxxxxx |xxxxxxxxxxxxx |xxxxxxxxxxxxx |           64 |           64 |           64 |           64 |xxxxxxxxxxxxx |xxxxxxxxxxxxx |xxxxxxxxxxxxx |           64 |           64 |           64 |           64 |xxxxxxxxxxxxx |xxxxxxxxxxxxx |xxxxxxxxxxxxx |           64 |           64 |           64 |           64 |xxxxxxxxxxxxx |xxxxxxxxxxxxx |xxxxxxxxxxxxx |           64 |           64 |           64 |           64 |xxxxxxxxxxxxx |xxxxxxxxxxxxx |xxxxxxxxxxxxx |           64 |           64 |           64 |           64 |xxxxxxxxxxxxx |xxxxxxxxxxxxx |xxxxxxxxxxxxx |           64 |           64 |           64 |           64 |xxxxxxxxxxxxx |xxxxxxxxxxxxx |xxxxxxxxxxxxx |           64 |           64 |           64 |           64 |
bpred_2lev.used_ras.PP               xxxxxxxxxxxxx |xxxxxxxxxxxxx |xxxxxxxxxxxxx |           64 |           64 |           64 |           64 |xxxxxxxxxxxxx |xxxxxxxxxxxxx |xxxxxxxxxxxxx |           64 |           64 |           64 |           64 |xxxxxxxxxxxxx |xxxxxxxxxxxxx |xxxxxxxxxxxxx |           64 |           64 |           64 |           64 |xxxxxxxxxxxxx |xxxxxxxxxxxxx |xxxxxxxxxxxxx |           64 |           64 |           64 |           64 |xxxxxxxxxxxxx |xxxxxxxxxxxxx |xxxxxxxxxxxxx |           64 |           64 |           64 |           64 |xxxxxxxxxxxxx |xxxxxxxxxxxxx |xxxxxxxxxxxxx |           64 |           64 |           64 |           64 |xxxxxxxxxxxxx |xxxxxxxxxxxxx |xxxxxxxxxxxxx |           64 |           64 |           64 |           64 |xxxxxxxxxxxxx |xxxxxxxxxxxxx |xxxxxxxxxxxxx |           64 |           64 |           64 |           64 |xxxxxxxxxxxxx |xxxxxxxxxxxxx |xxxxxxxxxxxxx |           64 |           64 |           64 |           64 |xxxxxxxxxxxxx |xxxxxxxxxxxxx |xxxxxxxxxxxxx |           64 |           64 |           64 |           64 |xxxxxxxxxxxxx |xxxxxxxxxxxxx |xxxxxxxxxxxxx |           64 |           64 |           64 |           64 |
bpred_2lev.ras_hits.PP               xxxxxxxxxxxxx |xxxxxxxxxxxxx |xxxxxxxxxxxxx |           64 |           64 |           64 |           64 |xxxxxxxxxxxxx |xxxxxxxxxxxxx |xxxxxxxxxxxxx |           64 |           64 |           64 |           64 |xxxxxxxxxxxxx |xxxxxxxxxxxxx |xxxxxxxxxxxxx |           64 |           64 |           64 |           64 |xxxxxxxxxxxxx |xxxxxxxxxxxxx |xxxxxxxxxxxxx |           64 |           64 |           64 |           64 |xxxxxxxxxxxxx |xxxxxxxxxxxxx |xxxxxxxxxxxxx |           64 |           64 |           64 |           64 |xxxxxxxxxxxxx |xxxxxxxxxxxxx |xxxxxxxxxxxxx |           64 |           64 |           64 |           64 |xxxxxxxxxxxxx |xxxxxxxxxxxxx |xxxxxxxxxxxxx |           64 |           64 |           64 |           64 |xxxxxxxxxxxxx |xxxxxxxxxxxxx |xxxxxxxxxxxxx |           64 |           64 |           64 |           64 |xxxxxxxxxxxxx |xxxxxxxxxxxxx |xxxxxxxxxxxxx |           64 |           64 |           64 |           64 |xxxxxxxxxxxxx |xxxxxxxxxxxxx |xxxxxxxxxxxxx |           64 |           64 |           64 |           64 |xxxxxxxxxxxxx |xxxxxxxxxxxxx |xxxxxxxxxxxxx |           64 |           64 |           64 |           64 |
bpred_2lev.ras_rate.PP               xxxxxxxxxxxxx |xxxxxxxxxxxxx |xxxxxxxxxxxxx |       1.0000 |       1.0000 |       1.0000 |       1.0000 |xxxxxxxxxxxxx |xxxxxxxxxxxxx |xxxxxxxxxxxxx |       1.0000 |       1.0000 |       1.0000 |       1.0000 |xxxxxxxxxxxxx |xxxxxxxxxxxxx |xxxxxxxxxxxxx |       1.0000 |       1.0000 |       1.0000 |       1.0000 |xxxxxxxxxxxxx |xxxxxxxxxxxxx |xxxxxxxxxxxxx |       1.0000 |       1.0000 |       1.0000 |       1.0000 |xxxxxxxxxxxxx |xxxxxxxxxxxxx |xxxxxxxxxxxxx |       1.0000 |       1.0000 |       1.0000 |       1.0000 |xxxxxxxxxxxxx |xxxxxxxxxxxxx |xxxxxxxxxxxxx |       1.0000 |       1.0000 |       1.0000 |       1.0000 |xxxxxxxxxxxxx |xxxxxxxxxxxxx |xxxxxxxxxxxxx |       1.0000 |       1.0000 |       1.0000 |       1.0000 |xxxxxxxxxxxxx |xxxxxxxxxxxxx |xxxxxxxxxxxxx |       1.0000 |       1.0000 |       1.0000 |       1.0000 |xxxxxxxxxxxxx |xxxxxxxxxxxxx |xxxxxxxxxxxxx |       1.0000 |       1.0000 |       1.0000 |       1.0000 |xxxxxxxxxxxxx |xxxxxxxxxxxxx |xxxxxxxxxxxxx |       1.0000 |       1.0000 |       1.0000 |       1.0000 |xxxxxxxxxxxxx |xxxxxxxxxxxxx |xxxxxxxxxxxxx |       1.0000 |       1.0000 |       1.0000 |       1.0000 |

Command list: 
	sslittle-na-sstrix-gcc -Wall -O3 -funroll-loops -finline-functions  -DRANDOM_SIZE=4096 -DOFFSET=4 -DSORT=cache_quicksort sorts/cache_quicksort928732455.c simpleMain.c -o cache_quicksort1612690821
	sim-cache -cache:dl1 dl1:256:32:1:l -cache:dl2 dl2:131072:32:1:l -cache:il1 il1:256:32:1:l -cache:il2 dl2 cache_quicksort1612690821
	sim-cache -cache:dl1 dl1:256:32:1:l -cache:dl2 dl2:65536:32:1:l -cache:il1 il1:256:32:1:l -cache:il2 dl2 cache_quicksort1612690821
	sim-cache -cache:dl1 dl1:1:32:256:l -cache:dl2 dl2:1:32:131072:l -cache:il1 il1:1:32:256:l -cache:il2 dl2 cache_quicksort1612690821
	sim-cache -cache:dl1 dl1:1:32:256:l -cache:dl2 dl2:1:32:65536:l -cache:il1 il1:1:32:256:l -cache:il2 dl2 cache_quicksort1612690821
	sim-bpred -bpred bimod -bpred:bimod 512 cache_quicksort1612690821
	sim-bpred -bpred bimod -bpred:bimod 1024 cache_quicksort1612690821
	sim-bpred -bpred bimod -bpred:bimod 2048 cache_quicksort1612690821
	sim-bpred -bpred 2lev -bpred:2lev 1 512 10 1 cache_quicksort1612690821
	sim-bpred -bpred 2lev -bpred:2lev 1 1024 10 1 cache_quicksort1612690821
	sim-bpred -bpred 2lev -bpred:2lev 1 2048 10 1 cache_quicksort1612690821
	sim-bpred -bpred 2lev -bpred:2lev 1 4096 10 1 cache_quicksort1612690821
	sslittle-na-sstrix-gcc -Wall -O3 -funroll-loops -finline-functions  -DRANDOM_SIZE=8192 -DOFFSET=4 -DSORT=cache_quicksort sorts/cache_quicksort928732455.c simpleMain.c -o cache_quicksort1612690821
	sim-cache -cache:dl1 dl1:256:32:1:l -cache:dl2 dl2:131072:32:1:l -cache:il1 il1:256:32:1:l -cache:il2 dl2 cache_quicksort1612690821
	sim-cache -cache:dl1 dl1:256:32:1:l -cache:dl2 dl2:65536:32:1:l -cache:il1 il1:256:32:1:l -cache:il2 dl2 cache_quicksort1612690821
	sim-cache -cache:dl1 dl1:1:32:256:l -cache:dl2 dl2:1:32:131072:l -cache:il1 il1:1:32:256:l -cache:il2 dl2 cache_quicksort1612690821
	sim-cache -cache:dl1 dl1:1:32:256:l -cache:dl2 dl2:1:32:65536:l -cache:il1 il1:1:32:256:l -cache:il2 dl2 cache_quicksort1612690821
	sim-bpred -bpred bimod -bpred:bimod 512 cache_quicksort1612690821
	sim-bpred -bpred bimod -bpred:bimod 1024 cache_quicksort1612690821
	sim-bpred -bpred bimod -bpred:bimod 2048 cache_quicksort1612690821
	sim-bpred -bpred 2lev -bpred:2lev 1 512 10 1 cache_quicksort1612690821
	sim-bpred -bpred 2lev -bpred:2lev 1 1024 10 1 cache_quicksort1612690821
	sim-bpred -bpred 2lev -bpred:2lev 1 2048 10 1 cache_quicksort1612690821
	sim-bpred -bpred 2lev -bpred:2lev 1 4096 10 1 cache_quicksort1612690821
	sslittle-na-sstrix-gcc -Wall -O3 -funroll-loops -finline-functions  -DRANDOM_SIZE=16384 -DOFFSET=4 -DSORT=cache_quicksort sorts/cache_quicksort928732455.c simpleMain.c -o cache_quicksort1612690821
	sim-cache -cache:dl1 dl1:256:32:1:l -cache:dl2 dl2:131072:32:1:l -cache:il1 il1:256:32:1:l -cache:il2 dl2 cache_quicksort1612690821
	sim-cache -cache:dl1 dl1:256:32:1:l -cache:dl2 dl2:65536:32:1:l -cache:il1 il1:256:32:1:l -cache:il2 dl2 cache_quicksort1612690821
	sim-cache -cache:dl1 dl1:1:32:256:l -cache:dl2 dl2:1:32:131072:l -cache:il1 il1:1:32:256:l -cache:il2 dl2 cache_quicksort1612690821
	sim-cache -cache:dl1 dl1:1:32:256:l -cache:dl2 dl2:1:32:65536:l -cache:il1 il1:1:32:256:l -cache:il2 dl2 cache_quicksort1612690821
	sim-bpred -bpred bimod -bpred:bimod 512 cache_quicksort1612690821
	sim-bpred -bpred bimod -bpred:bimod 1024 cache_quicksort1612690821
	sim-bpred -bpred bimod -bpred:bimod 2048 cache_quicksort1612690821
	sim-bpred -bpred 2lev -bpred:2lev 1 512 10 1 cache_quicksort1612690821
	sim-bpred -bpred 2lev -bpred:2lev 1 1024 10 1 cache_quicksort1612690821
	sim-bpred -bpred 2lev -bpred:2lev 1 2048 10 1 cache_quicksort1612690821
	sim-bpred -bpred 2lev -bpred:2lev 1 4096 10 1 cache_quicksort1612690821
	sslittle-na-sstrix-gcc -Wall -O3 -funroll-loops -finline-functions  -DRANDOM_SIZE=32768 -DOFFSET=4 -DSORT=cache_quicksort sorts/cache_quicksort928732455.c simpleMain.c -o cache_quicksort1612690821
	sim-cache -cache:dl1 dl1:256:32:1:l -cache:dl2 dl2:131072:32:1:l -cache:il1 il1:256:32:1:l -cache:il2 dl2 cache_quicksort1612690821
	sim-cache -cache:dl1 dl1:256:32:1:l -cache:dl2 dl2:65536:32:1:l -cache:il1 il1:256:32:1:l -cache:il2 dl2 cache_quicksort1612690821
	sim-cache -cache:dl1 dl1:1:32:256:l -cache:dl2 dl2:1:32:131072:l -cache:il1 il1:1:32:256:l -cache:il2 dl2 cache_quicksort1612690821
	sim-cache -cache:dl1 dl1:1:32:256:l -cache:dl2 dl2:1:32:65536:l -cache:il1 il1:1:32:256:l -cache:il2 dl2 cache_quicksort1612690821
	sim-bpred -bpred bimod -bpred:bimod 512 cache_quicksort1612690821
	sim-bpred -bpred bimod -bpred:bimod 1024 cache_quicksort1612690821
	sim-bpred -bpred bimod -bpred:bimod 2048 cache_quicksort1612690821
	sim-bpred -bpred 2lev -bpred:2lev 1 512 10 1 cache_quicksort1612690821
	sim-bpred -bpred 2lev -bpred:2lev 1 1024 10 1 cache_quicksort1612690821
	sim-bpred -bpred 2lev -bpred:2lev 1 2048 10 1 cache_quicksort1612690821
	sim-bpred -bpred 2lev -bpred:2lev 1 4096 10 1 cache_quicksort1612690821
	sslittle-na-sstrix-gcc -Wall -O3 -funroll-loops -finline-functions  -DRANDOM_SIZE=65536 -DOFFSET=4 -DSORT=cache_quicksort sorts/cache_quicksort928732455.c simpleMain.c -o cache_quicksort1612690821
	sim-cache -cache:dl1 dl1:256:32:1:l -cache:dl2 dl2:131072:32:1:l -cache:il1 il1:256:32:1:l -cache:il2 dl2 cache_quicksort1612690821
	sim-cache -cache:dl1 dl1:256:32:1:l -cache:dl2 dl2:65536:32:1:l -cache:il1 il1:256:32:1:l -cache:il2 dl2 cache_quicksort1612690821
	sim-cache -cache:dl1 dl1:1:32:256:l -cache:dl2 dl2:1:32:131072:l -cache:il1 il1:1:32:256:l -cache:il2 dl2 cache_quicksort1612690821
	sim-cache -cache:dl1 dl1:1:32:256:l -cache:dl2 dl2:1:32:65536:l -cache:il1 il1:1:32:256:l -cache:il2 dl2 cache_quicksort1612690821
	sim-bpred -bpred bimod -bpred:bimod 512 cache_quicksort1612690821
	sim-bpred -bpred bimod -bpred:bimod 1024 cache_quicksort1612690821
	sim-bpred -bpred bimod -bpred:bimod 2048 cache_quicksort1612690821
	sim-bpred -bpred 2lev -bpred:2lev 1 512 10 1 cache_quicksort1612690821
	sim-bpred -bpred 2lev -bpred:2lev 1 1024 10 1 cache_quicksort1612690821
	sim-bpred -bpred 2lev -bpred:2lev 1 2048 10 1 cache_quicksort1612690821
	sim-bpred -bpred 2lev -bpred:2lev 1 4096 10 1 cache_quicksort1612690821
	sslittle-na-sstrix-gcc -Wall -O3 -funroll-loops -finline-functions  -DRANDOM_SIZE=131072 -DOFFSET=4 -DSORT=cache_quicksort sorts/cache_quicksort928732455.c simpleMain.c -o cache_quicksort1612690821
	sim-cache -cache:dl1 dl1:256:32:1:l -cache:dl2 dl2:131072:32:1:l -cache:il1 il1:256:32:1:l -cache:il2 dl2 cache_quicksort1612690821
	sim-cache -cache:dl1 dl1:256:32:1:l -cache:dl2 dl2:65536:32:1:l -cache:il1 il1:256:32:1:l -cache:il2 dl2 cache_quicksort1612690821
	sim-cache -cache:dl1 dl1:1:32:256:l -cache:dl2 dl2:1:32:131072:l -cache:il1 il1:1:32:256:l -cache:il2 dl2 cache_quicksort1612690821
	sim-cache -cache:dl1 dl1:1:32:256:l -cache:dl2 dl2:1:32:65536:l -cache:il1 il1:1:32:256:l -cache:il2 dl2 cache_quicksort1612690821
	sim-bpred -bpred bimod -bpred:bimod 512 cache_quicksort1612690821
	sim-bpred -bpred bimod -bpred:bimod 1024 cache_quicksort1612690821
	sim-bpred -bpred bimod -bpred:bimod 2048 cache_quicksort1612690821
	sim-bpred -bpred 2lev -bpred:2lev 1 512 10 1 cache_quicksort1612690821
	sim-bpred -bpred 2lev -bpred:2lev 1 1024 10 1 cache_quicksort1612690821
	sim-bpred -bpred 2lev -bpred:2lev 1 2048 10 1 cache_quicksort1612690821
	sim-bpred -bpred 2lev -bpred:2lev 1 4096 10 1 cache_quicksort1612690821
	sslittle-na-sstrix-gcc -Wall -O3 -funroll-loops -finline-functions  -DRANDOM_SIZE=262144 -DOFFSET=4 -DSORT=cache_quicksort sorts/cache_quicksort928732455.c simpleMain.c -o cache_quicksort1612690821
	sim-cache -cache:dl1 dl1:256:32:1:l -cache:dl2 dl2:131072:32:1:l -cache:il1 il1:256:32:1:l -cache:il2 dl2 cache_quicksort1612690821
	sim-cache -cache:dl1 dl1:256:32:1:l -cache:dl2 dl2:65536:32:1:l -cache:il1 il1:256:32:1:l -cache:il2 dl2 cache_quicksort1612690821
	sim-cache -cache:dl1 dl1:1:32:256:l -cache:dl2 dl2:1:32:131072:l -cache:il1 il1:1:32:256:l -cache:il2 dl2 cache_quicksort1612690821
	sim-cache -cache:dl1 dl1:1:32:256:l -cache:dl2 dl2:1:32:65536:l -cache:il1 il1:1:32:256:l -cache:il2 dl2 cache_quicksort1612690821
	sim-bpred -bpred bimod -bpred:bimod 512 cache_quicksort1612690821
	sim-bpred -bpred bimod -bpred:bimod 1024 cache_quicksort1612690821
	sim-bpred -bpred bimod -bpred:bimod 2048 cache_quicksort1612690821
	sim-bpred -bpred 2lev -bpred:2lev 1 512 10 1 cache_quicksort1612690821
	sim-bpred -bpred 2lev -bpred:2lev 1 1024 10 1 cache_quicksort1612690821
	sim-bpred -bpred 2lev -bpred:2lev 1 2048 10 1 cache_quicksort1612690821
	sim-bpred -bpred 2lev -bpred:2lev 1 4096 10 1 cache_quicksort1612690821
	sslittle-na-sstrix-gcc -Wall -O3 -funroll-loops -finline-functions  -DRANDOM_SIZE=524288 -DOFFSET=4 -DSORT=cache_quicksort sorts/cache_quicksort928732455.c simpleMain.c -o cache_quicksort1612690821
	sim-cache -cache:dl1 dl1:256:32:1:l -cache:dl2 dl2:131072:32:1:l -cache:il1 il1:256:32:1:l -cache:il2 dl2 cache_quicksort1612690821
	sim-cache -cache:dl1 dl1:256:32:1:l -cache:dl2 dl2:65536:32:1:l -cache:il1 il1:256:32:1:l -cache:il2 dl2 cache_quicksort1612690821
	sim-cache -cache:dl1 dl1:1:32:256:l -cache:dl2 dl2:1:32:131072:l -cache:il1 il1:1:32:256:l -cache:il2 dl2 cache_quicksort1612690821
	sim-cache -cache:dl1 dl1:1:32:256:l -cache:dl2 dl2:1:32:65536:l -cache:il1 il1:1:32:256:l -cache:il2 dl2 cache_quicksort1612690821
	sim-bpred -bpred bimod -bpred:bimod 512 cache_quicksort1612690821
	sim-bpred -bpred bimod -bpred:bimod 1024 cache_quicksort1612690821
	sim-bpred -bpred bimod -bpred:bimod 2048 cache_quicksort1612690821
	sim-bpred -bpred 2lev -bpred:2lev 1 512 10 1 cache_quicksort1612690821
	sim-bpred -bpred 2lev -bpred:2lev 1 1024 10 1 cache_quicksort1612690821
	sim-bpred -bpred 2lev -bpred:2lev 1 2048 10 1 cache_quicksort1612690821
	sim-bpred -bpred 2lev -bpred:2lev 1 4096 10 1 cache_quicksort1612690821
	sslittle-na-sstrix-gcc -Wall -O3 -funroll-loops -finline-functions  -DRANDOM_SIZE=1048576 -DOFFSET=4 -DSORT=cache_quicksort sorts/cache_quicksort928732455.c simpleMain.c -o cache_quicksort1612690821
	sim-cache -cache:dl1 dl1:256:32:1:l -cache:dl2 dl2:131072:32:1:l -cache:il1 il1:256:32:1:l -cache:il2 dl2 cache_quicksort1612690821
	sim-cache -cache:dl1 dl1:256:32:1:l -cache:dl2 dl2:65536:32:1:l -cache:il1 il1:256:32:1:l -cache:il2 dl2 cache_quicksort1612690821
	sim-cache -cache:dl1 dl1:1:32:256:l -cache:dl2 dl2:1:32:131072:l -cache:il1 il1:1:32:256:l -cache:il2 dl2 cache_quicksort1612690821
	sim-cache -cache:dl1 dl1:1:32:256:l -cache:dl2 dl2:1:32:65536:l -cache:il1 il1:1:32:256:l -cache:il2 dl2 cache_quicksort1612690821
	sim-bpred -bpred bimod -bpred:bimod 512 cache_quicksort1612690821
	sim-bpred -bpred bimod -bpred:bimod 1024 cache_quicksort1612690821
	sim-bpred -bpred bimod -bpred:bimod 2048 cache_quicksort1612690821
	sim-bpred -bpred 2lev -bpred:2lev 1 512 10 1 cache_quicksort1612690821
	sim-bpred -bpred 2lev -bpred:2lev 1 1024 10 1 cache_quicksort1612690821
	sim-bpred -bpred 2lev -bpred:2lev 1 2048 10 1 cache_quicksort1612690821
	sim-bpred -bpred 2lev -bpred:2lev 1 4096 10 1 cache_quicksort1612690821
	sslittle-na-sstrix-gcc -Wall -O3 -funroll-loops -finline-functions  -DRANDOM_SIZE=2097152 -DOFFSET=4 -DSORT=cache_quicksort sorts/cache_quicksort928732455.c simpleMain.c -o cache_quicksort1612690821
	sim-cache -cache:dl1 dl1:256:32:1:l -cache:dl2 dl2:131072:32:1:l -cache:il1 il1:256:32:1:l -cache:il2 dl2 cache_quicksort1612690821
	sim-cache -cache:dl1 dl1:256:32:1:l -cache:dl2 dl2:65536:32:1:l -cache:il1 il1:256:32:1:l -cache:il2 dl2 cache_quicksort1612690821
	sim-cache -cache:dl1 dl1:1:32:256:l -cache:dl2 dl2:1:32:131072:l -cache:il1 il1:1:32:256:l -cache:il2 dl2 cache_quicksort1612690821
	sim-cache -cache:dl1 dl1:1:32:256:l -cache:dl2 dl2:1:32:65536:l -cache:il1 il1:1:32:256:l -cache:il2 dl2 cache_quicksort1612690821
	sim-bpred -bpred bimod -bpred:bimod 512 cache_quicksort1612690821
	sim-bpred -bpred bimod -bpred:bimod 1024 cache_quicksort1612690821
	sim-bpred -bpred bimod -bpred:bimod 2048 cache_quicksort1612690821
	sim-bpred -bpred 2lev -bpred:2lev 1 512 10 1 cache_quicksort1612690821
	sim-bpred -bpred 2lev -bpred:2lev 1 1024 10 1 cache_quicksort1612690821
	sim-bpred -bpred 2lev -bpred:2lev 1 2048 10 1 cache_quicksort1612690821
	sim-bpred -bpred 2lev -bpred:2lev 1 4096 10 1 cache_quicksort1612690821
	sslittle-na-sstrix-gcc -Wall -O3 -funroll-loops -finline-functions  -DRANDOM_SIZE=4194304 -DOFFSET=4 -DSORT=cache_quicksort sorts/cache_quicksort928732455.c simpleMain.c -o cache_quicksort1612690821
	sim-cache -cache:dl1 dl1:256:32:1:l -cache:dl2 dl2:131072:32:1:l -cache:il1 il1:256:32:1:l -cache:il2 dl2 cache_quicksort1612690821
	sim-cache -cache:dl1 dl1:256:32:1:l -cache:dl2 dl2:65536:32:1:l -cache:il1 il1:256:32:1:l -cache:il2 dl2 cache_quicksort1612690821
	sim-cache -cache:dl1 dl1:1:32:256:l -cache:dl2 dl2:1:32:131072:l -cache:il1 il1:1:32:256:l -cache:il2 dl2 cache_quicksort1612690821
	sim-cache -cache:dl1 dl1:1:32:256:l -cache:dl2 dl2:1:32:65536:l -cache:il1 il1:1:32:256:l -cache:il2 dl2 cache_quicksort1612690821
	sim-bpred -bpred bimod -bpred:bimod 512 cache_quicksort1612690821
	sim-bpred -bpred bimod -bpred:bimod 1024 cache_quicksort1612690821
	sim-bpred -bpred bimod -bpred:bimod 2048 cache_quicksort1612690821
	sim-bpred -bpred 2lev -bpred:2lev 1 512 10 1 cache_quicksort1612690821
	sim-bpred -bpred 2lev -bpred:2lev 1 1024 10 1 cache_quicksort1612690821
	sim-bpred -bpred 2lev -bpred:2lev 1 2048 10 1 cache_quicksort1612690821
	sim-bpred -bpred 2lev -bpred:2lev 1 4096 10 1 cache_quicksort1612690821
