Tue Jun 14 07:51:47 2005
Run as: "./simple -c random.org0 -o 0 do_nothing"
-------------------------------------------------------------------------------------------------
sim-cache                                     4096 |         4096 |         4096 |         4096 |         8192 |         8192 |         8192 |         8192 |        16384 |        16384 |        16384 |        16384 |        32768 |        32768 |        32768 |        32768 |        65536 |        65536 |        65536 |        65536 |       131072 |       131072 |       131072 |       131072 |       262144 |       262144 |       262144 |       262144 |       524288 |       524288 |       524288 |       524288 |      1048576 |      1048576 |      1048576 |      1048576 |      2097152 |      2097152 |      2097152 |      2097152 |      4194304 |      4194304 |      4194304 |      4194304 |
-cache:dl1 dl1:256:32:1:l -cache:dl2 dl2:131072:32:1:l -cache:il1 il1:256:32:1:l -cache:il2 dl2
-cache:dl1 dl1:256:32:1:l -cache:dl2 dl2:65536:32:1:l -cache:il1 il1:256:32:1:l -cache:il2 dl2
-cache:dl1 dl1:1:32:256:l -cache:dl2 dl2:1:32:131072:l -cache:il1 il1:1:32:256:l -cache:il2 dl2
-cache:dl1 dl1:1:32:256:l -cache:dl2 dl2:1:32:65536:l -cache:il1 il1:1:32:256:l -cache:il2 dl2
-------------------------------------------------------------------------------------------------
sim_num_insn                                  6181 |         6181 |         6181 |         6181 |         6185 |         6185 |         6185 |         6185 |         6187 |         6187 |         6187 |         6187 |         6188 |         6188 |         6188 |         6188 |         6188 |         6188 |         6188 |         6188 |         6189 |         6189 |         6189 |         6189 |         6189 |         6189 |         6189 |         6189 |         6189 |         6189 |         6189 |         6189 |         6189 |         6189 |         6189 |         6189 |         6189 |         6189 |         6189 |         6189 |         6189 |         6189 |         6189 |         6189 |
sim_num_refs                                  3648 |         3648 |         3648 |         3648 |         3648 |         3648 |         3648 |         3648 |         3648 |         3648 |         3648 |         3648 |         3648 |         3648 |         3648 |         3648 |         3648 |         3648 |         3648 |         3648 |         3648 |         3648 |         3648 |         3648 |         3648 |         3648 |         3648 |         3648 |         3648 |         3648 |         3648 |         3648 |         3648 |         3648 |         3648 |         3648 |         3648 |         3648 |         3648 |         3648 |         3648 |         3648 |         3648 |         3648 |
sim_elapsed_time                                 1 |            1 |            7 |            3 |            1 |            1 |            9 |            5 |            1 |            1 |           15 |            7 |            1 |            1 |           25 |           12 |            1 |            1 |           45 |           22 |            1 |            1 |           83 |           39 |            1 |            1 |          152 |           65 |            1 |            1 |          257 |           85 |            1 |            1 |          340 |           86 |            1 |            2 |          341 |           87 |            4 |            4 |          344 |           89 |
sim_inst_rate                            6181.0000 |    6181.0000 |     883.0000 |    2060.3333 |    6185.0000 |    6185.0000 |     687.2222 |    1237.0000 |    6187.0000 |    6187.0000 |     412.4667 |     883.8571 |    6188.0000 |    6188.0000 |     247.5200 |     515.6667 |    6188.0000 |    6188.0000 |     137.5111 |     281.2727 |    6189.0000 |    6189.0000 |      74.5663 |     158.6923 |    6189.0000 |    6189.0000 |      40.7171 |      95.2154 |    6189.0000 |    6189.0000 |      24.0817 |      72.8118 |    6189.0000 |    6189.0000 |      18.2029 |      71.9651 |    6189.0000 |    3094.5000 |      18.1496 |      71.1379 |    1547.2500 |    1547.2500 |      17.9913 |      69.5393 |
il1.accesses                                  6181 |         6181 |         6181 |         6181 |         6185 |         6185 |         6185 |         6185 |         6187 |         6187 |         6187 |         6187 |         6188 |         6188 |         6188 |         6188 |         6188 |         6188 |         6188 |         6188 |         6189 |         6189 |         6189 |         6189 |         6189 |         6189 |         6189 |         6189 |         6189 |         6189 |         6189 |         6189 |         6189 |         6189 |         6189 |         6189 |         6189 |         6189 |         6189 |         6189 |         6189 |         6189 |         6189 |         6189 |
il1.hits                                      5821 |         5821 |         5880 |         5880 |         5823 |         5823 |         5882 |         5882 |         5834 |         5834 |         5890 |         5890 |         5825 |         5825 |         5884 |         5884 |         5825 |         5825 |         5884 |         5884 |         5827 |         5827 |         5886 |         5886 |         5827 |         5827 |         5886 |         5886 |         5827 |         5827 |         5886 |         5886 |         5827 |         5827 |         5886 |         5886 |         5827 |         5827 |         5886 |         5886 |         5827 |         5827 |         5886 |         5886 |
il1.misses                                     360 |          360 |          301 |          301 |          362 |          362 |          303 |          303 |          353 |          353 |          297 |          297 |          363 |          363 |          304 |          304 |          363 |          363 |          304 |          304 |          362 |          362 |          303 |          303 |          362 |          362 |          303 |          303 |          362 |          362 |          303 |          303 |          362 |          362 |          303 |          303 |          362 |          362 |          303 |          303 |          362 |          362 |          303 |          303 |
il1.replacements                               177 |          177 |           45 |           45 |          179 |          179 |           47 |           47 |          173 |          173 |           41 |           41 |          179 |          179 |           48 |           48 |          179 |          179 |           48 |           48 |          178 |          178 |           47 |           47 |          178 |          178 |           47 |           47 |          178 |          178 |           47 |           47 |          178 |          178 |           47 |           47 |          178 |          178 |           47 |           47 |          178 |          178 |           47 |           47 |
il1.writebacks                                   0 |            0 |            0 |            0 |            0 |            0 |            0 |            0 |            0 |            0 |            0 |            0 |            0 |            0 |            0 |            0 |            0 |            0 |            0 |            0 |            0 |            0 |            0 |            0 |            0 |            0 |            0 |            0 |            0 |            0 |            0 |            0 |            0 |            0 |            0 |            0 |            0 |            0 |            0 |            0 |            0 |            0 |            0 |            0 |
il1.invalidations                                0 |            0 |            0 |            0 |            0 |            0 |            0 |            0 |            0 |            0 |            0 |            0 |            0 |            0 |            0 |            0 |            0 |            0 |            0 |            0 |            0 |            0 |            0 |            0 |            0 |            0 |            0 |            0 |            0 |            0 |            0 |            0 |            0 |            0 |            0 |            0 |            0 |            0 |            0 |            0 |            0 |            0 |            0 |            0 |
il1.miss_rate                               0.0582 |       0.0582 |       0.0487 |       0.0487 |       0.0585 |       0.0585 |       0.0490 |       0.0490 |       0.0571 |       0.0571 |       0.0480 |       0.0480 |       0.0587 |       0.0587 |       0.0491 |       0.0491 |       0.0587 |       0.0587 |       0.0491 |       0.0491 |       0.0585 |       0.0585 |       0.0490 |       0.0490 |       0.0585 |       0.0585 |       0.0490 |       0.0490 |       0.0585 |       0.0585 |       0.0490 |       0.0490 |       0.0585 |       0.0585 |       0.0490 |       0.0490 |       0.0585 |       0.0585 |       0.0490 |       0.0490 |       0.0585 |       0.0585 |       0.0490 |       0.0490 |
il1.repl_rate                               0.0286 |       0.0286 |       0.0073 |       0.0073 |       0.0289 |       0.0289 |       0.0076 |       0.0076 |       0.0280 |       0.0280 |       0.0066 |       0.0066 |       0.0289 |       0.0289 |       0.0078 |       0.0078 |       0.0289 |       0.0289 |       0.0078 |       0.0078 |       0.0288 |       0.0288 |       0.0076 |       0.0076 |       0.0288 |       0.0288 |       0.0076 |       0.0076 |       0.0288 |       0.0288 |       0.0076 |       0.0076 |       0.0288 |       0.0288 |       0.0076 |       0.0076 |       0.0288 |       0.0288 |       0.0076 |       0.0076 |       0.0288 |       0.0288 |       0.0076 |       0.0076 |
il1.wb_rate                                 0.0000 |       0.0000 |       0.0000 |       0.0000 |       0.0000 |       0.0000 |       0.0000 |       0.0000 |       0.0000 |       0.0000 |       0.0000 |       0.0000 |       0.0000 |       0.0000 |       0.0000 |       0.0000 |       0.0000 |       0.0000 |       0.0000 |       0.0000 |       0.0000 |       0.0000 |       0.0000 |       0.0000 |       0.0000 |       0.0000 |       0.0000 |       0.0000 |       0.0000 |       0.0000 |       0.0000 |       0.0000 |       0.0000 |       0.0000 |       0.0000 |       0.0000 |       0.0000 |       0.0000 |       0.0000 |       0.0000 |       0.0000 |       0.0000 |       0.0000 |       0.0000 |
il1.inv_rate                                0.0000 |       0.0000 |       0.0000 |       0.0000 |       0.0000 |       0.0000 |       0.0000 |       0.0000 |       0.0000 |       0.0000 |       0.0000 |       0.0000 |       0.0000 |       0.0000 |       0.0000 |       0.0000 |       0.0000 |       0.0000 |       0.0000 |       0.0000 |       0.0000 |       0.0000 |       0.0000 |       0.0000 |       0.0000 |       0.0000 |       0.0000 |       0.0000 |       0.0000 |       0.0000 |       0.0000 |       0.0000 |       0.0000 |       0.0000 |       0.0000 |       0.0000 |       0.0000 |       0.0000 |       0.0000 |       0.0000 |       0.0000 |       0.0000 |       0.0000 |       0.0000 |
dl1.accesses                                 20106 |        20106 |        20106 |        20106 |        36490 |        36490 |        36490 |        36490 |        69258 |        69258 |        69258 |        69258 |       134794 |       134794 |       134794 |       134794 |       265866 |       265866 |       265866 |       265866 |       528010 |       528010 |       528010 |       528010 |      1052298 |      1052298 |      1052298 |      1052298 |      2100874 |      2100874 |      2100874 |      2100874 |      4198026 |      4198026 |      4198026 |      4198026 |      8392330 |      8392330 |      8392330 |      8392330 |     16780938 |     16780938 |     16780938 |     16780938 |
dl1.hits                                     19156 |        19156 |        19157 |        19157 |        35028 |        35028 |        35029 |        35029 |        66772 |        66772 |        66773 |        66773 |       130260 |       130260 |       130261 |       130261 |       257236 |       257236 |       257237 |       257237 |       511188 |       511188 |       511189 |       511189 |      1019092 |      1019092 |      1019093 |      1019093 |      2034900 |      2034900 |      2034901 |      2034901 |      4066516 |      4066516 |      4066517 |      4066517 |      8129748 |      8129748 |      8129749 |      8129749 |     16256212 |     16256212 |     16256213 |     16256213 |
dl1.misses                                     950 |          950 |          949 |          949 |         1462 |         1462 |         1461 |         1461 |         2486 |         2486 |         2485 |         2485 |         4534 |         4534 |         4533 |         4533 |         8630 |         8630 |         8629 |         8629 |        16822 |        16822 |        16821 |        16821 |        33206 |        33206 |        33205 |        33205 |        65974 |        65974 |        65973 |        65973 |       131510 |       131510 |       131509 |       131509 |       262582 |       262582 |       262581 |       262581 |       524726 |       524726 |       524725 |       524725 |
dl1.replacements                               694 |          694 |          693 |          693 |         1206 |         1206 |         1205 |         1205 |         2230 |         2230 |         2229 |         2229 |         4278 |         4278 |         4277 |         4277 |         8374 |         8374 |         8373 |         8373 |        16566 |        16566 |        16565 |        16565 |        32950 |        32950 |        32949 |        32949 |        65718 |        65718 |        65717 |        65717 |       131254 |       131254 |       131253 |       131253 |       262326 |       262326 |       262325 |       262325 |       524470 |       524470 |       524469 |       524469 |
dl1.writebacks                                 685 |          685 |          684 |          684 |         1197 |         1197 |         1196 |         1196 |         2221 |         2221 |         2220 |         2220 |         4269 |         4269 |         4268 |         4268 |         8365 |         8365 |         8364 |         8364 |        16557 |        16557 |        16556 |        16556 |        32941 |        32941 |        32940 |        32940 |        65709 |        65709 |        65708 |        65708 |       131245 |       131245 |       131244 |       131244 |       262317 |       262317 |       262316 |       262316 |       524461 |       524461 |       524460 |       524460 |
dl1.invalidations                                0 |            0 |            0 |            0 |            0 |            0 |            0 |            0 |            0 |            0 |            0 |            0 |            0 |            0 |            0 |            0 |            0 |            0 |            0 |            0 |            0 |            0 |            0 |            0 |            0 |            0 |            0 |            0 |            0 |            0 |            0 |            0 |            0 |            0 |            0 |            0 |            0 |            0 |            0 |            0 |            0 |            0 |            0 |            0 |
dl1.miss_rate                               0.0472 |       0.0472 |       0.0472 |       0.0472 |       0.0401 |       0.0401 |       0.0400 |       0.0400 |       0.0359 |       0.0359 |       0.0359 |       0.0359 |       0.0336 |       0.0336 |       0.0336 |       0.0336 |       0.0325 |       0.0325 |       0.0325 |       0.0325 |       0.0319 |       0.0319 |       0.0319 |       0.0319 |       0.0316 |       0.0316 |       0.0316 |       0.0316 |       0.0314 |       0.0314 |       0.0314 |       0.0314 |       0.0313 |       0.0313 |       0.0313 |       0.0313 |       0.0313 |       0.0313 |       0.0313 |       0.0313 |       0.0313 |       0.0313 |       0.0313 |       0.0313 |
dl1.repl_rate                               0.0345 |       0.0345 |       0.0345 |       0.0345 |       0.0331 |       0.0331 |       0.0330 |       0.0330 |       0.0322 |       0.0322 |       0.0322 |       0.0322 |       0.0317 |       0.0317 |       0.0317 |       0.0317 |       0.0315 |       0.0315 |       0.0315 |       0.0315 |       0.0314 |       0.0314 |       0.0314 |       0.0314 |       0.0313 |       0.0313 |       0.0313 |       0.0313 |       0.0313 |       0.0313 |       0.0313 |       0.0313 |       0.0313 |       0.0313 |       0.0313 |       0.0313 |       0.0313 |       0.0313 |       0.0313 |       0.0313 |       0.0313 |       0.0313 |       0.0313 |       0.0313 |
dl1.wb_rate                                 0.0341 |       0.0341 |       0.0340 |       0.0340 |       0.0328 |       0.0328 |       0.0328 |       0.0328 |       0.0321 |       0.0321 |       0.0321 |       0.0321 |       0.0317 |       0.0317 |       0.0317 |       0.0317 |       0.0315 |       0.0315 |       0.0315 |       0.0315 |       0.0314 |       0.0314 |       0.0314 |       0.0314 |       0.0313 |       0.0313 |       0.0313 |       0.0313 |       0.0313 |       0.0313 |       0.0313 |       0.0313 |       0.0313 |       0.0313 |       0.0313 |       0.0313 |       0.0313 |       0.0313 |       0.0313 |       0.0313 |       0.0313 |       0.0313 |       0.0313 |       0.0313 |
dl1.inv_rate                                0.0000 |       0.0000 |       0.0000 |       0.0000 |       0.0000 |       0.0000 |       0.0000 |       0.0000 |       0.0000 |       0.0000 |       0.0000 |       0.0000 |       0.0000 |       0.0000 |       0.0000 |       0.0000 |       0.0000 |       0.0000 |       0.0000 |       0.0000 |       0.0000 |       0.0000 |       0.0000 |       0.0000 |       0.0000 |       0.0000 |       0.0000 |       0.0000 |       0.0000 |       0.0000 |       0.0000 |       0.0000 |       0.0000 |       0.0000 |       0.0000 |       0.0000 |       0.0000 |       0.0000 |       0.0000 |       0.0000 |       0.0000 |       0.0000 |       0.0000 |       0.0000 |
dl2.accesses                                  1995 |         1995 |         1934 |         1934 |         3021 |         3021 |         2960 |         2960 |         5060 |         5060 |         5002 |         5002 |         9166 |         9166 |         9105 |         9105 |        17358 |        17358 |        17297 |        17297 |        33741 |        33741 |        33680 |        33680 |        66509 |        66509 |        66448 |        66448 |       132045 |       132045 |       131984 |       131984 |       263117 |       263117 |       263056 |       263056 |       525261 |       525261 |       525200 |       525200 |      1049549 |      1049549 |      1049488 |      1049488 |
dl2.hits                                       767 |          767 |          710 |          710 |         1277 |         1277 |         1222 |         1222 |         2298 |         2298 |         2246 |         2246 |         4349 |         4349 |         4294 |         4294 |         8445 |         8445 |         8390 |         8390 |        16637 |        16637 |        16582 |        16582 |        33021 |        33021 |        32966 |        32966 |        65789 |        65780 |        65734 |        65727 |       131316 |       131316 |       131263 |       131263 |       262388 |       262388 |       262335 |       262335 |       524532 |       524532 |       524479 |       524479 |
dl2.misses                                    1228 |         1228 |         1224 |         1224 |         1744 |         1744 |         1738 |         1738 |         2762 |         2762 |         2756 |         2756 |         4817 |         4817 |         4811 |         4811 |         8913 |         8913 |         8907 |         8907 |        17104 |        17104 |        17098 |        17098 |        33488 |        33488 |        33482 |        33482 |        66256 |        66265 |        66250 |        66257 |       131801 |       131801 |       131793 |       131793 |       262873 |       262873 |       262865 |       262865 |       525017 |       525017 |       525009 |       525009 |
dl2.replacements                                63 |           63 |            0 |            0 |           65 |           65 |            0 |            0 |           65 |           65 |            0 |            0 |           65 |           65 |            0 |            0 |           65 |           65 |            0 |            0 |           65 |           65 |            0 |            0 |           65 |           65 |            0 |            0 |           65 |          729 |            0 |          721 |          729 |        66265 |          721 |        66257 |       131801 |       197337 |       131793 |       197329 |       393945 |       459481 |       393937 |       459473 |
dl2.writebacks                                   2 |            2 |            0 |            0 |            1 |            1 |            0 |            0 |            2 |            2 |            0 |            0 |            1 |            1 |            0 |            0 |            1 |            1 |            0 |            0 |            1 |            1 |            0 |            0 |            1 |            1 |            0 |            0 |            1 |          597 |            0 |          646 |          597 |        66133 |          646 |        66182 |       131669 |       197205 |       131718 |       197254 |       393813 |       459349 |       393862 |       459398 |
dl2.invalidations                                0 |            0 |            0 |            0 |            0 |            0 |            0 |            0 |            0 |            0 |            0 |            0 |            0 |            0 |            0 |            0 |            0 |            0 |            0 |            0 |            0 |            0 |            0 |            0 |            0 |            0 |            0 |            0 |            0 |            0 |            0 |            0 |            0 |            0 |            0 |            0 |            0 |            0 |            0 |            0 |            0 |            0 |            0 |            0 |
dl2.miss_rate                               0.6155 |       0.6155 |       0.6329 |       0.6329 |       0.5773 |       0.5773 |       0.5872 |       0.5872 |       0.5458 |       0.5458 |       0.5510 |       0.5510 |       0.5255 |       0.5255 |       0.5284 |       0.5284 |       0.5135 |       0.5135 |       0.5149 |       0.5149 |       0.5069 |       0.5069 |       0.5077 |       0.5077 |       0.5035 |       0.5035 |       0.5039 |       0.5039 |       0.5018 |       0.5018 |       0.5020 |       0.5020 |       0.5009 |       0.5009 |       0.5010 |       0.5010 |       0.5005 |       0.5005 |       0.5005 |       0.5005 |       0.5002 |       0.5002 |       0.5003 |       0.5003 |
dl2.repl_rate                               0.0316 |       0.0316 |       0.0000 |       0.0000 |       0.0215 |       0.0215 |       0.0000 |       0.0000 |       0.0128 |       0.0128 |       0.0000 |       0.0000 |       0.0071 |       0.0071 |       0.0000 |       0.0000 |       0.0037 |       0.0037 |       0.0000 |       0.0000 |       0.0019 |       0.0019 |       0.0000 |       0.0000 |       0.0010 |       0.0010 |       0.0000 |       0.0000 |       0.0005 |       0.0055 |       0.0000 |       0.0055 |       0.0028 |       0.2518 |       0.0027 |       0.2519 |       0.2509 |       0.3757 |       0.2509 |       0.3757 |       0.3753 |       0.4378 |       0.3754 |       0.4378 |
dl2.wb_rate                                 0.0010 |       0.0010 |       0.0000 |       0.0000 |       0.0003 |       0.0003 |       0.0000 |       0.0000 |       0.0004 |       0.0004 |       0.0000 |       0.0000 |       0.0001 |       0.0001 |       0.0000 |       0.0000 |       0.0001 |       0.0001 |       0.0000 |       0.0000 |       0.0000 |       0.0000 |       0.0000 |       0.0000 |       0.0000 |       0.0000 |       0.0000 |       0.0000 |       0.0000 |       0.0045 |       0.0000 |       0.0049 |       0.0023 |       0.2513 |       0.0025 |       0.2516 |       0.2507 |       0.3754 |       0.2508 |       0.3756 |       0.3752 |       0.4377 |       0.3753 |       0.4377 |
dl2.inv_rate                                0.0000 |       0.0000 |       0.0000 |       0.0000 |       0.0000 |       0.0000 |       0.0000 |       0.0000 |       0.0000 |       0.0000 |       0.0000 |       0.0000 |       0.0000 |       0.0000 |       0.0000 |       0.0000 |       0.0000 |       0.0000 |       0.0000 |       0.0000 |       0.0000 |       0.0000 |       0.0000 |       0.0000 |       0.0000 |       0.0000 |       0.0000 |       0.0000 |       0.0000 |       0.0000 |       0.0000 |       0.0000 |       0.0000 |       0.0000 |       0.0000 |       0.0000 |       0.0000 |       0.0000 |       0.0000 |       0.0000 |       0.0000 |       0.0000 |       0.0000 |       0.0000 |
itlb.accesses                                 6181 |         6181 |         6181 |         6181 |         6185 |         6185 |         6185 |         6185 |         6187 |         6187 |         6187 |         6187 |         6188 |         6188 |         6188 |         6188 |         6188 |         6188 |         6188 |         6188 |         6189 |         6189 |         6189 |         6189 |         6189 |         6189 |         6189 |         6189 |         6189 |         6189 |         6189 |         6189 |         6189 |         6189 |         6189 |         6189 |         6189 |         6189 |         6189 |         6189 |         6189 |         6189 |         6189 |         6189 |
itlb.hits                                     6172 |         6172 |         6172 |         6172 |         6176 |         6176 |         6176 |         6176 |         6178 |         6178 |         6178 |         6178 |         6179 |         6179 |         6179 |         6179 |         6179 |         6179 |         6179 |         6179 |         6180 |         6180 |         6180 |         6180 |         6180 |         6180 |         6180 |         6180 |         6180 |         6180 |         6180 |         6180 |         6180 |         6180 |         6180 |         6180 |         6180 |         6180 |         6180 |         6180 |         6180 |         6180 |         6180 |         6180 |
itlb.misses                                      9 |            9 |            9 |            9 |            9 |            9 |            9 |            9 |            9 |            9 |            9 |            9 |            9 |            9 |            9 |            9 |            9 |            9 |            9 |            9 |            9 |            9 |            9 |            9 |            9 |            9 |            9 |            9 |            9 |            9 |            9 |            9 |            9 |            9 |            9 |            9 |            9 |            9 |            9 |            9 |            9 |            9 |            9 |            9 |
itlb.replacements                                0 |            0 |            0 |            0 |            0 |            0 |            0 |            0 |            0 |            0 |            0 |            0 |            0 |            0 |            0 |            0 |            0 |            0 |            0 |            0 |            0 |            0 |            0 |            0 |            0 |            0 |            0 |            0 |            0 |            0 |            0 |            0 |            0 |            0 |            0 |            0 |            0 |            0 |            0 |            0 |            0 |            0 |            0 |            0 |
itlb.writebacks                                  0 |            0 |            0 |            0 |            0 |            0 |            0 |            0 |            0 |            0 |            0 |            0 |            0 |            0 |            0 |            0 |            0 |            0 |            0 |            0 |            0 |            0 |            0 |            0 |            0 |            0 |            0 |            0 |            0 |            0 |            0 |            0 |            0 |            0 |            0 |            0 |            0 |            0 |            0 |            0 |            0 |            0 |            0 |            0 |
itlb.invalidations                               0 |            0 |            0 |            0 |            0 |            0 |            0 |            0 |            0 |            0 |            0 |            0 |            0 |            0 |            0 |            0 |            0 |            0 |            0 |            0 |            0 |            0 |            0 |            0 |            0 |            0 |            0 |            0 |            0 |            0 |            0 |            0 |            0 |            0 |            0 |            0 |            0 |            0 |            0 |            0 |            0 |            0 |            0 |            0 |
itlb.miss_rate                              0.0015 |       0.0015 |       0.0015 |       0.0015 |       0.0015 |       0.0015 |       0.0015 |       0.0015 |       0.0015 |       0.0015 |       0.0015 |       0.0015 |       0.0015 |       0.0015 |       0.0015 |       0.0015 |       0.0015 |       0.0015 |       0.0015 |       0.0015 |       0.0015 |       0.0015 |       0.0015 |       0.0015 |       0.0015 |       0.0015 |       0.0015 |       0.0015 |       0.0015 |       0.0015 |       0.0015 |       0.0015 |       0.0015 |       0.0015 |       0.0015 |       0.0015 |       0.0015 |       0.0015 |       0.0015 |       0.0015 |       0.0015 |       0.0015 |       0.0015 |       0.0015 |
itlb.repl_rate                              0.0000 |       0.0000 |       0.0000 |       0.0000 |       0.0000 |       0.0000 |       0.0000 |       0.0000 |       0.0000 |       0.0000 |       0.0000 |       0.0000 |       0.0000 |       0.0000 |       0.0000 |       0.0000 |       0.0000 |       0.0000 |       0.0000 |       0.0000 |       0.0000 |       0.0000 |       0.0000 |       0.0000 |       0.0000 |       0.0000 |       0.0000 |       0.0000 |       0.0000 |       0.0000 |       0.0000 |       0.0000 |       0.0000 |       0.0000 |       0.0000 |       0.0000 |       0.0000 |       0.0000 |       0.0000 |       0.0000 |       0.0000 |       0.0000 |       0.0000 |       0.0000 |
itlb.wb_rate                                0.0000 |       0.0000 |       0.0000 |       0.0000 |       0.0000 |       0.0000 |       0.0000 |       0.0000 |       0.0000 |       0.0000 |       0.0000 |       0.0000 |       0.0000 |       0.0000 |       0.0000 |       0.0000 |       0.0000 |       0.0000 |       0.0000 |       0.0000 |       0.0000 |       0.0000 |       0.0000 |       0.0000 |       0.0000 |       0.0000 |       0.0000 |       0.0000 |       0.0000 |       0.0000 |       0.0000 |       0.0000 |       0.0000 |       0.0000 |       0.0000 |       0.0000 |       0.0000 |       0.0000 |       0.0000 |       0.0000 |       0.0000 |       0.0000 |       0.0000 |       0.0000 |
itlb.inv_rate                               0.0000 |       0.0000 |       0.0000 |       0.0000 |       0.0000 |       0.0000 |       0.0000 |       0.0000 |       0.0000 |       0.0000 |       0.0000 |       0.0000 |       0.0000 |       0.0000 |       0.0000 |       0.0000 |       0.0000 |       0.0000 |       0.0000 |       0.0000 |       0.0000 |       0.0000 |       0.0000 |       0.0000 |       0.0000 |       0.0000 |       0.0000 |       0.0000 |       0.0000 |       0.0000 |       0.0000 |       0.0000 |       0.0000 |       0.0000 |       0.0000 |       0.0000 |       0.0000 |       0.0000 |       0.0000 |       0.0000 |       0.0000 |       0.0000 |       0.0000 |       0.0000 |
dtlb.accesses                                20106 |        20106 |        20106 |        20106 |        36490 |        36490 |        36490 |        36490 |        69258 |        69258 |        69258 |        69258 |       134794 |       134794 |       134794 |       134794 |       265866 |       265866 |       265866 |       265866 |       528010 |       528010 |       528010 |       528010 |      1052298 |      1052298 |      1052298 |      1052298 |      2100874 |      2100874 |      2100874 |      2100874 |      4198026 |      4198026 |      4198026 |      4198026 |      8392330 |      8392330 |      8392330 |      8392330 |     16780938 |     16780938 |     16780938 |     16780938 |
dtlb.hits                                    20095 |        20095 |        20095 |        20095 |        36475 |        36475 |        36475 |        36475 |        69235 |        69235 |        69235 |        69235 |       134755 |       134755 |       134755 |       134755 |       265795 |       265795 |       265795 |       265795 |       527872 |       527872 |       527872 |       527872 |      1052032 |      1052032 |      1052032 |      1052032 |      2100352 |      2100352 |      2100352 |      2100352 |      4196992 |      4196992 |      4196992 |      4196992 |      8390272 |      8390272 |      8390272 |      8390272 |     16776832 |     16776832 |     16776832 |     16776832 |
dtlb.misses                                     11 |           11 |           11 |           11 |           15 |           15 |           15 |           15 |           23 |           23 |           23 |           23 |           39 |           39 |           39 |           39 |           71 |           71 |           71 |           71 |          138 |          138 |          138 |          138 |          266 |          266 |          266 |          266 |          522 |          522 |          522 |          522 |         1034 |         1034 |         1034 |         1034 |         2058 |         2058 |         2058 |         2058 |         4106 |         4106 |         4106 |         4106 |
dtlb.replacements                                0 |            0 |            0 |            0 |            0 |            0 |            0 |            0 |            0 |            0 |            0 |            0 |            0 |            0 |            0 |            0 |            0 |            0 |            0 |            0 |           10 |           10 |           10 |           10 |          138 |          138 |          138 |          138 |          394 |          394 |          394 |          394 |          906 |          906 |          906 |          906 |         1930 |         1930 |         1930 |         1930 |         3978 |         3978 |         3978 |         3978 |
dtlb.writebacks                                  0 |            0 |            0 |            0 |            0 |            0 |            0 |            0 |            0 |            0 |            0 |            0 |            0 |            0 |            0 |            0 |            0 |            0 |            0 |            0 |            9 |            9 |            9 |            9 |          137 |          137 |          137 |          137 |          393 |          393 |          393 |          393 |          905 |          905 |          905 |          905 |         1929 |         1929 |         1929 |         1929 |         3977 |         3977 |         3977 |         3977 |
dtlb.invalidations                               0 |            0 |            0 |            0 |            0 |            0 |            0 |            0 |            0 |            0 |            0 |            0 |            0 |            0 |            0 |            0 |            0 |            0 |            0 |            0 |            0 |            0 |            0 |            0 |            0 |            0 |            0 |            0 |            0 |            0 |            0 |            0 |            0 |            0 |            0 |            0 |            0 |            0 |            0 |            0 |            0 |            0 |            0 |            0 |
dtlb.miss_rate                              0.0005 |       0.0005 |       0.0005 |       0.0005 |       0.0004 |       0.0004 |       0.0004 |       0.0004 |       0.0003 |       0.0003 |       0.0003 |       0.0003 |       0.0003 |       0.0003 |       0.0003 |       0.0003 |       0.0003 |       0.0003 |       0.0003 |       0.0003 |       0.0003 |       0.0003 |       0.0003 |       0.0003 |       0.0003 |       0.0003 |       0.0003 |       0.0003 |       0.0002 |       0.0002 |       0.0002 |       0.0002 |       0.0002 |       0.0002 |       0.0002 |       0.0002 |       0.0002 |       0.0002 |       0.0002 |       0.0002 |       0.0002 |       0.0002 |       0.0002 |       0.0002 |
dtlb.repl_rate                              0.0000 |       0.0000 |       0.0000 |       0.0000 |       0.0000 |       0.0000 |       0.0000 |       0.0000 |       0.0000 |       0.0000 |       0.0000 |       0.0000 |       0.0000 |       0.0000 |       0.0000 |       0.0000 |       0.0000 |       0.0000 |       0.0000 |       0.0000 |       0.0000 |       0.0000 |       0.0000 |       0.0000 |       0.0001 |       0.0001 |       0.0001 |       0.0001 |       0.0002 |       0.0002 |       0.0002 |       0.0002 |       0.0002 |       0.0002 |       0.0002 |       0.0002 |       0.0002 |       0.0002 |       0.0002 |       0.0002 |       0.0002 |       0.0002 |       0.0002 |       0.0002 |
dtlb.wb_rate                                0.0000 |       0.0000 |       0.0000 |       0.0000 |       0.0000 |       0.0000 |       0.0000 |       0.0000 |       0.0000 |       0.0000 |       0.0000 |       0.0000 |       0.0000 |       0.0000 |       0.0000 |       0.0000 |       0.0000 |       0.0000 |       0.0000 |       0.0000 |       0.0000 |       0.0000 |       0.0000 |       0.0000 |       0.0001 |       0.0001 |       0.0001 |       0.0001 |       0.0002 |       0.0002 |       0.0002 |       0.0002 |       0.0002 |       0.0002 |       0.0002 |       0.0002 |       0.0002 |       0.0002 |       0.0002 |       0.0002 |       0.0002 |       0.0002 |       0.0002 |       0.0002 |
dtlb.inv_rate                               0.0000 |       0.0000 |       0.0000 |       0.0000 |       0.0000 |       0.0000 |       0.0000 |       0.0000 |       0.0000 |       0.0000 |       0.0000 |       0.0000 |       0.0000 |       0.0000 |       0.0000 |       0.0000 |       0.0000 |       0.0000 |       0.0000 |       0.0000 |       0.0000 |       0.0000 |       0.0000 |       0.0000 |       0.0000 |       0.0000 |       0.0000 |       0.0000 |       0.0000 |       0.0000 |       0.0000 |       0.0000 |       0.0000 |       0.0000 |       0.0000 |       0.0000 |       0.0000 |       0.0000 |       0.0000 |       0.0000 |       0.0000 |       0.0000 |       0.0000 |       0.0000 |
ld_text_base                            0x00400000 |   0x00400000 |   0x00400000 |   0x00400000 |   0x00400000 |   0x00400000 |   0x00400000 |   0x00400000 |   0x00400000 |   0x00400000 |   0x00400000 |   0x00400000 |   0x00400000 |   0x00400000 |   0x00400000 |   0x00400000 |   0x00400000 |   0x00400000 |   0x00400000 |   0x00400000 |   0x00400000 |   0x00400000 |   0x00400000 |   0x00400000 |   0x00400000 |   0x00400000 |   0x00400000 |   0x00400000 |   0x00400000 |   0x00400000 |   0x00400000 |   0x00400000 |   0x00400000 |   0x00400000 |   0x00400000 |   0x00400000 |   0x00400000 |   0x00400000 |   0x00400000 |   0x00400000 |   0x00400000 |   0x00400000 |   0x00400000 |   0x00400000 |
ld_text_size                                 70672 |        70672 |        70672 |        70672 |        70704 |        70704 |        70704 |        70704 |        70720 |        70720 |        70720 |        70720 |        70736 |        70736 |        70736 |        70736 |        70736 |        70736 |        70736 |        70736 |        70736 |        70736 |        70736 |        70736 |        70736 |        70736 |        70736 |        70736 |        70736 |        70736 |        70736 |        70736 |        70736 |        70736 |        70736 |        70736 |        70736 |        70736 |        70736 |        70736 |        70736 |        70736 |        70736 |        70736 |
ld_data_base                            0x10000000 |   0x10000000 |   0x10000000 |   0x10000000 |   0x10000000 |   0x10000000 |   0x10000000 |   0x10000000 |   0x10000000 |   0x10000000 |   0x10000000 |   0x10000000 |   0x10000000 |   0x10000000 |   0x10000000 |   0x10000000 |   0x10000000 |   0x10000000 |   0x10000000 |   0x10000000 |   0x10000000 |   0x10000000 |   0x10000000 |   0x10000000 |   0x10000000 |   0x10000000 |   0x10000000 |   0x10000000 |   0x10000000 |   0x10000000 |   0x10000000 |   0x10000000 |   0x10000000 |   0x10000000 |   0x10000000 |   0x10000000 |   0x10000000 |   0x10000000 |   0x10000000 |   0x10000000 |   0x10000000 |   0x10000000 |   0x10000000 |   0x10000000 |
ld_data_size                                  8192 |         8192 |         8192 |         8192 |         8192 |         8192 |         8192 |         8192 |         8192 |         8192 |         8192 |         8192 |         8192 |         8192 |         8192 |         8192 |         8192 |         8192 |         8192 |         8192 |         8192 |         8192 |         8192 |         8192 |         8192 |         8192 |         8192 |         8192 |         8192 |         8192 |         8192 |         8192 |         8192 |         8192 |         8192 |         8192 |         8192 |         8192 |         8192 |         8192 |         8192 |         8192 |         8192 |         8192 |
ld_stack_base                           0x7fffc000 |   0x7fffc000 |   0x7fffc000 |   0x7fffc000 |   0x7fffc000 |   0x7fffc000 |   0x7fffc000 |   0x7fffc000 |   0x7fffc000 |   0x7fffc000 |   0x7fffc000 |   0x7fffc000 |   0x7fffc000 |   0x7fffc000 |   0x7fffc000 |   0x7fffc000 |   0x7fffc000 |   0x7fffc000 |   0x7fffc000 |   0x7fffc000 |   0x7fffc000 |   0x7fffc000 |   0x7fffc000 |   0x7fffc000 |   0x7fffc000 |   0x7fffc000 |   0x7fffc000 |   0x7fffc000 |   0x7fffc000 |   0x7fffc000 |   0x7fffc000 |   0x7fffc000 |   0x7fffc000 |   0x7fffc000 |   0x7fffc000 |   0x7fffc000 |   0x7fffc000 |   0x7fffc000 |   0x7fffc000 |   0x7fffc000 |   0x7fffc000 |   0x7fffc000 |   0x7fffc000 |   0x7fffc000 |
ld_stack_size                                16384 |        16384 |        16384 |        16384 |        16384 |        16384 |        16384 |        16384 |        16384 |        16384 |        16384 |        16384 |        16384 |        16384 |        16384 |        16384 |        16384 |        16384 |        16384 |        16384 |        16384 |        16384 |        16384 |        16384 |        16384 |        16384 |        16384 |        16384 |        16384 |        16384 |        16384 |        16384 |        16384 |        16384 |        16384 |        16384 |        16384 |        16384 |        16384 |        16384 |        16384 |        16384 |        16384 |        16384 |
ld_prog_entry                           0x00400140 |   0x00400140 |   0x00400140 |   0x00400140 |   0x00400140 |   0x00400140 |   0x00400140 |   0x00400140 |   0x00400140 |   0x00400140 |   0x00400140 |   0x00400140 |   0x00400140 |   0x00400140 |   0x00400140 |   0x00400140 |   0x00400140 |   0x00400140 |   0x00400140 |   0x00400140 |   0x00400140 |   0x00400140 |   0x00400140 |   0x00400140 |   0x00400140 |   0x00400140 |   0x00400140 |   0x00400140 |   0x00400140 |   0x00400140 |   0x00400140 |   0x00400140 |   0x00400140 |   0x00400140 |   0x00400140 |   0x00400140 |   0x00400140 |   0x00400140 |   0x00400140 |   0x00400140 |   0x00400140 |   0x00400140 |   0x00400140 |   0x00400140 |
ld_environ_base                         0x7fff8000 |   0x7fff8000 |   0x7fff8000 |   0x7fff8000 |   0x7fff8000 |   0x7fff8000 |   0x7fff8000 |   0x7fff8000 |   0x7fff8000 |   0x7fff8000 |   0x7fff8000 |   0x7fff8000 |   0x7fff8000 |   0x7fff8000 |   0x7fff8000 |   0x7fff8000 |   0x7fff8000 |   0x7fff8000 |   0x7fff8000 |   0x7fff8000 |   0x7fff8000 |   0x7fff8000 |   0x7fff8000 |   0x7fff8000 |   0x7fff8000 |   0x7fff8000 |   0x7fff8000 |   0x7fff8000 |   0x7fff8000 |   0x7fff8000 |   0x7fff8000 |   0x7fff8000 |   0x7fff8000 |   0x7fff8000 |   0x7fff8000 |   0x7fff8000 |   0x7fff8000 |   0x7fff8000 |   0x7fff8000 |   0x7fff8000 |   0x7fff8000 |   0x7fff8000 |   0x7fff8000 |   0x7fff8000 |
ld_target_big_endian                             0 |            0 |            0 |            0 |            0 |            0 |            0 |            0 |            0 |            0 |            0 |            0 |            0 |            0 |            0 |            0 |            0 |            0 |            0 |            0 |            0 |            0 |            0 |            0 |            0 |            0 |            0 |            0 |            0 |            0 |            0 |            0 |            0 |            0 |            0 |            0 |            0 |            0 |            0 |            0 |            0 |            0 |            0 |            0 |
mem.page_count                                  29 |           29 |           29 |           29 |           33 |           33 |           33 |           33 |           41 |           41 |           41 |           41 |           57 |           57 |           57 |           57 |           89 |           89 |           89 |           89 |          153 |          153 |          153 |          153 |          281 |          281 |          281 |          281 |          537 |          537 |          537 |          537 |         1049 |         1049 |         1049 |         1049 |         2073 |         2073 |         2073 |         2073 |         4121 |         4121 |         4121 |         4121 |
mem.page_mem                                  116k |         116k |         116k |         116k |         132k |         132k |         132k |         132k |         164k |         164k |         164k |         164k |         228k |         228k |         228k |         228k |         356k |         356k |         356k |         356k |         612k |         612k |         612k |         612k |        1124k |        1124k |        1124k |        1124k |        2148k |        2148k |        2148k |        2148k |        4196k |        4196k |        4196k |        4196k |        8292k |        8292k |        8292k |        8292k |       16484k |       16484k |       16484k |       16484k |
mem.ptab_misses                                 29 |           29 |           29 |           29 |           33 |           33 |           33 |           33 |           41 |           41 |           41 |           41 |           57 |           57 |           57 |           57 |           89 |           89 |           89 |           89 |          153 |          153 |          153 |          153 |          281 |          281 |          281 |          281 |          537 |          537 |          537 |          537 |         1049 |         1049 |         1049 |         1049 |         2073 |         2073 |         2073 |         2073 |         4121 |         4121 |         4121 |         4121 |
mem.ptab_accesses                           503570 |       503570 |       503570 |       503570 |       536546 |       536546 |       536546 |       536546 |       602186 |       602186 |       602186 |       602186 |       733358 |       733358 |       733358 |       733358 |       995502 |       995502 |       995502 |       995502 |      1519794 |      1519794 |      1519794 |      1519794 |      2568370 |      2568370 |      2568370 |      2568370 |      4665522 |      4665522 |      4665522 |      4665522 |      8859826 |      8859826 |      8859826 |      8859826 |     17248434 |     17248434 |     17248434 |     17248434 |     34025650 |     34025650 |     34025650 |     34025650 |
mem.ptab_miss_rate                          0.0001 |       0.0001 |       0.0001 |       0.0001 |       0.0001 |       0.0001 |       0.0001 |       0.0001 |       0.0001 |       0.0001 |       0.0001 |       0.0001 |       0.0001 |       0.0001 |       0.0001 |       0.0001 |       0.0001 |       0.0001 |       0.0001 |       0.0001 |       0.0001 |       0.0001 |       0.0001 |       0.0001 |       0.0001 |       0.0001 |       0.0001 |       0.0001 |       0.0001 |       0.0001 |       0.0001 |       0.0001 |       0.0001 |       0.0001 |       0.0001 |       0.0001 |       0.0001 |       0.0001 |       0.0001 |       0.0001 |       0.0001 |       0.0001 |       0.0001 |       0.0001 |
-------------------------------------------------------------------------------------------------
sim-bpred                                     4096 |         4096 |         4096 |         4096 |         4096 |         4096 |         4096 |         8192 |         8192 |         8192 |         8192 |         8192 |         8192 |         8192 |        16384 |        16384 |        16384 |        16384 |        16384 |        16384 |        16384 |        32768 |        32768 |        32768 |        32768 |        32768 |        32768 |        32768 |        65536 |        65536 |        65536 |        65536 |        65536 |        65536 |        65536 |       131072 |       131072 |       131072 |       131072 |       131072 |       131072 |       131072 |       262144 |       262144 |       262144 |       262144 |       262144 |       262144 |       262144 |       524288 |       524288 |       524288 |       524288 |       524288 |       524288 |       524288 |      1048576 |      1048576 |      1048576 |      1048576 |      1048576 |      1048576 |      1048576 |      2097152 |      2097152 |      2097152 |      2097152 |      2097152 |      2097152 |      2097152 |      4194304 |      4194304 |      4194304 |      4194304 |      4194304 |      4194304 |      4194304 |
-bpred bimod -bpred:bimod 512
-bpred bimod -bpred:bimod 1024
-bpred bimod -bpred:bimod 2048
-bpred 2lev -bpred:2lev 1 512 10 1
-bpred 2lev -bpred:2lev 1 1024 10 1
-bpred 2lev -bpred:2lev 1 2048 10 1
-bpred 2lev -bpred:2lev 1 4096 10 1
-------------------------------------------------------------------------------------------------
sim_num_insn                                  6181 |         6181 |         6181 |         6181 |         6181 |         6181 |         6181 |         6185 |         6185 |         6185 |         6185 |         6185 |         6185 |         6185 |         6187 |         6187 |         6187 |         6187 |         6187 |         6187 |         6187 |         6188 |         6188 |         6188 |         6188 |         6188 |         6188 |         6188 |         6188 |         6188 |         6188 |         6188 |         6188 |         6188 |         6188 |         6189 |         6189 |         6189 |         6189 |         6189 |         6189 |         6189 |         6189 |         6189 |         6189 |         6189 |         6189 |         6189 |         6189 |         6189 |         6189 |         6189 |         6189 |         6189 |         6189 |         6189 |         6189 |         6189 |         6189 |         6189 |         6189 |         6189 |         6189 |         6189 |         6189 |         6189 |         6189 |         6189 |         6189 |         6189 |         6189 |         6189 |         6189 |         6189 |         6189 |         6189 |         6189 |
sim_num_refs                                  3648 |         3648 |         3648 |         3648 |         3648 |         3648 |         3648 |         3648 |         3648 |         3648 |         3648 |         3648 |         3648 |         3648 |         3648 |         3648 |         3648 |         3648 |         3648 |         3648 |         3648 |         3648 |         3648 |         3648 |         3648 |         3648 |         3648 |         3648 |         3648 |         3648 |         3648 |         3648 |         3648 |         3648 |         3648 |         3648 |         3648 |         3648 |         3648 |         3648 |         3648 |         3648 |         3648 |         3648 |         3648 |         3648 |         3648 |         3648 |         3648 |         3648 |         3648 |         3648 |         3648 |         3648 |         3648 |         3648 |         3648 |         3648 |         3648 |         3648 |         3648 |         3648 |         3648 |         3648 |         3648 |         3648 |         3648 |         3648 |         3648 |         3648 |         3648 |         3648 |         3648 |         3648 |         3648 |         3648 |         3648 |
sim_elapsed_time                                 1 |            1 |            1 |            1 |            1 |            1 |            1 |            1 |            1 |            1 |            1 |            1 |            1 |            1 |            1 |            1 |            1 |            1 |            1 |            1 |            1 |            1 |            1 |            1 |            1 |            1 |            1 |            1 |            1 |            1 |            1 |            1 |            1 |            1 |            1 |            1 |            1 |            1 |            1 |            1 |            1 |            1 |            1 |            1 |            1 |            1 |            1 |            1 |            1 |            1 |            1 |            1 |            1 |            1 |            1 |            1 |            1 |            1 |            1 |            1 |            1 |            1 |            1 |            1 |            1 |            1 |            1 |            1 |            1 |            1 |            1 |            1 |            1 |            1 |            1 |            1 |            1 |
sim_inst_rate                            6181.0000 |    6181.0000 |    6181.0000 |    6181.0000 |    6181.0000 |    6181.0000 |    6181.0000 |    6185.0000 |    6185.0000 |    6185.0000 |    6185.0000 |    6185.0000 |    6185.0000 |    6185.0000 |    6187.0000 |    6187.0000 |    6187.0000 |    6187.0000 |    6187.0000 |    6187.0000 |    6187.0000 |    6188.0000 |    6188.0000 |    6188.0000 |    6188.0000 |    6188.0000 |    6188.0000 |    6188.0000 |    6188.0000 |    6188.0000 |    6188.0000 |    6188.0000 |    6188.0000 |    6188.0000 |    6188.0000 |    6189.0000 |    6189.0000 |    6189.0000 |    6189.0000 |    6189.0000 |    6189.0000 |    6189.0000 |    6189.0000 |    6189.0000 |    6189.0000 |    6189.0000 |    6189.0000 |    6189.0000 |    6189.0000 |    6189.0000 |    6189.0000 |    6189.0000 |    6189.0000 |    6189.0000 |    6189.0000 |    6189.0000 |    6189.0000 |    6189.0000 |    6189.0000 |    6189.0000 |    6189.0000 |    6189.0000 |    6189.0000 |    6189.0000 |    6189.0000 |    6189.0000 |    6189.0000 |    6189.0000 |    6189.0000 |    6189.0000 |    6189.0000 |    6189.0000 |    6189.0000 |    6189.0000 |    6189.0000 |    6189.0000 |    6189.0000 |
sim_num_branches                               744 |          744 |          744 |          744 |          744 |          744 |          744 |          744 |          744 |          744 |          744 |          744 |          744 |          744 |          744 |          744 |          744 |          744 |          744 |          744 |          744 |          744 |          744 |          744 |          744 |          744 |          744 |          744 |          744 |          744 |          744 |          744 |          744 |          744 |          744 |          744 |          744 |          744 |          744 |          744 |          744 |          744 |          744 |          744 |          744 |          744 |          744 |          744 |          744 |          744 |          744 |          744 |          744 |          744 |          744 |          744 |          744 |          744 |          744 |          744 |          744 |          744 |          744 |          744 |          744 |          744 |          744 |          744 |          744 |          744 |          744 |          744 |          744 |          744 |          744 |          744 |          744 |
sim_IPB                                     8.3078 |       8.3078 |       8.3078 |       8.3078 |       8.3078 |       8.3078 |       8.3078 |       8.3132 |       8.3132 |       8.3132 |       8.3132 |       8.3132 |       8.3132 |       8.3132 |       8.3159 |       8.3159 |       8.3159 |       8.3159 |       8.3159 |       8.3159 |       8.3159 |       8.3172 |       8.3172 |       8.3172 |       8.3172 |       8.3172 |       8.3172 |       8.3172 |       8.3172 |       8.3172 |       8.3172 |       8.3172 |       8.3172 |       8.3172 |       8.3172 |       8.3185 |       8.3185 |       8.3185 |       8.3185 |       8.3185 |       8.3185 |       8.3185 |       8.3185 |       8.3185 |       8.3185 |       8.3185 |       8.3185 |       8.3185 |       8.3185 |       8.3185 |       8.3185 |       8.3185 |       8.3185 |       8.3185 |       8.3185 |       8.3185 |       8.3185 |       8.3185 |       8.3185 |       8.3185 |       8.3185 |       8.3185 |       8.3185 |       8.3185 |       8.3185 |       8.3185 |       8.3185 |       8.3185 |       8.3185 |       8.3185 |       8.3185 |       8.3185 |       8.3185 |       8.3185 |       8.3185 |       8.3185 |       8.3185 |
bpred_bimod.lookups                            744 |          744 |          744 |xxxxxxxxxxxxx |xxxxxxxxxxxxx |xxxxxxxxxxxxx |xxxxxxxxxxxxx |          744 |          744 |          744 |xxxxxxxxxxxxx |xxxxxxxxxxxxx |xxxxxxxxxxxxx |xxxxxxxxxxxxx |          744 |          744 |          744 |xxxxxxxxxxxxx |xxxxxxxxxxxxx |xxxxxxxxxxxxx |xxxxxxxxxxxxx |          744 |          744 |          744 |xxxxxxxxxxxxx |xxxxxxxxxxxxx |xxxxxxxxxxxxx |xxxxxxxxxxxxx |          744 |          744 |          744 |xxxxxxxxxxxxx |xxxxxxxxxxxxx |xxxxxxxxxxxxx |xxxxxxxxxxxxx |          744 |          744 |          744 |xxxxxxxxxxxxx |xxxxxxxxxxxxx |xxxxxxxxxxxxx |xxxxxxxxxxxxx |          744 |          744 |          744 |xxxxxxxxxxxxx |xxxxxxxxxxxxx |xxxxxxxxxxxxx |xxxxxxxxxxxxx |          744 |          744 |          744 |xxxxxxxxxxxxx |xxxxxxxxxxxxx |xxxxxxxxxxxxx |xxxxxxxxxxxxx |          744 |          744 |          744 |xxxxxxxxxxxxx |xxxxxxxxxxxxx |xxxxxxxxxxxxx |xxxxxxxxxxxxx |          744 |          744 |          744 |xxxxxxxxxxxxx |xxxxxxxxxxxxx |xxxxxxxxxxxxx |xxxxxxxxxxxxx |          744 |          744 |          744 |
bpred_bimod.updates                            744 |          744 |          744 |xxxxxxxxxxxxx |xxxxxxxxxxxxx |xxxxxxxxxxxxx |xxxxxxxxxxxxx |          744 |          744 |          744 |xxxxxxxxxxxxx |xxxxxxxxxxxxx |xxxxxxxxxxxxx |xxxxxxxxxxxxx |          744 |          744 |          744 |xxxxxxxxxxxxx |xxxxxxxxxxxxx |xxxxxxxxxxxxx |xxxxxxxxxxxxx |          744 |          744 |          744 |xxxxxxxxxxxxx |xxxxxxxxxxxxx |xxxxxxxxxxxxx |xxxxxxxxxxxxx |          744 |          744 |          744 |xxxxxxxxxxxxx |xxxxxxxxxxxxx |xxxxxxxxxxxxx |xxxxxxxxxxxxx |          744 |          744 |          744 |xxxxxxxxxxxxx |xxxxxxxxxxxxx |xxxxxxxxxxxxx |xxxxxxxxxxxxx |          744 |          744 |          744 |xxxxxxxxxxxxx |xxxxxxxxxxxxx |xxxxxxxxxxxxx |xxxxxxxxxxxxx |          744 |          744 |          744 |xxxxxxxxxxxxx |xxxxxxxxxxxxx |xxxxxxxxxxxxx |xxxxxxxxxxxxx |          744 |          744 |          744 |xxxxxxxxxxxxx |xxxxxxxxxxxxx |xxxxxxxxxxxxx |xxxxxxxxxxxxx |          744 |          744 |          744 |xxxxxxxxxxxxx |xxxxxxxxxxxxx |xxxxxxxxxxxxx |xxxxxxxxxxxxx |          744 |          744 |          744 |
bpred_bimod.addr_hits                          574 |          577 |          577 |xxxxxxxxxxxxx |xxxxxxxxxxxxx |xxxxxxxxxxxxx |xxxxxxxxxxxxx |          574 |          577 |          577 |xxxxxxxxxxxxx |xxxxxxxxxxxxx |xxxxxxxxxxxxx |xxxxxxxxxxxxx |          574 |          577 |          577 |xxxxxxxxxxxxx |xxxxxxxxxxxxx |xxxxxxxxxxxxx |xxxxxxxxxxxxx |          574 |          577 |          577 |xxxxxxxxxxxxx |xxxxxxxxxxxxx |xxxxxxxxxxxxx |xxxxxxxxxxxxx |          574 |          577 |          577 |xxxxxxxxxxxxx |xxxxxxxxxxxxx |xxxxxxxxxxxxx |xxxxxxxxxxxxx |          574 |          577 |          577 |xxxxxxxxxxxxx |xxxxxxxxxxxxx |xxxxxxxxxxxxx |xxxxxxxxxxxxx |          574 |          577 |          577 |xxxxxxxxxxxxx |xxxxxxxxxxxxx |xxxxxxxxxxxxx |xxxxxxxxxxxxx |          574 |          577 |          577 |xxxxxxxxxxxxx |xxxxxxxxxxxxx |xxxxxxxxxxxxx |xxxxxxxxxxxxx |          574 |          577 |          577 |xxxxxxxxxxxxx |xxxxxxxxxxxxx |xxxxxxxxxxxxx |xxxxxxxxxxxxx |          574 |          577 |          577 |xxxxxxxxxxxxx |xxxxxxxxxxxxx |xxxxxxxxxxxxx |xxxxxxxxxxxxx |          574 |          577 |          577 |
bpred_bimod.dir_hits                           666 |          668 |          667 |xxxxxxxxxxxxx |xxxxxxxxxxxxx |xxxxxxxxxxxxx |xxxxxxxxxxxxx |          666 |          668 |          667 |xxxxxxxxxxxxx |xxxxxxxxxxxxx |xxxxxxxxxxxxx |xxxxxxxxxxxxx |          666 |          668 |          667 |xxxxxxxxxxxxx |xxxxxxxxxxxxx |xxxxxxxxxxxxx |xxxxxxxxxxxxx |          665 |          667 |          666 |xxxxxxxxxxxxx |xxxxxxxxxxxxx |xxxxxxxxxxxxx |xxxxxxxxxxxxx |          665 |          667 |          666 |xxxxxxxxxxxxx |xxxxxxxxxxxxx |xxxxxxxxxxxxx |xxxxxxxxxxxxx |          666 |          668 |          667 |xxxxxxxxxxxxx |xxxxxxxxxxxxx |xxxxxxxxxxxxx |xxxxxxxxxxxxx |          666 |          668 |          667 |xxxxxxxxxxxxx |xxxxxxxxxxxxx |xxxxxxxxxxxxx |xxxxxxxxxxxxx |          666 |          668 |          667 |xxxxxxxxxxxxx |xxxxxxxxxxxxx |xxxxxxxxxxxxx |xxxxxxxxxxxxx |          666 |          668 |          667 |xxxxxxxxxxxxx |xxxxxxxxxxxxx |xxxxxxxxxxxxx |xxxxxxxxxxxxx |          666 |          668 |          667 |xxxxxxxxxxxxx |xxxxxxxxxxxxx |xxxxxxxxxxxxx |xxxxxxxxxxxxx |          666 |          668 |          667 |
bpred_bimod.misses                              78 |           76 |           77 |xxxxxxxxxxxxx |xxxxxxxxxxxxx |xxxxxxxxxxxxx |xxxxxxxxxxxxx |           78 |           76 |           77 |xxxxxxxxxxxxx |xxxxxxxxxxxxx |xxxxxxxxxxxxx |xxxxxxxxxxxxx |           78 |           76 |           77 |xxxxxxxxxxxxx |xxxxxxxxxxxxx |xxxxxxxxxxxxx |xxxxxxxxxxxxx |           79 |           77 |           78 |xxxxxxxxxxxxx |xxxxxxxxxxxxx |xxxxxxxxxxxxx |xxxxxxxxxxxxx |           79 |           77 |           78 |xxxxxxxxxxxxx |xxxxxxxxxxxxx |xxxxxxxxxxxxx |xxxxxxxxxxxxx |           78 |           76 |           77 |xxxxxxxxxxxxx |xxxxxxxxxxxxx |xxxxxxxxxxxxx |xxxxxxxxxxxxx |           78 |           76 |           77 |xxxxxxxxxxxxx |xxxxxxxxxxxxx |xxxxxxxxxxxxx |xxxxxxxxxxxxx |           78 |           76 |           77 |xxxxxxxxxxxxx |xxxxxxxxxxxxx |xxxxxxxxxxxxx |xxxxxxxxxxxxx |           78 |           76 |           77 |xxxxxxxxxxxxx |xxxxxxxxxxxxx |xxxxxxxxxxxxx |xxxxxxxxxxxxx |           78 |           76 |           77 |xxxxxxxxxxxxx |xxxxxxxxxxxxx |xxxxxxxxxxxxx |xxxxxxxxxxxxx |           78 |           76 |           77 |
bpred_bimod.jr_hits                             57 |           57 |           57 |xxxxxxxxxxxxx |xxxxxxxxxxxxx |xxxxxxxxxxxxx |xxxxxxxxxxxxx |           57 |           57 |           57 |xxxxxxxxxxxxx |xxxxxxxxxxxxx |xxxxxxxxxxxxx |xxxxxxxxxxxxx |           57 |           57 |           57 |xxxxxxxxxxxxx |xxxxxxxxxxxxx |xxxxxxxxxxxxx |xxxxxxxxxxxxx |           57 |           57 |           57 |xxxxxxxxxxxxx |xxxxxxxxxxxxx |xxxxxxxxxxxxx |xxxxxxxxxxxxx |           57 |           57 |           57 |xxxxxxxxxxxxx |xxxxxxxxxxxxx |xxxxxxxxxxxxx |xxxxxxxxxxxxx |           57 |           57 |           57 |xxxxxxxxxxxxx |xxxxxxxxxxxxx |xxxxxxxxxxxxx |xxxxxxxxxxxxx |           57 |           57 |           57 |xxxxxxxxxxxxx |xxxxxxxxxxxxx |xxxxxxxxxxxxx |xxxxxxxxxxxxx |           57 |           57 |           57 |xxxxxxxxxxxxx |xxxxxxxxxxxxx |xxxxxxxxxxxxx |xxxxxxxxxxxxx |           57 |           57 |           57 |xxxxxxxxxxxxx |xxxxxxxxxxxxx |xxxxxxxxxxxxx |xxxxxxxxxxxxx |           57 |           57 |           57 |xxxxxxxxxxxxx |xxxxxxxxxxxxx |xxxxxxxxxxxxx |xxxxxxxxxxxxx |           57 |           57 |           57 |
bpred_bimod.jr_seen                             58 |           58 |           58 |xxxxxxxxxxxxx |xxxxxxxxxxxxx |xxxxxxxxxxxxx |xxxxxxxxxxxxx |           58 |           58 |           58 |xxxxxxxxxxxxx |xxxxxxxxxxxxx |xxxxxxxxxxxxx |xxxxxxxxxxxxx |           58 |           58 |           58 |xxxxxxxxxxxxx |xxxxxxxxxxxxx |xxxxxxxxxxxxx |xxxxxxxxxxxxx |           58 |           58 |           58 |xxxxxxxxxxxxx |xxxxxxxxxxxxx |xxxxxxxxxxxxx |xxxxxxxxxxxxx |           58 |           58 |           58 |xxxxxxxxxxxxx |xxxxxxxxxxxxx |xxxxxxxxxxxxx |xxxxxxxxxxxxx |           58 |           58 |           58 |xxxxxxxxxxxxx |xxxxxxxxxxxxx |xxxxxxxxxxxxx |xxxxxxxxxxxxx |           58 |           58 |           58 |xxxxxxxxxxxxx |xxxxxxxxxxxxx |xxxxxxxxxxxxx |xxxxxxxxxxxxx |           58 |           58 |           58 |xxxxxxxxxxxxx |xxxxxxxxxxxxx |xxxxxxxxxxxxx |xxxxxxxxxxxxx |           58 |           58 |           58 |xxxxxxxxxxxxx |xxxxxxxxxxxxx |xxxxxxxxxxxxx |xxxxxxxxxxxxx |           58 |           58 |           58 |xxxxxxxxxxxxx |xxxxxxxxxxxxx |xxxxxxxxxxxxx |xxxxxxxxxxxxx |           58 |           58 |           58 |
bpred_bimod.jr_non_ras_hits.PP                   0 |            0 |            0 |xxxxxxxxxxxxx |xxxxxxxxxxxxx |xxxxxxxxxxxxx |xxxxxxxxxxxxx |            0 |            0 |            0 |xxxxxxxxxxxxx |xxxxxxxxxxxxx |xxxxxxxxxxxxx |xxxxxxxxxxxxx |            0 |            0 |            0 |xxxxxxxxxxxxx |xxxxxxxxxxxxx |xxxxxxxxxxxxx |xxxxxxxxxxxxx |            0 |            0 |            0 |xxxxxxxxxxxxx |xxxxxxxxxxxxx |xxxxxxxxxxxxx |xxxxxxxxxxxxx |            0 |            0 |            0 |xxxxxxxxxxxxx |xxxxxxxxxxxxx |xxxxxxxxxxxxx |xxxxxxxxxxxxx |            0 |            0 |            0 |xxxxxxxxxxxxx |xxxxxxxxxxxxx |xxxxxxxxxxxxx |xxxxxxxxxxxxx |            0 |            0 |            0 |xxxxxxxxxxxxx |xxxxxxxxxxxxx |xxxxxxxxxxxxx |xxxxxxxxxxxxx |            0 |            0 |            0 |xxxxxxxxxxxxx |xxxxxxxxxxxxx |xxxxxxxxxxxxx |xxxxxxxxxxxxx |            0 |            0 |            0 |xxxxxxxxxxxxx |xxxxxxxxxxxxx |xxxxxxxxxxxxx |xxxxxxxxxxxxx |            0 |            0 |            0 |xxxxxxxxxxxxx |xxxxxxxxxxxxx |xxxxxxxxxxxxx |xxxxxxxxxxxxx |            0 |            0 |            0 |
bpred_bimod.jr_non_ras_seen.PP                   0 |            0 |            0 |xxxxxxxxxxxxx |xxxxxxxxxxxxx |xxxxxxxxxxxxx |xxxxxxxxxxxxx |            0 |            0 |            0 |xxxxxxxxxxxxx |xxxxxxxxxxxxx |xxxxxxxxxxxxx |xxxxxxxxxxxxx |            0 |            0 |            0 |xxxxxxxxxxxxx |xxxxxxxxxxxxx |xxxxxxxxxxxxx |xxxxxxxxxxxxx |            0 |            0 |            0 |xxxxxxxxxxxxx |xxxxxxxxxxxxx |xxxxxxxxxxxxx |xxxxxxxxxxxxx |            0 |            0 |            0 |xxxxxxxxxxxxx |xxxxxxxxxxxxx |xxxxxxxxxxxxx |xxxxxxxxxxxxx |            0 |            0 |            0 |xxxxxxxxxxxxx |xxxxxxxxxxxxx |xxxxxxxxxxxxx |xxxxxxxxxxxxx |            0 |            0 |            0 |xxxxxxxxxxxxx |xxxxxxxxxxxxx |xxxxxxxxxxxxx |xxxxxxxxxxxxx |            0 |            0 |            0 |xxxxxxxxxxxxx |xxxxxxxxxxxxx |xxxxxxxxxxxxx |xxxxxxxxxxxxx |            0 |            0 |            0 |xxxxxxxxxxxxx |xxxxxxxxxxxxx |xxxxxxxxxxxxx |xxxxxxxxxxxxx |            0 |            0 |            0 |xxxxxxxxxxxxx |xxxxxxxxxxxxx |xxxxxxxxxxxxx |xxxxxxxxxxxxx |            0 |            0 |            0 |
bpred_bimod.bpred_addr_rate                 0.7715 |       0.7755 |       0.7755 |xxxxxxxxxxxxx |xxxxxxxxxxxxx |xxxxxxxxxxxxx |xxxxxxxxxxxxx |       0.7715 |       0.7755 |       0.7755 |xxxxxxxxxxxxx |xxxxxxxxxxxxx |xxxxxxxxxxxxx |xxxxxxxxxxxxx |       0.7715 |       0.7755 |       0.7755 |xxxxxxxxxxxxx |xxxxxxxxxxxxx |xxxxxxxxxxxxx |xxxxxxxxxxxxx |       0.7715 |       0.7755 |       0.7755 |xxxxxxxxxxxxx |xxxxxxxxxxxxx |xxxxxxxxxxxxx |xxxxxxxxxxxxx |       0.7715 |       0.7755 |       0.7755 |xxxxxxxxxxxxx |xxxxxxxxxxxxx |xxxxxxxxxxxxx |xxxxxxxxxxxxx |       0.7715 |       0.7755 |       0.7755 |xxxxxxxxxxxxx |xxxxxxxxxxxxx |xxxxxxxxxxxxx |xxxxxxxxxxxxx |       0.7715 |       0.7755 |       0.7755 |xxxxxxxxxxxxx |xxxxxxxxxxxxx |xxxxxxxxxxxxx |xxxxxxxxxxxxx |       0.7715 |       0.7755 |       0.7755 |xxxxxxxxxxxxx |xxxxxxxxxxxxx |xxxxxxxxxxxxx |xxxxxxxxxxxxx |       0.7715 |       0.7755 |       0.7755 |xxxxxxxxxxxxx |xxxxxxxxxxxxx |xxxxxxxxxxxxx |xxxxxxxxxxxxx |       0.7715 |       0.7755 |       0.7755 |xxxxxxxxxxxxx |xxxxxxxxxxxxx |xxxxxxxxxxxxx |xxxxxxxxxxxxx |       0.7715 |       0.7755 |       0.7755 |
bpred_bimod.bpred_dir_rate                  0.8952 |       0.8978 |       0.8965 |xxxxxxxxxxxxx |xxxxxxxxxxxxx |xxxxxxxxxxxxx |xxxxxxxxxxxxx |       0.8952 |       0.8978 |       0.8965 |xxxxxxxxxxxxx |xxxxxxxxxxxxx |xxxxxxxxxxxxx |xxxxxxxxxxxxx |       0.8952 |       0.8978 |       0.8965 |xxxxxxxxxxxxx |xxxxxxxxxxxxx |xxxxxxxxxxxxx |xxxxxxxxxxxxx |       0.8938 |       0.8965 |       0.8952 |xxxxxxxxxxxxx |xxxxxxxxxxxxx |xxxxxxxxxxxxx |xxxxxxxxxxxxx |       0.8938 |       0.8965 |       0.8952 |xxxxxxxxxxxxx |xxxxxxxxxxxxx |xxxxxxxxxxxxx |xxxxxxxxxxxxx |       0.8952 |       0.8978 |       0.8965 |xxxxxxxxxxxxx |xxxxxxxxxxxxx |xxxxxxxxxxxxx |xxxxxxxxxxxxx |       0.8952 |       0.8978 |       0.8965 |xxxxxxxxxxxxx |xxxxxxxxxxxxx |xxxxxxxxxxxxx |xxxxxxxxxxxxx |       0.8952 |       0.8978 |       0.8965 |xxxxxxxxxxxxx |xxxxxxxxxxxxx |xxxxxxxxxxxxx |xxxxxxxxxxxxx |       0.8952 |       0.8978 |       0.8965 |xxxxxxxxxxxxx |xxxxxxxxxxxxx |xxxxxxxxxxxxx |xxxxxxxxxxxxx |       0.8952 |       0.8978 |       0.8965 |xxxxxxxxxxxxx |xxxxxxxxxxxxx |xxxxxxxxxxxxx |xxxxxxxxxxxxx |       0.8952 |       0.8978 |       0.8965 |
bpred_bimod.bpred_jr_rate                   0.9828 |       0.9828 |       0.9828 |xxxxxxxxxxxxx |xxxxxxxxxxxxx |xxxxxxxxxxxxx |xxxxxxxxxxxxx |       0.9828 |       0.9828 |       0.9828 |xxxxxxxxxxxxx |xxxxxxxxxxxxx |xxxxxxxxxxxxx |xxxxxxxxxxxxx |       0.9828 |       0.9828 |       0.9828 |xxxxxxxxxxxxx |xxxxxxxxxxxxx |xxxxxxxxxxxxx |xxxxxxxxxxxxx |       0.9828 |       0.9828 |       0.9828 |xxxxxxxxxxxxx |xxxxxxxxxxxxx |xxxxxxxxxxxxx |xxxxxxxxxxxxx |       0.9828 |       0.9828 |       0.9828 |xxxxxxxxxxxxx |xxxxxxxxxxxxx |xxxxxxxxxxxxx |xxxxxxxxxxxxx |       0.9828 |       0.9828 |       0.9828 |xxxxxxxxxxxxx |xxxxxxxxxxxxx |xxxxxxxxxxxxx |xxxxxxxxxxxxx |       0.9828 |       0.9828 |       0.9828 |xxxxxxxxxxxxx |xxxxxxxxxxxxx |xxxxxxxxxxxxx |xxxxxxxxxxxxx |       0.9828 |       0.9828 |       0.9828 |xxxxxxxxxxxxx |xxxxxxxxxxxxx |xxxxxxxxxxxxx |xxxxxxxxxxxxx |       0.9828 |       0.9828 |       0.9828 |xxxxxxxxxxxxx |xxxxxxxxxxxxx |xxxxxxxxxxxxx |xxxxxxxxxxxxx |       0.9828 |       0.9828 |       0.9828 |xxxxxxxxxxxxx |xxxxxxxxxxxxx |xxxxxxxxxxxxx |xxxxxxxxxxxxx |       0.9828 |       0.9828 |       0.9828 |
bpred_bimod.bpred_jr_non_ras_rate.PP       <error: |      <error: |      <error: |xxxxxxxxxxxxx |xxxxxxxxxxxxx |xxxxxxxxxxxxx |xxxxxxxxxxxxx |      <error: |      <error: |      <error: |xxxxxxxxxxxxx |xxxxxxxxxxxxx |xxxxxxxxxxxxx |xxxxxxxxxxxxx |      <error: |      <error: |      <error: |xxxxxxxxxxxxx |xxxxxxxxxxxxx |xxxxxxxxxxxxx |xxxxxxxxxxxxx |      <error: |      <error: |      <error: |xxxxxxxxxxxxx |xxxxxxxxxxxxx |xxxxxxxxxxxxx |xxxxxxxxxxxxx |      <error: |      <error: |      <error: |xxxxxxxxxxxxx |xxxxxxxxxxxxx |xxxxxxxxxxxxx |xxxxxxxxxxxxx |      <error: |      <error: |      <error: |xxxxxxxxxxxxx |xxxxxxxxxxxxx |xxxxxxxxxxxxx |xxxxxxxxxxxxx |      <error: |      <error: |      <error: |xxxxxxxxxxxxx |xxxxxxxxxxxxx |xxxxxxxxxxxxx |xxxxxxxxxxxxx |      <error: |      <error: |      <error: |xxxxxxxxxxxxx |xxxxxxxxxxxxx |xxxxxxxxxxxxx |xxxxxxxxxxxxx |      <error: |      <error: |      <error: |xxxxxxxxxxxxx |xxxxxxxxxxxxx |xxxxxxxxxxxxx |xxxxxxxxxxxxx |      <error: |      <error: |      <error: |xxxxxxxxxxxxx |xxxxxxxxxxxxx |xxxxxxxxxxxxx |xxxxxxxxxxxxx |      <error: |      <error: |      <error: |
bpred_bimod.retstack_pushes                     60 |           60 |           60 |xxxxxxxxxxxxx |xxxxxxxxxxxxx |xxxxxxxxxxxxx |xxxxxxxxxxxxx |           60 |           60 |           60 |xxxxxxxxxxxxx |xxxxxxxxxxxxx |xxxxxxxxxxxxx |xxxxxxxxxxxxx |           60 |           60 |           60 |xxxxxxxxxxxxx |xxxxxxxxxxxxx |xxxxxxxxxxxxx |xxxxxxxxxxxxx |           60 |           60 |           60 |xxxxxxxxxxxxx |xxxxxxxxxxxxx |xxxxxxxxxxxxx |xxxxxxxxxxxxx |           60 |           60 |           60 |xxxxxxxxxxxxx |xxxxxxxxxxxxx |xxxxxxxxxxxxx |xxxxxxxxxxxxx |           60 |           60 |           60 |xxxxxxxxxxxxx |xxxxxxxxxxxxx |xxxxxxxxxxxxx |xxxxxxxxxxxxx |           60 |           60 |           60 |xxxxxxxxxxxxx |xxxxxxxxxxxxx |xxxxxxxxxxxxx |xxxxxxxxxxxxx |           60 |           60 |           60 |xxxxxxxxxxxxx |xxxxxxxxxxxxx |xxxxxxxxxxxxx |xxxxxxxxxxxxx |           60 |           60 |           60 |xxxxxxxxxxxxx |xxxxxxxxxxxxx |xxxxxxxxxxxxx |xxxxxxxxxxxxx |           60 |           60 |           60 |xxxxxxxxxxxxx |xxxxxxxxxxxxx |xxxxxxxxxxxxx |xxxxxxxxxxxxx |           60 |           60 |           60 |
bpred_bimod.retstack_pops                       58 |           58 |           58 |xxxxxxxxxxxxx |xxxxxxxxxxxxx |xxxxxxxxxxxxx |xxxxxxxxxxxxx |           58 |           58 |           58 |xxxxxxxxxxxxx |xxxxxxxxxxxxx |xxxxxxxxxxxxx |xxxxxxxxxxxxx |           58 |           58 |           58 |xxxxxxxxxxxxx |xxxxxxxxxxxxx |xxxxxxxxxxxxx |xxxxxxxxxxxxx |           58 |           58 |           58 |xxxxxxxxxxxxx |xxxxxxxxxxxxx |xxxxxxxxxxxxx |xxxxxxxxxxxxx |           58 |           58 |           58 |xxxxxxxxxxxxx |xxxxxxxxxxxxx |xxxxxxxxxxxxx |xxxxxxxxxxxxx |           58 |           58 |           58 |xxxxxxxxxxxxx |xxxxxxxxxxxxx |xxxxxxxxxxxxx |xxxxxxxxxxxxx |           58 |           58 |           58 |xxxxxxxxxxxxx |xxxxxxxxxxxxx |xxxxxxxxxxxxx |xxxxxxxxxxxxx |           58 |           58 |           58 |xxxxxxxxxxxxx |xxxxxxxxxxxxx |xxxxxxxxxxxxx |xxxxxxxxxxxxx |           58 |           58 |           58 |xxxxxxxxxxxxx |xxxxxxxxxxxxx |xxxxxxxxxxxxx |xxxxxxxxxxxxx |           58 |           58 |           58 |xxxxxxxxxxxxx |xxxxxxxxxxxxx |xxxxxxxxxxxxx |xxxxxxxxxxxxx |           58 |           58 |           58 |
bpred_bimod.used_ras.PP                         58 |           58 |           58 |xxxxxxxxxxxxx |xxxxxxxxxxxxx |xxxxxxxxxxxxx |xxxxxxxxxxxxx |           58 |           58 |           58 |xxxxxxxxxxxxx |xxxxxxxxxxxxx |xxxxxxxxxxxxx |xxxxxxxxxxxxx |           58 |           58 |           58 |xxxxxxxxxxxxx |xxxxxxxxxxxxx |xxxxxxxxxxxxx |xxxxxxxxxxxxx |           58 |           58 |           58 |xxxxxxxxxxxxx |xxxxxxxxxxxxx |xxxxxxxxxxxxx |xxxxxxxxxxxxx |           58 |           58 |           58 |xxxxxxxxxxxxx |xxxxxxxxxxxxx |xxxxxxxxxxxxx |xxxxxxxxxxxxx |           58 |           58 |           58 |xxxxxxxxxxxxx |xxxxxxxxxxxxx |xxxxxxxxxxxxx |xxxxxxxxxxxxx |           58 |           58 |           58 |xxxxxxxxxxxxx |xxxxxxxxxxxxx |xxxxxxxxxxxxx |xxxxxxxxxxxxx |           58 |           58 |           58 |xxxxxxxxxxxxx |xxxxxxxxxxxxx |xxxxxxxxxxxxx |xxxxxxxxxxxxx |           58 |           58 |           58 |xxxxxxxxxxxxx |xxxxxxxxxxxxx |xxxxxxxxxxxxx |xxxxxxxxxxxxx |           58 |           58 |           58 |xxxxxxxxxxxxx |xxxxxxxxxxxxx |xxxxxxxxxxxxx |xxxxxxxxxxxxx |           58 |           58 |           58 |
bpred_bimod.ras_hits.PP                         57 |           57 |           57 |xxxxxxxxxxxxx |xxxxxxxxxxxxx |xxxxxxxxxxxxx |xxxxxxxxxxxxx |           57 |           57 |           57 |xxxxxxxxxxxxx |xxxxxxxxxxxxx |xxxxxxxxxxxxx |xxxxxxxxxxxxx |           57 |           57 |           57 |xxxxxxxxxxxxx |xxxxxxxxxxxxx |xxxxxxxxxxxxx |xxxxxxxxxxxxx |           57 |           57 |           57 |xxxxxxxxxxxxx |xxxxxxxxxxxxx |xxxxxxxxxxxxx |xxxxxxxxxxxxx |           57 |           57 |           57 |xxxxxxxxxxxxx |xxxxxxxxxxxxx |xxxxxxxxxxxxx |xxxxxxxxxxxxx |           57 |           57 |           57 |xxxxxxxxxxxxx |xxxxxxxxxxxxx |xxxxxxxxxxxxx |xxxxxxxxxxxxx |           57 |           57 |           57 |xxxxxxxxxxxxx |xxxxxxxxxxxxx |xxxxxxxxxxxxx |xxxxxxxxxxxxx |           57 |           57 |           57 |xxxxxxxxxxxxx |xxxxxxxxxxxxx |xxxxxxxxxxxxx |xxxxxxxxxxxxx |           57 |           57 |           57 |xxxxxxxxxxxxx |xxxxxxxxxxxxx |xxxxxxxxxxxxx |xxxxxxxxxxxxx |           57 |           57 |           57 |xxxxxxxxxxxxx |xxxxxxxxxxxxx |xxxxxxxxxxxxx |xxxxxxxxxxxxx |           57 |           57 |           57 |
bpred_bimod.ras_rate.PP                     0.9828 |       0.9828 |       0.9828 |xxxxxxxxxxxxx |xxxxxxxxxxxxx |xxxxxxxxxxxxx |xxxxxxxxxxxxx |       0.9828 |       0.9828 |       0.9828 |xxxxxxxxxxxxx |xxxxxxxxxxxxx |xxxxxxxxxxxxx |xxxxxxxxxxxxx |       0.9828 |       0.9828 |       0.9828 |xxxxxxxxxxxxx |xxxxxxxxxxxxx |xxxxxxxxxxxxx |xxxxxxxxxxxxx |       0.9828 |       0.9828 |       0.9828 |xxxxxxxxxxxxx |xxxxxxxxxxxxx |xxxxxxxxxxxxx |xxxxxxxxxxxxx |       0.9828 |       0.9828 |       0.9828 |xxxxxxxxxxxxx |xxxxxxxxxxxxx |xxxxxxxxxxxxx |xxxxxxxxxxxxx |       0.9828 |       0.9828 |       0.9828 |xxxxxxxxxxxxx |xxxxxxxxxxxxx |xxxxxxxxxxxxx |xxxxxxxxxxxxx |       0.9828 |       0.9828 |       0.9828 |xxxxxxxxxxxxx |xxxxxxxxxxxxx |xxxxxxxxxxxxx |xxxxxxxxxxxxx |       0.9828 |       0.9828 |       0.9828 |xxxxxxxxxxxxx |xxxxxxxxxxxxx |xxxxxxxxxxxxx |xxxxxxxxxxxxx |       0.9828 |       0.9828 |       0.9828 |xxxxxxxxxxxxx |xxxxxxxxxxxxx |xxxxxxxxxxxxx |xxxxxxxxxxxxx |       0.9828 |       0.9828 |       0.9828 |xxxxxxxxxxxxx |xxxxxxxxxxxxx |xxxxxxxxxxxxx |xxxxxxxxxxxxx |       0.9828 |       0.9828 |       0.9828 |
bpred_2lev.lookups                   xxxxxxxxxxxxx |xxxxxxxxxxxxx |xxxxxxxxxxxxx |          744 |          744 |          744 |          744 |xxxxxxxxxxxxx |xxxxxxxxxxxxx |xxxxxxxxxxxxx |          744 |          744 |          744 |          744 |xxxxxxxxxxxxx |xxxxxxxxxxxxx |xxxxxxxxxxxxx |          744 |          744 |          744 |          744 |xxxxxxxxxxxxx |xxxxxxxxxxxxx |xxxxxxxxxxxxx |          744 |          744 |          744 |          744 |xxxxxxxxxxxxx |xxxxxxxxxxxxx |xxxxxxxxxxxxx |          744 |          744 |          744 |          744 |xxxxxxxxxxxxx |xxxxxxxxxxxxx |xxxxxxxxxxxxx |          744 |          744 |          744 |          744 |xxxxxxxxxxxxx |xxxxxxxxxxxxx |xxxxxxxxxxxxx |          744 |          744 |          744 |          744 |xxxxxxxxxxxxx |xxxxxxxxxxxxx |xxxxxxxxxxxxx |          744 |          744 |          744 |          744 |xxxxxxxxxxxxx |xxxxxxxxxxxxx |xxxxxxxxxxxxx |          744 |          744 |          744 |          744 |xxxxxxxxxxxxx |xxxxxxxxxxxxx |xxxxxxxxxxxxx |          744 |          744 |          744 |          744 |xxxxxxxxxxxxx |xxxxxxxxxxxxx |xxxxxxxxxxxxx |          744 |          744 |          744 |          744 |
[...]
bpred_2lev.bpred_jr_non_ras_rate.PP  xxxxxxxxxxxxx |xxxxxxxxxxxxx |xxxxxxxxxxxxx |      <error: |      <error: |      <error: |      <error: |xxxxxxxxxxxxx |xxxxxxxxxxxxx |xxxxxxxxxxxxx |      <error: |      <error: |      <error: |      <error: |xxxxxxxxxxxxx |xxxxxxxxxxxxx |xxxxxxxxxxxxx |      <error: |      <error: |      <error: |      <error: |xxxxxxxxxxxxx |xxxxxxxxxxxxx |xxxxxxxxxxxxx |      <error: |      <error: |      <error: |      <error: |xxxxxxxxxxxxx |xxxxxxxxxxxxx |xxxxxxxxxxxxx |      <error: |      <error: |      <error: |      <error: |xxxxxxxxxxxxx |xxxxxxxxxxxxx |xxxxxxxxxxxxx |      <error: |      <error: |      <error: |      <error: |xxxxxxxxxxxxx |xxxxxxxxxxxxx |xxxxxxxxxxxxx |      <error: |      <error: |      <error: |      <error: |xxxxxxxxxxxxx |xxxxxxxxxxxxx |xxxxxxxxxxxxx |      <error: |      <error: |      <error: |      <error: |xxxxxxxxxxxxx |xxxxxxxxxxxxx |xxxxxxxxxxxxx |      <error: |      <error: |      <error: |      <error: |xxxxxxxxxxxxx |xxxxxxxxxxxxx |xxxxxxxxxxxxx |      <error: |      <error: |      <error: |      <error: |xxxxxxxxxxxxx |xxxxxxxxxxxxx |xxxxxxxxxxxxx |      <error: |      <error: |      <error: |      <error: |
bpred_2lev.retstack_pushes           xxxxxxxxxxxxx |xxxxxxxxxxxxx |xxxxxxxxxxxxx |           60 |           60 |           60 |           60 |xxxxxxxxxxxxx |xxxxxxxxxxxxx |xxxxxxxxxxxxx |           60 |           60 |           60 |           60 |xxxxxxxxxxxxx |xxxxxxxxxxxxx |xxxxxxxxxxxxx |           60 |           60 |           60 |           60 |xxxxxxxxxxxxx |xxxxxxxxxxxxx |xxxxxxxxxxxxx |           60 |           60 |           60 |           60 |xxxxxxxxxxxxx |xxxxxxxxxxxxx |xxxxxxxxxxxxx |           60 |           60 |           60 |           60 |xxxxxxxxxxxxx |xxxxxxxxxxxxx |xxxxxxxxxxxxx |           60 |           60 |           60 |           60 |xxxxxxxxxxxxx |xxxxxxxxxxxxx |xxxxxxxxxxxxx |           60 |           60 |           60 |           60 |xxxxxxxxxxxxx |xxxxxxxxxxxxx |xxxxxxxxxxxxx |           60 |           60 |           60 |           60 |xxxxxxxxxxxxx |xxxxxxxxxxxxx |xxxxxxxxxxxxx |           60 |           60 |           60 |           60 |xxxxxxxxxxxxx |xxxxxxxxxxxxx |xxxxxxxxxxxxx |           60 |           60 |           60 |           60 |xxxxxxxxxxxxx |xxxxxxxxxxxxx |xxxxxxxxxxxxx |           60 |           60 |           60 |           60 |
bpred_2lev.retstack_pops             xxxxxxxxxxxxx |xxxxxxxxxxxxx |xxxxxxxxxxxxx |           58 |           58 |           58 |           58 |xxxxxxxxxxxxx |xxxxxxxxxxxxx |xxxxxxxxxxxxx |           58 |           58 |           58 |           58 |xxxxxxxxxxxxx |xxxxxxxxxxxxx |xxxxxxxxxxxxx |           58 |           58 |           58 |           58 |xxxxxxxxxxxxx |xxxxxxxxxxxxx |xxxxxxxxxxxxx |           58 |           58 |           58 |           58 |xxxxxxxxxxxxx |xxxxxxxxxxxxx |xxxxxxxxxxxxx |           58 |           58 |           58 |           58 |xxxxxxxxxxxxx |xxxxxxxxxxxxx |xxxxxxxxxxxxx |           58 |           58 |           58 |           58 |xxxxxxxxxxxxx |xxxxxxxxxxxxx |xxxxxxxxxxxxx |           58 |           58 |           58 |           58 |xxxxxxxxxxxxx |xxxxxxxxxxxxx |xxxxxxxxxxxxx |           58 |           58 |           58 |           58 |xxxxxxxxxxxxx |xxxxxxxxxxxxx |xxxxxxxxxxxxx |           58 |           58 |           58 |           58 |xxxxxxxxxxxxx |xxxxxxxxxxxxx |xxxxxxxxxxxxx |           58 |           58 |           58 |           58 |xxxxxxxxxxxxx |xxxxxxxxxxxxx |xxxxxxxxxxxxx |           58 |           58 |           58 |           58 |
bpred_2lev.used_ras.PP               xxxxxxxxxxxxx |xxxxxxxxxxxxx |xxxxxxxxxxxxx |           58 |           58 |           58 |           58 |xxxxxxxxxxxxx |xxxxxxxxxxxxx |xxxxxxxxxxxxx |           58 |           58 |           58 |           58 |xxxxxxxxxxxxx |xxxxxxxxxxxxx |xxxxxxxxxxxxx |           58 |           58 |           58 |           58 |xxxxxxxxxxxxx |xxxxxxxxxxxxx |xxxxxxxxxxxxx |           58 |           58 |           58 |           58 |xxxxxxxxxxxxx |xxxxxxxxxxxxx |xxxxxxxxxxxxx |           58 |           58 |           58 |           58 |xxxxxxxxxxxxx |xxxxxxxxxxxxx |xxxxxxxxxxxxx |           58 |           58 |           58 |           58 |xxxxxxxxxxxxx |xxxxxxxxxxxxx |xxxxxxxxxxxxx |           58 |           58 |           58 |           58 |xxxxxxxxxxxxx |xxxxxxxxxxxxx |xxxxxxxxxxxxx |           58 |           58 |           58 |           58 |xxxxxxxxxxxxx |xxxxxxxxxxxxx |xxxxxxxxxxxxx |           58 |           58 |           58 |           58 |xxxxxxxxxxxxx |xxxxxxxxxxxxx |xxxxxxxxxxxxx |           58 |           58 |           58 |           58 |xxxxxxxxxxxxx |xxxxxxxxxxxxx |xxxxxxxxxxxxx |           58 |           58 |           58 |           58 |
bpred_2lev.ras_hits.PP               xxxxxxxxxxxxx |xxxxxxxxxxxxx |xxxxxxxxxxxxx |           57 |           57 |           57 |           57 |xxxxxxxxxxxxx |xxxxxxxxxxxxx |xxxxxxxxxxxxx |           57 |           57 |           57 |           57 |xxxxxxxxxxxxx |xxxxxxxxxxxxx |xxxxxxxxxxxxx |           57 |           57 |           57 |           57 |xxxxxxxxxxxxx |xxxxxxxxxxxxx |xxxxxxxxxxxxx |           57 |           57 |           57 |           57 |xxxxxxxxxxxxx |xxxxxxxxxxxxx |xxxxxxxxxxxxx |           57 |           57 |           57 |           57 |xxxxxxxxxxxxx |xxxxxxxxxxxxx |xxxxxxxxxxxxx |           57 |           57 |           57 |           57 |xxxxxxxxxxxxx |xxxxxxxxxxxxx |xxxxxxxxxxxxx |           57 |           57 |           57 |           57 |xxxxxxxxxxxxx |xxxxxxxxxxxxx |xxxxxxxxxxxxx |           57 |           57 |           57 |           57 |xxxxxxxxxxxxx |xxxxxxxxxxxxx |xxxxxxxxxxxxx |           57 |           57 |           57 |           57 |xxxxxxxxxxxxx |xxxxxxxxxxxxx |xxxxxxxxxxxxx |           57 |           57 |           57 |           57 |xxxxxxxxxxxxx |xxxxxxxxxxxxx |xxxxxxxxxxxxx |           57 |           57 |           57 |           57 |
bpred_2lev.ras_rate.PP               xxxxxxxxxxxxx |xxxxxxxxxxxxx |xxxxxxxxxxxxx |       0.9828 |       0.9828 |       0.9828 |       0.9828 |xxxxxxxxxxxxx |xxxxxxxxxxxxx |xxxxxxxxxxxxx |       0.9828 |       0.9828 |       0.9828 |       0.9828 |xxxxxxxxxxxxx |xxxxxxxxxxxxx |xxxxxxxxxxxxx |       0.9828 |       0.9828 |       0.9828 |       0.9828 |xxxxxxxxxxxxx |xxxxxxxxxxxxx |xxxxxxxxxxxxx |       0.9828 |       0.9828 |       0.9828 |       0.9828 |xxxxxxxxxxxxx |xxxxxxxxxxxxx |xxxxxxxxxxxxx |       0.9828 |       0.9828 |       0.9828 |       0.9828 |xxxxxxxxxxxxx |xxxxxxxxxxxxx |xxxxxxxxxxxxx |       0.9828 |       0.9828 |       0.9828 |       0.9828 |xxxxxxxxxxxxx |xxxxxxxxxxxxx |xxxxxxxxxxxxx |       0.9828 |       0.9828 |       0.9828 |       0.9828 |xxxxxxxxxxxxx |xxxxxxxxxxxxx |xxxxxxxxxxxxx |       0.9828 |       0.9828 |       0.9828 |       0.9828 |xxxxxxxxxxxxx |xxxxxxxxxxxxx |xxxxxxxxxxxxx |       0.9828 |       0.9828 |       0.9828 |       0.9828 |xxxxxxxxxxxxx |xxxxxxxxxxxxx |xxxxxxxxxxxxx |       0.9828 |       0.9828 |       0.9828 |       0.9828 |xxxxxxxxxxxxx |xxxxxxxxxxxxx |xxxxxxxxxxxxx |       0.9828 |       0.9828 |       0.9828 |       0.9828 |

Command list: 
	sslittle-na-sstrix-gcc -Wall -O3 -funroll-loops -finline-functions  -DRANDOM_SIZE=4096 -DOFFSET=0 -DSORT=do_nothing do_nothing2046955008.c simpleMain.c -o do_nothing280089377
	sim-cache -cache:dl1 dl1:256:32:1:l -cache:dl2 dl2:131072:32:1:l -cache:il1 il1:256:32:1:l -cache:il2 dl2 do_nothing280089377
	sim-cache -cache:dl1 dl1:256:32:1:l -cache:dl2 dl2:65536:32:1:l -cache:il1 il1:256:32:1:l -cache:il2 dl2 do_nothing280089377
	sim-cache -cache:dl1 dl1:1:32:256:l -cache:dl2 dl2:1:32:131072:l -cache:il1 il1:1:32:256:l -cache:il2 dl2 do_nothing280089377
	sim-cache -cache:dl1 dl1:1:32:256:l -cache:dl2 dl2:1:32:65536:l -cache:il1 il1:1:32:256:l -cache:il2 dl2 do_nothing280089377
	sim-bpred -bpred bimod -bpred:bimod 512 do_nothing280089377
	sim-bpred -bpred bimod -bpred:bimod 1024 do_nothing280089377
	sim-bpred -bpred bimod -bpred:bimod 2048 do_nothing280089377
	sim-bpred -bpred 2lev -bpred:2lev 1 512 10 1 do_nothing280089377
	sim-bpred -bpred 2lev -bpred:2lev 1 1024 10 1 do_nothing280089377
	sim-bpred -bpred 2lev -bpred:2lev 1 2048 10 1 do_nothing280089377
	sim-bpred -bpred 2lev -bpred:2lev 1 4096 10 1 do_nothing280089377
	sslittle-na-sstrix-gcc -Wall -O3 -funroll-loops -finline-functions  -DRANDOM_SIZE=8192 -DOFFSET=0 -DSORT=do_nothing do_nothing2046955008.c simpleMain.c -o do_nothing280089377
	sim-cache -cache:dl1 dl1:256:32:1:l -cache:dl2 dl2:131072:32:1:l -cache:il1 il1:256:32:1:l -cache:il2 dl2 do_nothing280089377
	sim-cache -cache:dl1 dl1:256:32:1:l -cache:dl2 dl2:65536:32:1:l -cache:il1 il1:256:32:1:l -cache:il2 dl2 do_nothing280089377
	sim-cache -cache:dl1 dl1:1:32:256:l -cache:dl2 dl2:1:32:131072:l -cache:il1 il1:1:32:256:l -cache:il2 dl2 do_nothing280089377
	sim-cache -cache:dl1 dl1:1:32:256:l -cache:dl2 dl2:1:32:65536:l -cache:il1 il1:1:32:256:l -cache:il2 dl2 do_nothing280089377
	sim-bpred -bpred bimod -bpred:bimod 512 do_nothing280089377
	sim-bpred -bpred bimod -bpred:bimod 1024 do_nothing280089377
	sim-bpred -bpred bimod -bpred:bimod 2048 do_nothing280089377
	sim-bpred -bpred 2lev -bpred:2lev 1 512 10 1 do_nothing280089377
	sim-bpred -bpred 2lev -bpred:2lev 1 1024 10 1 do_nothing280089377
	sim-bpred -bpred 2lev -bpred:2lev 1 2048 10 1 do_nothing280089377
	sim-bpred -bpred 2lev -bpred:2lev 1 4096 10 1 do_nothing280089377
	sslittle-na-sstrix-gcc -Wall -O3 -funroll-loops -finline-functions  -DRANDOM_SIZE=16384 -DOFFSET=0 -DSORT=do_nothing do_nothing2046955008.c simpleMain.c -o do_nothing280089377
	sim-cache -cache:dl1 dl1:256:32:1:l -cache:dl2 dl2:131072:32:1:l -cache:il1 il1:256:32:1:l -cache:il2 dl2 do_nothing280089377
	sim-cache -cache:dl1 dl1:256:32:1:l -cache:dl2 dl2:65536:32:1:l -cache:il1 il1:256:32:1:l -cache:il2 dl2 do_nothing280089377
	sim-cache -cache:dl1 dl1:1:32:256:l -cache:dl2 dl2:1:32:131072:l -cache:il1 il1:1:32:256:l -cache:il2 dl2 do_nothing280089377
	sim-cache -cache:dl1 dl1:1:32:256:l -cache:dl2 dl2:1:32:65536:l -cache:il1 il1:1:32:256:l -cache:il2 dl2 do_nothing280089377
	sim-bpred -bpred bimod -bpred:bimod 512 do_nothing280089377
	sim-bpred -bpred bimod -bpred:bimod 1024 do_nothing280089377
	sim-bpred -bpred bimod -bpred:bimod 2048 do_nothing280089377
	sim-bpred -bpred 2lev -bpred:2lev 1 512 10 1 do_nothing280089377
	sim-bpred -bpred 2lev -bpred:2lev 1 1024 10 1 do_nothing280089377
	sim-bpred -bpred 2lev -bpred:2lev 1 2048 10 1 do_nothing280089377
	sim-bpred -bpred 2lev -bpred:2lev 1 4096 10 1 do_nothing280089377
	sslittle-na-sstrix-gcc -Wall -O3 -funroll-loops -finline-functions  -DRANDOM_SIZE=32768 -DOFFSET=0 -DSORT=do_nothing do_nothing2046955008.c simpleMain.c -o do_nothing280089377
	sim-cache -cache:dl1 dl1:256:32:1:l -cache:dl2 dl2:131072:32:1:l -cache:il1 il1:256:32:1:l -cache:il2 dl2 do_nothing280089377
	sim-cache -cache:dl1 dl1:256:32:1:l -cache:dl2 dl2:65536:32:1:l -cache:il1 il1:256:32:1:l -cache:il2 dl2 do_nothing280089377
	sim-cache -cache:dl1 dl1:1:32:256:l -cache:dl2 dl2:1:32:131072:l -cache:il1 il1:1:32:256:l -cache:il2 dl2 do_nothing280089377
	sim-cache -cache:dl1 dl1:1:32:256:l -cache:dl2 dl2:1:32:65536:l -cache:il1 il1:1:32:256:l -cache:il2 dl2 do_nothing280089377
	sim-bpred -bpred bimod -bpred:bimod 512 do_nothing280089377
	sim-bpred -bpred bimod -bpred:bimod 1024 do_nothing280089377
	sim-bpred -bpred bimod -bpred:bimod 2048 do_nothing280089377
	sim-bpred -bpred 2lev -bpred:2lev 1 512 10 1 do_nothing280089377
	sim-bpred -bpred 2lev -bpred:2lev 1 1024 10 1 do_nothing280089377
	sim-bpred -bpred 2lev -bpred:2lev 1 2048 10 1 do_nothing280089377
	sim-bpred -bpred 2lev -bpred:2lev 1 4096 10 1 do_nothing280089377
	sslittle-na-sstrix-gcc -Wall -O3 -funroll-loops -finline-functions  -DRANDOM_SIZE=65536 -DOFFSET=0 -DSORT=do_nothing do_nothing2046955008.c simpleMain.c -o do_nothing280089377
	sim-cache -cache:dl1 dl1:256:32:1:l -cache:dl2 dl2:131072:32:1:l -cache:il1 il1:256:32:1:l -cache:il2 dl2 do_nothing280089377
	sim-cache -cache:dl1 dl1:256:32:1:l -cache:dl2 dl2:65536:32:1:l -cache:il1 il1:256:32:1:l -cache:il2 dl2 do_nothing280089377
	sim-cache -cache:dl1 dl1:1:32:256:l -cache:dl2 dl2:1:32:131072:l -cache:il1 il1:1:32:256:l -cache:il2 dl2 do_nothing280089377
	sim-cache -cache:dl1 dl1:1:32:256:l -cache:dl2 dl2:1:32:65536:l -cache:il1 il1:1:32:256:l -cache:il2 dl2 do_nothing280089377
	sim-bpred -bpred bimod -bpred:bimod 512 do_nothing280089377
	sim-bpred -bpred bimod -bpred:bimod 1024 do_nothing280089377
	sim-bpred -bpred bimod -bpred:bimod 2048 do_nothing280089377
	sim-bpred -bpred 2lev -bpred:2lev 1 512 10 1 do_nothing280089377
	sim-bpred -bpred 2lev -bpred:2lev 1 1024 10 1 do_nothing280089377
	sim-bpred -bpred 2lev -bpred:2lev 1 2048 10 1 do_nothing280089377
	sim-bpred -bpred 2lev -bpred:2lev 1 4096 10 1 do_nothing280089377
	sslittle-na-sstrix-gcc -Wall -O3 -funroll-loops -finline-functions  -DRANDOM_SIZE=131072 -DOFFSET=0 -DSORT=do_nothing do_nothing2046955008.c simpleMain.c -o do_nothing280089377
	sim-cache -cache:dl1 dl1:256:32:1:l -cache:dl2 dl2:131072:32:1:l -cache:il1 il1:256:32:1:l -cache:il2 dl2 do_nothing280089377
	sim-cache -cache:dl1 dl1:256:32:1:l -cache:dl2 dl2:65536:32:1:l -cache:il1 il1:256:32:1:l -cache:il2 dl2 do_nothing280089377
	sim-cache -cache:dl1 dl1:1:32:256:l -cache:dl2 dl2:1:32:131072:l -cache:il1 il1:1:32:256:l -cache:il2 dl2 do_nothing280089377
	sim-cache -cache:dl1 dl1:1:32:256:l -cache:dl2 dl2:1:32:65536:l -cache:il1 il1:1:32:256:l -cache:il2 dl2 do_nothing280089377
	sim-bpred -bpred bimod -bpred:bimod 512 do_nothing280089377
	sim-bpred -bpred bimod -bpred:bimod 1024 do_nothing280089377
	sim-bpred -bpred bimod -bpred:bimod 2048 do_nothing280089377
	sim-bpred -bpred 2lev -bpred:2lev 1 512 10 1 do_nothing280089377
	sim-bpred -bpred 2lev -bpred:2lev 1 1024 10 1 do_nothing280089377
	sim-bpred -bpred 2lev -bpred:2lev 1 2048 10 1 do_nothing280089377
	sim-bpred -bpred 2lev -bpred:2lev 1 4096 10 1 do_nothing280089377
	sslittle-na-sstrix-gcc -Wall -O3 -funroll-loops -finline-functions  -DRANDOM_SIZE=262144 -DOFFSET=0 -DSORT=do_nothing do_nothing2046955008.c simpleMain.c -o do_nothing280089377
	sim-cache -cache:dl1 dl1:256:32:1:l -cache:dl2 dl2:131072:32:1:l -cache:il1 il1:256:32:1:l -cache:il2 dl2 do_nothing280089377
	sim-cache -cache:dl1 dl1:256:32:1:l -cache:dl2 dl2:65536:32:1:l -cache:il1 il1:256:32:1:l -cache:il2 dl2 do_nothing280089377
	sim-cache -cache:dl1 dl1:1:32:256:l -cache:dl2 dl2:1:32:131072:l -cache:il1 il1:1:32:256:l -cache:il2 dl2 do_nothing280089377
	sim-cache -cache:dl1 dl1:1:32:256:l -cache:dl2 dl2:1:32:65536:l -cache:il1 il1:1:32:256:l -cache:il2 dl2 do_nothing280089377
	sim-bpred -bpred bimod -bpred:bimod 512 do_nothing280089377
	sim-bpred -bpred bimod -bpred:bimod 1024 do_nothing280089377
	sim-bpred -bpred bimod -bpred:bimod 2048 do_nothing280089377
	sim-bpred -bpred 2lev -bpred:2lev 1 512 10 1 do_nothing280089377
	sim-bpred -bpred 2lev -bpred:2lev 1 1024 10 1 do_nothing280089377
	sim-bpred -bpred 2lev -bpred:2lev 1 2048 10 1 do_nothing280089377
	sim-bpred -bpred 2lev -bpred:2lev 1 4096 10 1 do_nothing280089377
	sslittle-na-sstrix-gcc -Wall -O3 -funroll-loops -finline-functions  -DRANDOM_SIZE=524288 -DOFFSET=0 -DSORT=do_nothing do_nothing2046955008.c simpleMain.c -o do_nothing280089377
	sim-cache -cache:dl1 dl1:256:32:1:l -cache:dl2 dl2:131072:32:1:l -cache:il1 il1:256:32:1:l -cache:il2 dl2 do_nothing280089377
	sim-cache -cache:dl1 dl1:256:32:1:l -cache:dl2 dl2:65536:32:1:l -cache:il1 il1:256:32:1:l -cache:il2 dl2 do_nothing280089377
	sim-cache -cache:dl1 dl1:1:32:256:l -cache:dl2 dl2:1:32:131072:l -cache:il1 il1:1:32:256:l -cache:il2 dl2 do_nothing280089377
	sim-cache -cache:dl1 dl1:1:32:256:l -cache:dl2 dl2:1:32:65536:l -cache:il1 il1:1:32:256:l -cache:il2 dl2 do_nothing280089377
	sim-bpred -bpred bimod -bpred:bimod 512 do_nothing280089377
	sim-bpred -bpred bimod -bpred:bimod 1024 do_nothing280089377
	sim-bpred -bpred bimod -bpred:bimod 2048 do_nothing280089377
	sim-bpred -bpred 2lev -bpred:2lev 1 512 10 1 do_nothing280089377
	sim-bpred -bpred 2lev -bpred:2lev 1 1024 10 1 do_nothing280089377
	sim-bpred -bpred 2lev -bpred:2lev 1 2048 10 1 do_nothing280089377
	sim-bpred -bpred 2lev -bpred:2lev 1 4096 10 1 do_nothing280089377
	sslittle-na-sstrix-gcc -Wall -O3 -funroll-loops -finline-functions  -DRANDOM_SIZE=1048576 -DOFFSET=0 -DSORT=do_nothing do_nothing2046955008.c simpleMain.c -o do_nothing280089377
	sim-cache -cache:dl1 dl1:256:32:1:l -cache:dl2 dl2:131072:32:1:l -cache:il1 il1:256:32:1:l -cache:il2 dl2 do_nothing280089377
	sim-cache -cache:dl1 dl1:256:32:1:l -cache:dl2 dl2:65536:32:1:l -cache:il1 il1:256:32:1:l -cache:il2 dl2 do_nothing280089377
	sim-cache -cache:dl1 dl1:1:32:256:l -cache:dl2 dl2:1:32:131072:l -cache:il1 il1:1:32:256:l -cache:il2 dl2 do_nothing280089377
	sim-cache -cache:dl1 dl1:1:32:256:l -cache:dl2 dl2:1:32:65536:l -cache:il1 il1:1:32:256:l -cache:il2 dl2 do_nothing280089377
	sim-bpred -bpred bimod -bpred:bimod 512 do_nothing280089377
	sim-bpred -bpred bimod -bpred:bimod 1024 do_nothing280089377
	sim-bpred -bpred bimod -bpred:bimod 2048 do_nothing280089377
	sim-bpred -bpred 2lev -bpred:2lev 1 512 10 1 do_nothing280089377
	sim-bpred -bpred 2lev -bpred:2lev 1 1024 10 1 do_nothing280089377
	sim-bpred -bpred 2lev -bpred:2lev 1 2048 10 1 do_nothing280089377
	sim-bpred -bpred 2lev -bpred:2lev 1 4096 10 1 do_nothing280089377
	sslittle-na-sstrix-gcc -Wall -O3 -funroll-loops -finline-functions  -DRANDOM_SIZE=2097152 -DOFFSET=0 -DSORT=do_nothing do_nothing2046955008.c simpleMain.c -o do_nothing280089377
	sim-cache -cache:dl1 dl1:256:32:1:l -cache:dl2 dl2:131072:32:1:l -cache:il1 il1:256:32:1:l -cache:il2 dl2 do_nothing280089377
	sim-cache -cache:dl1 dl1:256:32:1:l -cache:dl2 dl2:65536:32:1:l -cache:il1 il1:256:32:1:l -cache:il2 dl2 do_nothing280089377
	sim-cache -cache:dl1 dl1:1:32:256:l -cache:dl2 dl2:1:32:131072:l -cache:il1 il1:1:32:256:l -cache:il2 dl2 do_nothing280089377
	sim-cache -cache:dl1 dl1:1:32:256:l -cache:dl2 dl2:1:32:65536:l -cache:il1 il1:1:32:256:l -cache:il2 dl2 do_nothing280089377
	sim-bpred -bpred bimod -bpred:bimod 512 do_nothing280089377
	sim-bpred -bpred bimod -bpred:bimod 1024 do_nothing280089377
	sim-bpred -bpred bimod -bpred:bimod 2048 do_nothing280089377
	sim-bpred -bpred 2lev -bpred:2lev 1 512 10 1 do_nothing280089377
	sim-bpred -bpred 2lev -bpred:2lev 1 1024 10 1 do_nothing280089377
	sim-bpred -bpred 2lev -bpred:2lev 1 2048 10 1 do_nothing280089377
	sim-bpred -bpred 2lev -bpred:2lev 1 4096 10 1 do_nothing280089377
	sslittle-na-sstrix-gcc -Wall -O3 -funroll-loops -finline-functions  -DRANDOM_SIZE=4194304 -DOFFSET=0 -DSORT=do_nothing do_nothing2046955008.c simpleMain.c -o do_nothing280089377
	sim-cache -cache:dl1 dl1:256:32:1:l -cache:dl2 dl2:131072:32:1:l -cache:il1 il1:256:32:1:l -cache:il2 dl2 do_nothing280089377
	sim-cache -cache:dl1 dl1:256:32:1:l -cache:dl2 dl2:65536:32:1:l -cache:il1 il1:256:32:1:l -cache:il2 dl2 do_nothing280089377
	sim-cache -cache:dl1 dl1:1:32:256:l -cache:dl2 dl2:1:32:131072:l -cache:il1 il1:1:32:256:l -cache:il2 dl2 do_nothing280089377
	sim-cache -cache:dl1 dl1:1:32:256:l -cache:dl2 dl2:1:32:65536:l -cache:il1 il1:1:32:256:l -cache:il2 dl2 do_nothing280089377
	sim-bpred -bpred bimod -bpred:bimod 512 do_nothing280089377
	sim-bpred -bpred bimod -bpred:bimod 1024 do_nothing280089377
	sim-bpred -bpred bimod -bpred:bimod 2048 do_nothing280089377
	sim-bpred -bpred 2lev -bpred:2lev 1 512 10 1 do_nothing280089377
	sim-bpred -bpred 2lev -bpred:2lev 1 1024 10 1 do_nothing280089377
	sim-bpred -bpred 2lev -bpred:2lev 1 2048 10 1 do_nothing280089377
	sim-bpred -bpred 2lev -bpred:2lev 1 4096 10 1 do_nothing280089377
