Thu Aug  4 17:55:52 2005
Run as: "./do_simple -c random.org9 -o 9 do_nothing"
-------------------------------------------------------------------------------------------------
sim-cache                                     4096 |         4096 |         4096 |         4096 |         8192 |         8192 |         8192 |         8192 |        16384 |        16384 |        16384 |        16384 |        32768 |        32768 |        32768 |        32768 |        65536 |        65536 |        65536 |        65536 |       131072 |       131072 |       131072 |       131072 |       262144 |       262144 |       262144 |       262144 |       524288 |       524288 |       524288 |       524288 |      1048576 |      1048576 |      1048576 |      1048576 |      2097152 |      2097152 |      2097152 |      2097152 |      4194304 |      4194304 |      4194304 |      4194304 |
-cache:dl1 dl1:256:32:1:l -cache:dl2 dl2:131072:32:1:l -cache:il1 il1:256:32:1:l -cache:il2 dl2
-cache:dl1 dl1:256:32:1:l -cache:dl2 dl2:65536:32:1:l -cache:il1 il1:256:32:1:l -cache:il2 dl2
-cache:dl1 dl1:1:32:256:l -cache:dl2 dl2:1:32:131072:l -cache:il1 il1:1:32:256:l -cache:il2 dl2
-cache:dl1 dl1:1:32:256:l -cache:dl2 dl2:1:32:65536:l -cache:il1 il1:1:32:256:l -cache:il2 dl2
-------------------------------------------------------------------------------------------------
sim_num_insn                                  6184 |         6184 |         6184 |         6184 |         6188 |         6188 |         6188 |         6188 |         6190 |         6190 |         6190 |         6190 |         6191 |         6191 |         6191 |         6191 |         6191 |         6191 |         6191 |         6191 |         6192 |         6192 |         6192 |         6192 |         6192 |         6192 |         6192 |         6192 |         6192 |         6192 |         6192 |         6192 |         6192 |         6192 |         6192 |         6192 |         6192 |         6192 |         6192 |         6192 |         6192 |         6192 |         6192 |         6192 |
sim_num_refs                                  3646 |         3646 |         3646 |         3646 |         3646 |         3646 |         3646 |         3646 |         3646 |         3646 |         3646 |         3646 |         3646 |         3646 |         3646 |         3646 |         3646 |         3646 |         3646 |         3646 |         3646 |         3646 |         3646 |         3646 |         3646 |         3646 |         3646 |         3646 |         3646 |         3646 |         3646 |         3646 |         3646 |         3646 |         3646 |         3646 |         3646 |         3646 |         3646 |         3646 |         3646 |         3646 |         3646 |         3646 |
sim_elapsed_time                                 1 |            1 |            7 |            3 |            1 |            1 |            9 |            5 |            1 |            1 |           14 |            7 |            1 |            1 |           24 |           12 |            1 |            1 |           45 |           21 |            1 |            1 |           81 |           38 |            1 |            1 |          150 |           64 |            1 |            1 |          257 |           84 |            1 |            1 |          337 |           85 |            2 |            2 |          341 |           87 |            4 |            3 |          339 |           88 |
sim_inst_rate                            6184.0000 |    6184.0000 |     883.4286 |    2061.3333 |    6188.0000 |    6188.0000 |     687.5556 |    1237.6000 |    6190.0000 |    6190.0000 |     442.1429 |     884.2857 |    6191.0000 |    6191.0000 |     257.9583 |     515.9167 |    6191.0000 |    6191.0000 |     137.5778 |     294.8095 |    6192.0000 |    6192.0000 |      76.4444 |     162.9474 |    6192.0000 |    6192.0000 |      41.2800 |      96.7500 |    6192.0000 |    6192.0000 |      24.0934 |      73.7143 |    6192.0000 |    6192.0000 |      18.3739 |      72.8471 |    3096.0000 |    3096.0000 |      18.1584 |      71.1724 |    1548.0000 |    2064.0000 |      18.2655 |      70.3636 |
il1.accesses                                  6184 |         6184 |         6184 |         6184 |         6188 |         6188 |         6188 |         6188 |         6190 |         6190 |         6190 |         6190 |         6191 |         6191 |         6191 |         6191 |         6191 |         6191 |         6191 |         6191 |         6192 |         6192 |         6192 |         6192 |         6192 |         6192 |         6192 |         6192 |         6192 |         6192 |         6192 |         6192 |         6192 |         6192 |         6192 |         6192 |         6192 |         6192 |         6192 |         6192 |         6192 |         6192 |         6192 |         6192 |
il1.hits                                      5835 |         5835 |         5891 |         5891 |         5839 |         5839 |         5895 |         5895 |         5831 |         5831 |         5890 |         5890 |         5840 |         5840 |         5896 |         5896 |         5840 |         5840 |         5896 |         5896 |         5841 |         5841 |         5897 |         5897 |         5841 |         5841 |         5897 |         5897 |         5841 |         5841 |         5897 |         5897 |         5841 |         5841 |         5897 |         5897 |         5841 |         5841 |         5897 |         5897 |         5841 |         5841 |         5897 |         5897 |
il1.misses                                     349 |          349 |          293 |          293 |          349 |          349 |          293 |          293 |          359 |          359 |          300 |          300 |          351 |          351 |          295 |          295 |          351 |          351 |          295 |          295 |          351 |          351 |          295 |          295 |          351 |          351 |          295 |          295 |          351 |          351 |          295 |          295 |          351 |          351 |          295 |          295 |          351 |          351 |          295 |          295 |          351 |          351 |          295 |          295 |
il1.replacements                               170 |          170 |           37 |           37 |          169 |          169 |           37 |           37 |          175 |          175 |           44 |           44 |          170 |          170 |           39 |           39 |          170 |          170 |           39 |           39 |          170 |          170 |           39 |           39 |          170 |          170 |           39 |           39 |          170 |          170 |           39 |           39 |          170 |          170 |           39 |           39 |          170 |          170 |           39 |           39 |          170 |          170 |           39 |           39 |
il1.writebacks                                   0 |            0 |            0 |            0 |            0 |            0 |            0 |            0 |            0 |            0 |            0 |            0 |            0 |            0 |            0 |            0 |            0 |            0 |            0 |            0 |            0 |            0 |            0 |            0 |            0 |            0 |            0 |            0 |            0 |            0 |            0 |            0 |            0 |            0 |            0 |            0 |            0 |            0 |            0 |            0 |            0 |            0 |            0 |            0 |
il1.invalidations                                0 |            0 |            0 |            0 |            0 |            0 |            0 |            0 |            0 |            0 |            0 |            0 |            0 |            0 |            0 |            0 |            0 |            0 |            0 |            0 |            0 |            0 |            0 |            0 |            0 |            0 |            0 |            0 |            0 |            0 |            0 |            0 |            0 |            0 |            0 |            0 |            0 |            0 |            0 |            0 |            0 |            0 |            0 |            0 |
il1.miss_rate                               0.0564 |       0.0564 |       0.0474 |       0.0474 |       0.0564 |       0.0564 |       0.0473 |       0.0473 |       0.0580 |       0.0580 |       0.0485 |       0.0485 |       0.0567 |       0.0567 |       0.0476 |       0.0476 |       0.0567 |       0.0567 |       0.0476 |       0.0476 |       0.0567 |       0.0567 |       0.0476 |       0.0476 |       0.0567 |       0.0567 |       0.0476 |       0.0476 |       0.0567 |       0.0567 |       0.0476 |       0.0476 |       0.0567 |       0.0567 |       0.0476 |       0.0476 |       0.0567 |       0.0567 |       0.0476 |       0.0476 |       0.0567 |       0.0567 |       0.0476 |       0.0476 |
il1.repl_rate                               0.0275 |       0.0275 |       0.0060 |       0.0060 |       0.0273 |       0.0273 |       0.0060 |       0.0060 |       0.0283 |       0.0283 |       0.0071 |       0.0071 |       0.0275 |       0.0275 |       0.0063 |       0.0063 |       0.0275 |       0.0275 |       0.0063 |       0.0063 |       0.0275 |       0.0275 |       0.0063 |       0.0063 |       0.0275 |       0.0275 |       0.0063 |       0.0063 |       0.0275 |       0.0275 |       0.0063 |       0.0063 |       0.0275 |       0.0275 |       0.0063 |       0.0063 |       0.0275 |       0.0275 |       0.0063 |       0.0063 |       0.0275 |       0.0275 |       0.0063 |       0.0063 |
il1.wb_rate                                 0.0000 |       0.0000 |       0.0000 |       0.0000 |       0.0000 |       0.0000 |       0.0000 |       0.0000 |       0.0000 |       0.0000 |       0.0000 |       0.0000 |       0.0000 |       0.0000 |       0.0000 |       0.0000 |       0.0000 |       0.0000 |       0.0000 |       0.0000 |       0.0000 |       0.0000 |       0.0000 |       0.0000 |       0.0000 |       0.0000 |       0.0000 |       0.0000 |       0.0000 |       0.0000 |       0.0000 |       0.0000 |       0.0000 |       0.0000 |       0.0000 |       0.0000 |       0.0000 |       0.0000 |       0.0000 |       0.0000 |       0.0000 |       0.0000 |       0.0000 |       0.0000 |
il1.inv_rate                                0.0000 |       0.0000 |       0.0000 |       0.0000 |       0.0000 |       0.0000 |       0.0000 |       0.0000 |       0.0000 |       0.0000 |       0.0000 |       0.0000 |       0.0000 |       0.0000 |       0.0000 |       0.0000 |       0.0000 |       0.0000 |       0.0000 |       0.0000 |       0.0000 |       0.0000 |       0.0000 |       0.0000 |       0.0000 |       0.0000 |       0.0000 |       0.0000 |       0.0000 |       0.0000 |       0.0000 |       0.0000 |       0.0000 |       0.0000 |       0.0000 |       0.0000 |       0.0000 |       0.0000 |       0.0000 |       0.0000 |       0.0000 |       0.0000 |       0.0000 |       0.0000 |
dl1.accesses                                 20112 |        20112 |        20112 |        20112 |        36496 |        36496 |        36496 |        36496 |        69264 |        69264 |        69264 |        69264 |       134800 |       134800 |       134800 |       134800 |       265872 |       265872 |       265872 |       265872 |       528016 |       528016 |       528016 |       528016 |      1052304 |      1052304 |      1052304 |      1052304 |      2100880 |      2100880 |      2100880 |      2100880 |      4198032 |      4198032 |      4198032 |      4198032 |      8392336 |      8392336 |      8392336 |      8392336 |     16780944 |     16780944 |     16780944 |     16780944 |
dl1.hits                                     19160 |        19160 |        19161 |        19161 |        35032 |        35032 |        35033 |        35033 |        66776 |        66776 |        66777 |        66777 |       130264 |       130264 |       130265 |       130265 |       257240 |       257240 |       257241 |       257241 |       511192 |       511192 |       511193 |       511193 |      1019096 |      1019096 |      1019097 |      1019097 |      2034904 |      2034904 |      2034905 |      2034905 |      4066520 |      4066520 |      4066521 |      4066521 |      8129752 |      8129752 |      8129753 |      8129753 |     16256216 |     16256216 |     16256217 |     16256217 |
dl1.misses                                     952 |          952 |          951 |          951 |         1464 |         1464 |         1463 |         1463 |         2488 |         2488 |         2487 |         2487 |         4536 |         4536 |         4535 |         4535 |         8632 |         8632 |         8631 |         8631 |        16824 |        16824 |        16823 |        16823 |        33208 |        33208 |        33207 |        33207 |        65976 |        65976 |        65975 |        65975 |       131512 |       131512 |       131511 |       131511 |       262584 |       262584 |       262583 |       262583 |       524728 |       524728 |       524727 |       524727 |
dl1.replacements                               696 |          696 |          695 |          695 |         1208 |         1208 |         1207 |         1207 |         2232 |         2232 |         2231 |         2231 |         4280 |         4280 |         4279 |         4279 |         8376 |         8376 |         8375 |         8375 |        16568 |        16568 |        16567 |        16567 |        32952 |        32952 |        32951 |        32951 |        65720 |        65720 |        65719 |        65719 |       131256 |       131256 |       131255 |       131255 |       262328 |       262328 |       262327 |       262327 |       524472 |       524472 |       524471 |       524471 |
dl1.writebacks                                 686 |          686 |          685 |          685 |         1198 |         1198 |         1197 |         1197 |         2222 |         2222 |         2221 |         2221 |         4270 |         4270 |         4269 |         4269 |         8366 |         8366 |         8365 |         8365 |        16558 |        16558 |        16557 |        16557 |        32942 |        32942 |        32941 |        32941 |        65710 |        65710 |        65709 |        65709 |       131246 |       131246 |       131245 |       131245 |       262318 |       262318 |       262317 |       262317 |       524462 |       524462 |       524461 |       524461 |
dl1.invalidations                                0 |            0 |            0 |            0 |            0 |            0 |            0 |            0 |            0 |            0 |            0 |            0 |            0 |            0 |            0 |            0 |            0 |            0 |            0 |            0 |            0 |            0 |            0 |            0 |            0 |            0 |            0 |            0 |            0 |            0 |            0 |            0 |            0 |            0 |            0 |            0 |            0 |            0 |            0 |            0 |            0 |            0 |            0 |            0 |
dl1.miss_rate                               0.0473 |       0.0473 |       0.0473 |       0.0473 |       0.0401 |       0.0401 |       0.0401 |       0.0401 |       0.0359 |       0.0359 |       0.0359 |       0.0359 |       0.0336 |       0.0336 |       0.0336 |       0.0336 |       0.0325 |       0.0325 |       0.0325 |       0.0325 |       0.0319 |       0.0319 |       0.0319 |       0.0319 |       0.0316 |       0.0316 |       0.0316 |       0.0316 |       0.0314 |       0.0314 |       0.0314 |       0.0314 |       0.0313 |       0.0313 |       0.0313 |       0.0313 |       0.0313 |       0.0313 |       0.0313 |       0.0313 |       0.0313 |       0.0313 |       0.0313 |       0.0313 |
dl1.repl_rate                               0.0346 |       0.0346 |       0.0346 |       0.0346 |       0.0331 |       0.0331 |       0.0331 |       0.0331 |       0.0322 |       0.0322 |       0.0322 |       0.0322 |       0.0318 |       0.0318 |       0.0317 |       0.0317 |       0.0315 |       0.0315 |       0.0315 |       0.0315 |       0.0314 |       0.0314 |       0.0314 |       0.0314 |       0.0313 |       0.0313 |       0.0313 |       0.0313 |       0.0313 |       0.0313 |       0.0313 |       0.0313 |       0.0313 |       0.0313 |       0.0313 |       0.0313 |       0.0313 |       0.0313 |       0.0313 |       0.0313 |       0.0313 |       0.0313 |       0.0313 |       0.0313 |
dl1.wb_rate                                 0.0341 |       0.0341 |       0.0341 |       0.0341 |       0.0328 |       0.0328 |       0.0328 |       0.0328 |       0.0321 |       0.0321 |       0.0321 |       0.0321 |       0.0317 |       0.0317 |       0.0317 |       0.0317 |       0.0315 |       0.0315 |       0.0315 |       0.0315 |       0.0314 |       0.0314 |       0.0314 |       0.0314 |       0.0313 |       0.0313 |       0.0313 |       0.0313 |       0.0313 |       0.0313 |       0.0313 |       0.0313 |       0.0313 |       0.0313 |       0.0313 |       0.0313 |       0.0313 |       0.0313 |       0.0313 |       0.0313 |       0.0313 |       0.0313 |       0.0313 |       0.0313 |
dl1.inv_rate                                0.0000 |       0.0000 |       0.0000 |       0.0000 |       0.0000 |       0.0000 |       0.0000 |       0.0000 |       0.0000 |       0.0000 |       0.0000 |       0.0000 |       0.0000 |       0.0000 |       0.0000 |       0.0000 |       0.0000 |       0.0000 |       0.0000 |       0.0000 |       0.0000 |       0.0000 |       0.0000 |       0.0000 |       0.0000 |       0.0000 |       0.0000 |       0.0000 |       0.0000 |       0.0000 |       0.0000 |       0.0000 |       0.0000 |       0.0000 |       0.0000 |       0.0000 |       0.0000 |       0.0000 |       0.0000 |       0.0000 |       0.0000 |       0.0000 |       0.0000 |       0.0000 |
dl2.accesses                                  1987 |         1987 |         1929 |         1929 |         3011 |         3011 |         2953 |         2953 |         5069 |         5069 |         5008 |         5008 |         9157 |         9157 |         9099 |         9099 |        17349 |        17349 |        17291 |        17291 |        33733 |        33733 |        33675 |        33675 |        66501 |        66501 |        66443 |        66443 |       132037 |       132037 |       131979 |       131979 |       263109 |       263109 |       263051 |       263051 |       525253 |       525253 |       525195 |       525195 |      1049541 |      1049541 |      1049483 |      1049483 |
dl2.hits                                       765 |          765 |          712 |          712 |         1276 |         1276 |         1224 |         1224 |         2303 |         2303 |         2248 |         2248 |         4346 |         4346 |         4296 |         4296 |         8442 |         8442 |         8392 |         8392 |        16634 |        16634 |        16584 |        16584 |        33018 |        33018 |        32968 |        32968 |        65786 |        65776 |        65736 |        65728 |       131312 |       131312 |       131264 |       131264 |       262384 |       262384 |       262336 |       262336 |       524528 |       524528 |       524480 |       524480 |
dl2.misses                                    1222 |         1222 |         1217 |         1217 |         1735 |         1735 |         1729 |         1729 |         2766 |         2766 |         2760 |         2760 |         4811 |         4811 |         4803 |         4803 |         8907 |         8907 |         8899 |         8899 |        17099 |        17099 |        17091 |        17091 |        33483 |        33483 |        33475 |        33475 |        66251 |        66261 |        66243 |        66251 |       131797 |       131797 |       131787 |       131787 |       262869 |       262869 |       262859 |       262859 |       525013 |       525013 |       525003 |       525003 |
dl2.replacements                                64 |           64 |            0 |            0 |           65 |           65 |            0 |            0 |           65 |           65 |            0 |            0 |           67 |           67 |            0 |            0 |           67 |           67 |            0 |            0 |           67 |           67 |            0 |            0 |           67 |           67 |            0 |            0 |           67 |          725 |            0 |          715 |          725 |        66261 |          715 |        66251 |       131797 |       197333 |       131787 |       197323 |       393941 |       459477 |       393931 |       459467 |
dl2.writebacks                                   3 |            3 |            0 |            0 |            2 |            2 |            0 |            0 |            1 |            1 |            0 |            0 |            1 |            1 |            0 |            0 |            1 |            1 |            0 |            0 |            1 |            1 |            0 |            0 |            1 |            1 |            0 |            0 |            1 |          596 |            0 |          644 |          596 |        66132 |          644 |        66180 |       131668 |       197204 |       131716 |       197252 |       393812 |       459348 |       393860 |       459396 |
dl2.invalidations                                0 |            0 |            0 |            0 |            0 |            0 |            0 |            0 |            0 |            0 |            0 |            0 |            0 |            0 |            0 |            0 |            0 |            0 |            0 |            0 |            0 |            0 |            0 |            0 |            0 |            0 |            0 |            0 |            0 |            0 |            0 |            0 |            0 |            0 |            0 |            0 |            0 |            0 |            0 |            0 |            0 |            0 |            0 |            0 |
dl2.miss_rate                               0.6150 |       0.6150 |       0.6309 |       0.6309 |       0.5762 |       0.5762 |       0.5855 |       0.5855 |       0.5457 |       0.5457 |       0.5511 |       0.5511 |       0.5254 |       0.5254 |       0.5279 |       0.5279 |       0.5134 |       0.5134 |       0.5147 |       0.5147 |       0.5069 |       0.5069 |       0.5075 |       0.5075 |       0.5035 |       0.5035 |       0.5038 |       0.5038 |       0.5018 |       0.5018 |       0.5019 |       0.5020 |       0.5009 |       0.5009 |       0.5010 |       0.5010 |       0.5005 |       0.5005 |       0.5005 |       0.5005 |       0.5002 |       0.5002 |       0.5002 |       0.5002 |
dl2.repl_rate                               0.0322 |       0.0322 |       0.0000 |       0.0000 |       0.0216 |       0.0216 |       0.0000 |       0.0000 |       0.0128 |       0.0128 |       0.0000 |       0.0000 |       0.0073 |       0.0073 |       0.0000 |       0.0000 |       0.0039 |       0.0039 |       0.0000 |       0.0000 |       0.0020 |       0.0020 |       0.0000 |       0.0000 |       0.0010 |       0.0010 |       0.0000 |       0.0000 |       0.0005 |       0.0055 |       0.0000 |       0.0054 |       0.0028 |       0.2518 |       0.0027 |       0.2519 |       0.2509 |       0.3757 |       0.2509 |       0.3757 |       0.3753 |       0.4378 |       0.3754 |       0.4378 |
dl2.wb_rate                                 0.0015 |       0.0015 |       0.0000 |       0.0000 |       0.0007 |       0.0007 |       0.0000 |       0.0000 |       0.0002 |       0.0002 |       0.0000 |       0.0000 |       0.0001 |       0.0001 |       0.0000 |       0.0000 |       0.0001 |       0.0001 |       0.0000 |       0.0000 |       0.0000 |       0.0000 |       0.0000 |       0.0000 |       0.0000 |       0.0000 |       0.0000 |       0.0000 |       0.0000 |       0.0045 |       0.0000 |       0.0049 |       0.0023 |       0.2513 |       0.0024 |       0.2516 |       0.2507 |       0.3754 |       0.2508 |       0.3756 |       0.3752 |       0.4377 |       0.3753 |       0.4377 |
dl2.inv_rate                                0.0000 |       0.0000 |       0.0000 |       0.0000 |       0.0000 |       0.0000 |       0.0000 |       0.0000 |       0.0000 |       0.0000 |       0.0000 |       0.0000 |       0.0000 |       0.0000 |       0.0000 |       0.0000 |       0.0000 |       0.0000 |       0.0000 |       0.0000 |       0.0000 |       0.0000 |       0.0000 |       0.0000 |       0.0000 |       0.0000 |       0.0000 |       0.0000 |       0.0000 |       0.0000 |       0.0000 |       0.0000 |       0.0000 |       0.0000 |       0.0000 |       0.0000 |       0.0000 |       0.0000 |       0.0000 |       0.0000 |       0.0000 |       0.0000 |       0.0000 |       0.0000 |
itlb.accesses                                 6184 |         6184 |         6184 |         6184 |         6188 |         6188 |         6188 |         6188 |         6190 |         6190 |         6190 |         6190 |         6191 |         6191 |         6191 |         6191 |         6191 |         6191 |         6191 |         6191 |         6192 |         6192 |         6192 |         6192 |         6192 |         6192 |         6192 |         6192 |         6192 |         6192 |         6192 |         6192 |         6192 |         6192 |         6192 |         6192 |         6192 |         6192 |         6192 |         6192 |         6192 |         6192 |         6192 |         6192 |
itlb.hits                                     6175 |         6175 |         6175 |         6175 |         6179 |         6179 |         6179 |         6179 |         6181 |         6181 |         6181 |         6181 |         6182 |         6182 |         6182 |         6182 |         6182 |         6182 |         6182 |         6182 |         6183 |         6183 |         6183 |         6183 |         6183 |         6183 |         6183 |         6183 |         6183 |         6183 |         6183 |         6183 |         6183 |         6183 |         6183 |         6183 |         6183 |         6183 |         6183 |         6183 |         6183 |         6183 |         6183 |         6183 |
itlb.misses                                      9 |            9 |            9 |            9 |            9 |            9 |            9 |            9 |            9 |            9 |            9 |            9 |            9 |            9 |            9 |            9 |            9 |            9 |            9 |            9 |            9 |            9 |            9 |            9 |            9 |            9 |            9 |            9 |            9 |            9 |            9 |            9 |            9 |            9 |            9 |            9 |            9 |            9 |            9 |            9 |            9 |            9 |            9 |            9 |
itlb.replacements                                0 |            0 |            0 |            0 |            0 |            0 |            0 |            0 |            0 |            0 |            0 |            0 |            0 |            0 |            0 |            0 |            0 |            0 |            0 |            0 |            0 |            0 |            0 |            0 |            0 |            0 |            0 |            0 |            0 |            0 |            0 |            0 |            0 |            0 |            0 |            0 |            0 |            0 |            0 |            0 |            0 |            0 |            0 |            0 |
itlb.writebacks                                  0 |            0 |            0 |            0 |            0 |            0 |            0 |            0 |            0 |            0 |            0 |            0 |            0 |            0 |            0 |            0 |            0 |            0 |            0 |            0 |            0 |            0 |            0 |            0 |            0 |            0 |            0 |            0 |            0 |            0 |            0 |            0 |            0 |            0 |            0 |            0 |            0 |            0 |            0 |            0 |            0 |            0 |            0 |            0 |
itlb.invalidations                               0 |            0 |            0 |            0 |            0 |            0 |            0 |            0 |            0 |            0 |            0 |            0 |            0 |            0 |            0 |            0 |            0 |            0 |            0 |            0 |            0 |            0 |            0 |            0 |            0 |            0 |            0 |            0 |            0 |            0 |            0 |            0 |            0 |            0 |            0 |            0 |            0 |            0 |            0 |            0 |            0 |            0 |            0 |            0 |
itlb.miss_rate                              0.0015 |       0.0015 |       0.0015 |       0.0015 |       0.0015 |       0.0015 |       0.0015 |       0.0015 |       0.0015 |       0.0015 |       0.0015 |       0.0015 |       0.0015 |       0.0015 |       0.0015 |       0.0015 |       0.0015 |       0.0015 |       0.0015 |       0.0015 |       0.0015 |       0.0015 |       0.0015 |       0.0015 |       0.0015 |       0.0015 |       0.0015 |       0.0015 |       0.0015 |       0.0015 |       0.0015 |       0.0015 |       0.0015 |       0.0015 |       0.0015 |       0.0015 |       0.0015 |       0.0015 |       0.0015 |       0.0015 |       0.0015 |       0.0015 |       0.0015 |       0.0015 |
itlb.repl_rate                              0.0000 |       0.0000 |       0.0000 |       0.0000 |       0.0000 |       0.0000 |       0.0000 |       0.0000 |       0.0000 |       0.0000 |       0.0000 |       0.0000 |       0.0000 |       0.0000 |       0.0000 |       0.0000 |       0.0000 |       0.0000 |       0.0000 |       0.0000 |       0.0000 |       0.0000 |       0.0000 |       0.0000 |       0.0000 |       0.0000 |       0.0000 |       0.0000 |       0.0000 |       0.0000 |       0.0000 |       0.0000 |       0.0000 |       0.0000 |       0.0000 |       0.0000 |       0.0000 |       0.0000 |       0.0000 |       0.0000 |       0.0000 |       0.0000 |       0.0000 |       0.0000 |
itlb.wb_rate                                0.0000 |       0.0000 |       0.0000 |       0.0000 |       0.0000 |       0.0000 |       0.0000 |       0.0000 |       0.0000 |       0.0000 |       0.0000 |       0.0000 |       0.0000 |       0.0000 |       0.0000 |       0.0000 |       0.0000 |       0.0000 |       0.0000 |       0.0000 |       0.0000 |       0.0000 |       0.0000 |       0.0000 |       0.0000 |       0.0000 |       0.0000 |       0.0000 |       0.0000 |       0.0000 |       0.0000 |       0.0000 |       0.0000 |       0.0000 |       0.0000 |       0.0000 |       0.0000 |       0.0000 |       0.0000 |       0.0000 |       0.0000 |       0.0000 |       0.0000 |       0.0000 |
itlb.inv_rate                               0.0000 |       0.0000 |       0.0000 |       0.0000 |       0.0000 |       0.0000 |       0.0000 |       0.0000 |       0.0000 |       0.0000 |       0.0000 |       0.0000 |       0.0000 |       0.0000 |       0.0000 |       0.0000 |       0.0000 |       0.0000 |       0.0000 |       0.0000 |       0.0000 |       0.0000 |       0.0000 |       0.0000 |       0.0000 |       0.0000 |       0.0000 |       0.0000 |       0.0000 |       0.0000 |       0.0000 |       0.0000 |       0.0000 |       0.0000 |       0.0000 |       0.0000 |       0.0000 |       0.0000 |       0.0000 |       0.0000 |       0.0000 |       0.0000 |       0.0000 |       0.0000 |
dtlb.accesses                                20112 |        20112 |        20112 |        20112 |        36496 |        36496 |        36496 |        36496 |        69264 |        69264 |        69264 |        69264 |       134800 |       134800 |       134800 |       134800 |       265872 |       265872 |       265872 |       265872 |       528016 |       528016 |       528016 |       528016 |      1052304 |      1052304 |      1052304 |      1052304 |      2100880 |      2100880 |      2100880 |      2100880 |      4198032 |      4198032 |      4198032 |      4198032 |      8392336 |      8392336 |      8392336 |      8392336 |     16780944 |     16780944 |     16780944 |     16780944 |
dtlb.hits                                    20101 |        20101 |        20101 |        20101 |        36481 |        36481 |        36481 |        36481 |        69241 |        69241 |        69241 |        69241 |       134761 |       134761 |       134761 |       134761 |       265801 |       265801 |       265801 |       265801 |       527877 |       527877 |       527877 |       527877 |      1052037 |      1052037 |      1052037 |      1052037 |      2100357 |      2100357 |      2100357 |      2100357 |      4196997 |      4196997 |      4196997 |      4196997 |      8390277 |      8390277 |      8390277 |      8390277 |     16776837 |     16776837 |     16776837 |     16776837 |
dtlb.misses                                     11 |           11 |           11 |           11 |           15 |           15 |           15 |           15 |           23 |           23 |           23 |           23 |           39 |           39 |           39 |           39 |           71 |           71 |           71 |           71 |          139 |          139 |          139 |          139 |          267 |          267 |          267 |          267 |          523 |          523 |          523 |          523 |         1035 |         1035 |         1035 |         1035 |         2059 |         2059 |         2059 |         2059 |         4107 |         4107 |         4107 |         4107 |
dtlb.replacements                                0 |            0 |            0 |            0 |            0 |            0 |            0 |            0 |            0 |            0 |            0 |            0 |            0 |            0 |            0 |            0 |            0 |            0 |            0 |            0 |           11 |           11 |           11 |           11 |          139 |          139 |          139 |          139 |          395 |          395 |          395 |          395 |          907 |          907 |          907 |          907 |         1931 |         1931 |         1931 |         1931 |         3979 |         3979 |         3979 |         3979 |
dtlb.writebacks                                  0 |            0 |            0 |            0 |            0 |            0 |            0 |            0 |            0 |            0 |            0 |            0 |            0 |            0 |            0 |            0 |            0 |            0 |            0 |            0 |            9 |            9 |            9 |            9 |          137 |          137 |          137 |          137 |          393 |          393 |          393 |          393 |          905 |          905 |          905 |          905 |         1929 |         1929 |         1929 |         1929 |         3977 |         3977 |         3977 |         3977 |
dtlb.invalidations                               0 |            0 |            0 |            0 |            0 |            0 |            0 |            0 |            0 |            0 |            0 |            0 |            0 |            0 |            0 |            0 |            0 |            0 |            0 |            0 |            0 |            0 |            0 |            0 |            0 |            0 |            0 |            0 |            0 |            0 |            0 |            0 |            0 |            0 |            0 |            0 |            0 |            0 |            0 |            0 |            0 |            0 |            0 |            0 |
dtlb.miss_rate                              0.0005 |       0.0005 |       0.0005 |       0.0005 |       0.0004 |       0.0004 |       0.0004 |       0.0004 |       0.0003 |       0.0003 |       0.0003 |       0.0003 |       0.0003 |       0.0003 |       0.0003 |       0.0003 |       0.0003 |       0.0003 |       0.0003 |       0.0003 |       0.0003 |       0.0003 |       0.0003 |       0.0003 |       0.0003 |       0.0003 |       0.0003 |       0.0003 |       0.0002 |       0.0002 |       0.0002 |       0.0002 |       0.0002 |       0.0002 |       0.0002 |       0.0002 |       0.0002 |       0.0002 |       0.0002 |       0.0002 |       0.0002 |       0.0002 |       0.0002 |       0.0002 |
dtlb.repl_rate                              0.0000 |       0.0000 |       0.0000 |       0.0000 |       0.0000 |       0.0000 |       0.0000 |       0.0000 |       0.0000 |       0.0000 |       0.0000 |       0.0000 |       0.0000 |       0.0000 |       0.0000 |       0.0000 |       0.0000 |       0.0000 |       0.0000 |       0.0000 |       0.0000 |       0.0000 |       0.0000 |       0.0000 |       0.0001 |       0.0001 |       0.0001 |       0.0001 |       0.0002 |       0.0002 |       0.0002 |       0.0002 |       0.0002 |       0.0002 |       0.0002 |       0.0002 |       0.0002 |       0.0002 |       0.0002 |       0.0002 |       0.0002 |       0.0002 |       0.0002 |       0.0002 |
dtlb.wb_rate                                0.0000 |       0.0000 |       0.0000 |       0.0000 |       0.0000 |       0.0000 |       0.0000 |       0.0000 |       0.0000 |       0.0000 |       0.0000 |       0.0000 |       0.0000 |       0.0000 |       0.0000 |       0.0000 |       0.0000 |       0.0000 |       0.0000 |       0.0000 |       0.0000 |       0.0000 |       0.0000 |       0.0000 |       0.0001 |       0.0001 |       0.0001 |       0.0001 |       0.0002 |       0.0002 |       0.0002 |       0.0002 |       0.0002 |       0.0002 |       0.0002 |       0.0002 |       0.0002 |       0.0002 |       0.0002 |       0.0002 |       0.0002 |       0.0002 |       0.0002 |       0.0002 |
dtlb.inv_rate                               0.0000 |       0.0000 |       0.0000 |       0.0000 |       0.0000 |       0.0000 |       0.0000 |       0.0000 |       0.0000 |       0.0000 |       0.0000 |       0.0000 |       0.0000 |       0.0000 |       0.0000 |       0.0000 |       0.0000 |       0.0000 |       0.0000 |       0.0000 |       0.0000 |       0.0000 |       0.0000 |       0.0000 |       0.0000 |       0.0000 |       0.0000 |       0.0000 |       0.0000 |       0.0000 |       0.0000 |       0.0000 |       0.0000 |       0.0000 |       0.0000 |       0.0000 |       0.0000 |       0.0000 |       0.0000 |       0.0000 |       0.0000 |       0.0000 |       0.0000 |       0.0000 |
ld_text_base                            0x00400000 |   0x00400000 |   0x00400000 |   0x00400000 |   0x00400000 |   0x00400000 |   0x00400000 |   0x00400000 |   0x00400000 |   0x00400000 |   0x00400000 |   0x00400000 |   0x00400000 |   0x00400000 |   0x00400000 |   0x00400000 |   0x00400000 |   0x00400000 |   0x00400000 |   0x00400000 |   0x00400000 |   0x00400000 |   0x00400000 |   0x00400000 |   0x00400000 |   0x00400000 |   0x00400000 |   0x00400000 |   0x00400000 |   0x00400000 |   0x00400000 |   0x00400000 |   0x00400000 |   0x00400000 |   0x00400000 |   0x00400000 |   0x00400000 |   0x00400000 |   0x00400000 |   0x00400000 |   0x00400000 |   0x00400000 |   0x00400000 |   0x00400000 |
ld_text_size                                 70688 |        70688 |        70688 |        70688 |        70720 |        70720 |        70720 |        70720 |        70736 |        70736 |        70736 |        70736 |        70752 |        70752 |        70752 |        70752 |        70752 |        70752 |        70752 |        70752 |        70752 |        70752 |        70752 |        70752 |        70752 |        70752 |        70752 |        70752 |        70752 |        70752 |        70752 |        70752 |        70752 |        70752 |        70752 |        70752 |        70752 |        70752 |        70752 |        70752 |        70752 |        70752 |        70752 |        70752 |
ld_data_base                            0x10000000 |   0x10000000 |   0x10000000 |   0x10000000 |   0x10000000 |   0x10000000 |   0x10000000 |   0x10000000 |   0x10000000 |   0x10000000 |   0x10000000 |   0x10000000 |   0x10000000 |   0x10000000 |   0x10000000 |   0x10000000 |   0x10000000 |   0x10000000 |   0x10000000 |   0x10000000 |   0x10000000 |   0x10000000 |   0x10000000 |   0x10000000 |   0x10000000 |   0x10000000 |   0x10000000 |   0x10000000 |   0x10000000 |   0x10000000 |   0x10000000 |   0x10000000 |   0x10000000 |   0x10000000 |   0x10000000 |   0x10000000 |   0x10000000 |   0x10000000 |   0x10000000 |   0x10000000 |   0x10000000 |   0x10000000 |   0x10000000 |   0x10000000 |
ld_data_size                                  8192 |         8192 |         8192 |         8192 |         8192 |         8192 |         8192 |         8192 |         8192 |         8192 |         8192 |         8192 |         8192 |         8192 |         8192 |         8192 |         8192 |         8192 |         8192 |         8192 |         8192 |         8192 |         8192 |         8192 |         8192 |         8192 |         8192 |         8192 |         8192 |         8192 |         8192 |         8192 |         8192 |         8192 |         8192 |         8192 |         8192 |         8192 |         8192 |         8192 |         8192 |         8192 |         8192 |         8192 |
ld_stack_base                           0x7fffc000 |   0x7fffc000 |   0x7fffc000 |   0x7fffc000 |   0x7fffc000 |   0x7fffc000 |   0x7fffc000 |   0x7fffc000 |   0x7fffc000 |   0x7fffc000 |   0x7fffc000 |   0x7fffc000 |   0x7fffc000 |   0x7fffc000 |   0x7fffc000 |   0x7fffc000 |   0x7fffc000 |   0x7fffc000 |   0x7fffc000 |   0x7fffc000 |   0x7fffc000 |   0x7fffc000 |   0x7fffc000 |   0x7fffc000 |   0x7fffc000 |   0x7fffc000 |   0x7fffc000 |   0x7fffc000 |   0x7fffc000 |   0x7fffc000 |   0x7fffc000 |   0x7fffc000 |   0x7fffc000 |   0x7fffc000 |   0x7fffc000 |   0x7fffc000 |   0x7fffc000 |   0x7fffc000 |   0x7fffc000 |   0x7fffc000 |   0x7fffc000 |   0x7fffc000 |   0x7fffc000 |   0x7fffc000 |
ld_stack_size                                16384 |        16384 |        16384 |        16384 |        16384 |        16384 |        16384 |        16384 |        16384 |        16384 |        16384 |        16384 |        16384 |        16384 |        16384 |        16384 |        16384 |        16384 |        16384 |        16384 |        16384 |        16384 |        16384 |        16384 |        16384 |        16384 |        16384 |        16384 |        16384 |        16384 |        16384 |        16384 |        16384 |        16384 |        16384 |        16384 |        16384 |        16384 |        16384 |        16384 |        16384 |        16384 |        16384 |        16384 |
ld_prog_entry                           0x00400140 |   0x00400140 |   0x00400140 |   0x00400140 |   0x00400140 |   0x00400140 |   0x00400140 |   0x00400140 |   0x00400140 |   0x00400140 |   0x00400140 |   0x00400140 |   0x00400140 |   0x00400140 |   0x00400140 |   0x00400140 |   0x00400140 |   0x00400140 |   0x00400140 |   0x00400140 |   0x00400140 |   0x00400140 |   0x00400140 |   0x00400140 |   0x00400140 |   0x00400140 |   0x00400140 |   0x00400140 |   0x00400140 |   0x00400140 |   0x00400140 |   0x00400140 |   0x00400140 |   0x00400140 |   0x00400140 |   0x00400140 |   0x00400140 |   0x00400140 |   0x00400140 |   0x00400140 |   0x00400140 |   0x00400140 |   0x00400140 |   0x00400140 |
ld_environ_base                         0x7fff8000 |   0x7fff8000 |   0x7fff8000 |   0x7fff8000 |   0x7fff8000 |   0x7fff8000 |   0x7fff8000 |   0x7fff8000 |   0x7fff8000 |   0x7fff8000 |   0x7fff8000 |   0x7fff8000 |   0x7fff8000 |   0x7fff8000 |   0x7fff8000 |   0x7fff8000 |   0x7fff8000 |   0x7fff8000 |   0x7fff8000 |   0x7fff8000 |   0x7fff8000 |   0x7fff8000 |   0x7fff8000 |   0x7fff8000 |   0x7fff8000 |   0x7fff8000 |   0x7fff8000 |   0x7fff8000 |   0x7fff8000 |   0x7fff8000 |   0x7fff8000 |   0x7fff8000 |   0x7fff8000 |   0x7fff8000 |   0x7fff8000 |   0x7fff8000 |   0x7fff8000 |   0x7fff8000 |   0x7fff8000 |   0x7fff8000 |   0x7fff8000 |   0x7fff8000 |   0x7fff8000 |   0x7fff8000 |
ld_target_big_endian                             0 |            0 |            0 |            0 |            0 |            0 |            0 |            0 |            0 |            0 |            0 |            0 |            0 |            0 |            0 |            0 |            0 |            0 |            0 |            0 |            0 |            0 |            0 |            0 |            0 |            0 |            0 |            0 |            0 |            0 |            0 |            0 |            0 |            0 |            0 |            0 |            0 |            0 |            0 |            0 |            0 |            0 |            0 |            0 |
mem.page_count                                  29 |           29 |           29 |           29 |           33 |           33 |           33 |           33 |           41 |           41 |           41 |           41 |           57 |           57 |           57 |           57 |           89 |           89 |           89 |           89 |          153 |          153 |          153 |          153 |          281 |          281 |          281 |          281 |          537 |          537 |          537 |          537 |         1049 |         1049 |         1049 |         1049 |         2073 |         2073 |         2073 |         2073 |         4121 |         4121 |         4121 |         4121 |
mem.page_mem                                  116k |         116k |         116k |         116k |         132k |         132k |         132k |         132k |         164k |         164k |         164k |         164k |         228k |         228k |         228k |         228k |         356k |         356k |         356k |         356k |         612k |         612k |         612k |         612k |        1124k |        1124k |        1124k |        1124k |        2148k |        2148k |        2148k |        2148k |        4196k |        4196k |        4196k |        4196k |        8292k |        8292k |        8292k |        8292k |       16484k |       16484k |       16484k |       16484k |
mem.ptab_misses                                 29 |           29 |           29 |           29 |           33 |           33 |           33 |           33 |           41 |           41 |           41 |           41 |           57 |           57 |           57 |           57 |           89 |           89 |           89 |           89 |          153 |          153 |          153 |          153 |          281 |          281 |          281 |          281 |          537 |          537 |          537 |          537 |         1049 |         1049 |         1049 |         1049 |         2073 |         2073 |         2073 |         2073 |         4121 |         4121 |         4121 |         4121 |
mem.ptab_accesses                           503658 |       503658 |       503658 |       503658 |       536634 |       536634 |       536634 |       536634 |       602274 |       602274 |       602274 |       602274 |       733446 |       733446 |       733446 |       733446 |       995590 |       995590 |       995590 |       995590 |      1519882 |      1519882 |      1519882 |      1519882 |      2568458 |      2568458 |      2568458 |      2568458 |      4665610 |      4665610 |      4665610 |      4665610 |      8859914 |      8859914 |      8859914 |      8859914 |     17248522 |     17248522 |     17248522 |     17248522 |     34025738 |     34025738 |     34025738 |     34025738 |
mem.ptab_miss_rate                          0.0001 |       0.0001 |       0.0001 |       0.0001 |       0.0001 |       0.0001 |       0.0001 |       0.0001 |       0.0001 |       0.0001 |       0.0001 |       0.0001 |       0.0001 |       0.0001 |       0.0001 |       0.0001 |       0.0001 |       0.0001 |       0.0001 |       0.0001 |       0.0001 |       0.0001 |       0.0001 |       0.0001 |       0.0001 |       0.0001 |       0.0001 |       0.0001 |       0.0001 |       0.0001 |       0.0001 |       0.0001 |       0.0001 |       0.0001 |       0.0001 |       0.0001 |       0.0001 |       0.0001 |       0.0001 |       0.0001 |       0.0001 |       0.0001 |       0.0001 |       0.0001 |
-------------------------------------------------------------------------------------------------
sim-bpred                                     4096 |         4096 |         4096 |         4096 |         4096 |         4096 |         4096 |         8192 |         8192 |         8192 |         8192 |         8192 |         8192 |         8192 |        16384 |        16384 |        16384 |        16384 |        16384 |        16384 |        16384 |        32768 |        32768 |        32768 |        32768 |        32768 |        32768 |        32768 |        65536 |        65536 |        65536 |        65536 |        65536 |        65536 |        65536 |       131072 |       131072 |       131072 |       131072 |       131072 |       131072 |       131072 |       262144 |       262144 |       262144 |       262144 |       262144 |       262144 |       262144 |       524288 |       524288 |       524288 |       524288 |       524288 |       524288 |       524288 |      1048576 |      1048576 |      1048576 |      1048576 |      1048576 |      1048576 |      1048576 |      2097152 |      2097152 |      2097152 |      2097152 |      2097152 |      2097152 |      2097152 |      4194304 |      4194304 |      4194304 |      4194304 |      4194304 |      4194304 |      4194304 |
-bpred bimod -bpred:bimod 512
-bpred bimod -bpred:bimod 1024
-bpred bimod -bpred:bimod 2048
-bpred 2lev -bpred:2lev 1 512 10 1
-bpred 2lev -bpred:2lev 1 1024 10 1
-bpred 2lev -bpred:2lev 1 2048 10 1
-bpred 2lev -bpred:2lev 1 4096 10 1
-------------------------------------------------------------------------------------------------
sim_num_insn                                  6184 |         6184 |         6184 |         6184 |         6184 |         6184 |         6184 |         6188 |         6188 |         6188 |         6188 |         6188 |         6188 |         6188 |         6190 |         6190 |         6190 |         6190 |         6190 |         6190 |         6190 |         6191 |         6191 |         6191 |         6191 |         6191 |         6191 |         6191 |         6191 |         6191 |         6191 |         6191 |         6191 |         6191 |         6191 |         6192 |         6192 |         6192 |         6192 |         6192 |         6192 |         6192 |         6192 |         6192 |         6192 |         6192 |         6192 |         6192 |         6192 |         6192 |         6192 |         6192 |         6192 |         6192 |         6192 |         6192 |         6192 |         6192 |         6192 |         6192 |         6192 |         6192 |         6192 |         6192 |         6192 |         6192 |         6192 |         6192 |         6192 |         6192 |         6192 |         6192 |         6192 |         6192 |         6192 |         6192 |         6192 |
sim_num_refs                                  3646 |         3646 |         3646 |         3646 |         3646 |         3646 |         3646 |         3646 |         3646 |         3646 |         3646 |         3646 |         3646 |         3646 |         3646 |         3646 |         3646 |         3646 |         3646 |         3646 |         3646 |         3646 |         3646 |         3646 |         3646 |         3646 |         3646 |         3646 |         3646 |         3646 |         3646 |         3646 |         3646 |         3646 |         3646 |         3646 |         3646 |         3646 |         3646 |         3646 |         3646 |         3646 |         3646 |         3646 |         3646 |         3646 |         3646 |         3646 |         3646 |         3646 |         3646 |         3646 |         3646 |         3646 |         3646 |         3646 |         3646 |         3646 |         3646 |         3646 |         3646 |         3646 |         3646 |         3646 |         3646 |         3646 |         3646 |         3646 |         3646 |         3646 |         3646 |         3646 |         3646 |         3646 |         3646 |         3646 |         3646 |
sim_elapsed_time                                 1 |            1 |            1 |            1 |            1 |            1 |            1 |            1 |            1 |            1 |            1 |            1 |            1 |            1 |            1 |            1 |            1 |            1 |            1 |            1 |            1 |            1 |            1 |            1 |            1 |            1 |            1 |            1 |            1 |            1 |            1 |            1 |            1 |            1 |            1 |            1 |            1 |            1 |            1 |            1 |            1 |            1 |            1 |            1 |            1 |            1 |            1 |            1 |            1 |            1 |            1 |            1 |            1 |            1 |            1 |            1 |            1 |            1 |            1 |            1 |            1 |            1 |            1 |            1 |            1 |            1 |            1 |            1 |            1 |            1 |            1 |            1 |            1 |            1 |            1 |            1 |            1 |
sim_inst_rate                            6184.0000 |    6184.0000 |    6184.0000 |    6184.0000 |    6184.0000 |    6184.0000 |    6184.0000 |    6188.0000 |    6188.0000 |    6188.0000 |    6188.0000 |    6188.0000 |    6188.0000 |    6188.0000 |    6190.0000 |    6190.0000 |    6190.0000 |    6190.0000 |    6190.0000 |    6190.0000 |    6190.0000 |    6191.0000 |    6191.0000 |    6191.0000 |    6191.0000 |    6191.0000 |    6191.0000 |    6191.0000 |    6191.0000 |    6191.0000 |    6191.0000 |    6191.0000 |    6191.0000 |    6191.0000 |    6191.0000 |    6192.0000 |    6192.0000 |    6192.0000 |    6192.0000 |    6192.0000 |    6192.0000 |    6192.0000 |    6192.0000 |    6192.0000 |    6192.0000 |    6192.0000 |    6192.0000 |    6192.0000 |    6192.0000 |    6192.0000 |    6192.0000 |    6192.0000 |    6192.0000 |    6192.0000 |    6192.0000 |    6192.0000 |    6192.0000 |    6192.0000 |    6192.0000 |    6192.0000 |    6192.0000 |    6192.0000 |    6192.0000 |    6192.0000 |    6192.0000 |    6192.0000 |    6192.0000 |    6192.0000 |    6192.0000 |    6192.0000 |    6192.0000 |    6192.0000 |    6192.0000 |    6192.0000 |    6192.0000 |    6192.0000 |    6192.0000 |
sim_num_branches                               739 |          739 |          739 |          739 |          739 |          739 |          739 |          739 |          739 |          739 |          739 |          739 |          739 |          739 |          739 |          739 |          739 |          739 |          739 |          739 |          739 |          739 |          739 |          739 |          739 |          739 |          739 |          739 |          739 |          739 |          739 |          739 |          739 |          739 |          739 |          739 |          739 |          739 |          739 |          739 |          739 |          739 |          739 |          739 |          739 |          739 |          739 |          739 |          739 |          739 |          739 |          739 |          739 |          739 |          739 |          739 |          739 |          739 |          739 |          739 |          739 |          739 |          739 |          739 |          739 |          739 |          739 |          739 |          739 |          739 |          739 |          739 |          739 |          739 |          739 |          739 |          739 |
sim_IPB                                     8.3681 |       8.3681 |       8.3681 |       8.3681 |       8.3681 |       8.3681 |       8.3681 |       8.3735 |       8.3735 |       8.3735 |       8.3735 |       8.3735 |       8.3735 |       8.3735 |       8.3762 |       8.3762 |       8.3762 |       8.3762 |       8.3762 |       8.3762 |       8.3762 |       8.3775 |       8.3775 |       8.3775 |       8.3775 |       8.3775 |       8.3775 |       8.3775 |       8.3775 |       8.3775 |       8.3775 |       8.3775 |       8.3775 |       8.3775 |       8.3775 |       8.3789 |       8.3789 |       8.3789 |       8.3789 |       8.3789 |       8.3789 |       8.3789 |       8.3789 |       8.3789 |       8.3789 |       8.3789 |       8.3789 |       8.3789 |       8.3789 |       8.3789 |       8.3789 |       8.3789 |       8.3789 |       8.3789 |       8.3789 |       8.3789 |       8.3789 |       8.3789 |       8.3789 |       8.3789 |       8.3789 |       8.3789 |       8.3789 |       8.3789 |       8.3789 |       8.3789 |       8.3789 |       8.3789 |       8.3789 |       8.3789 |       8.3789 |       8.3789 |       8.3789 |       8.3789 |       8.3789 |       8.3789 |       8.3789 |
bpred_bimod.lookups                            739 |          739 |          739 |xxxxxxxxxxxxx |xxxxxxxxxxxxx |xxxxxxxxxxxxx |xxxxxxxxxxxxx |          739 |          739 |          739 |xxxxxxxxxxxxx |xxxxxxxxxxxxx |xxxxxxxxxxxxx |xxxxxxxxxxxxx |          739 |          739 |          739 |xxxxxxxxxxxxx |xxxxxxxxxxxxx |xxxxxxxxxxxxx |xxxxxxxxxxxxx |          739 |          739 |          739 |xxxxxxxxxxxxx |xxxxxxxxxxxxx |xxxxxxxxxxxxx |xxxxxxxxxxxxx |          739 |          739 |          739 |xxxxxxxxxxxxx |xxxxxxxxxxxxx |xxxxxxxxxxxxx |xxxxxxxxxxxxx |          739 |          739 |          739 |xxxxxxxxxxxxx |xxxxxxxxxxxxx |xxxxxxxxxxxxx |xxxxxxxxxxxxx |          739 |          739 |          739 |xxxxxxxxxxxxx |xxxxxxxxxxxxx |xxxxxxxxxxxxx |xxxxxxxxxxxxx |          739 |          739 |          739 |xxxxxxxxxxxxx |xxxxxxxxxxxxx |xxxxxxxxxxxxx |xxxxxxxxxxxxx |          739 |          739 |          739 |xxxxxxxxxxxxx |xxxxxxxxxxxxx |xxxxxxxxxxxxx |xxxxxxxxxxxxx |          739 |          739 |          739 |xxxxxxxxxxxxx |xxxxxxxxxxxxx |xxxxxxxxxxxxx |xxxxxxxxxxxxx |          739 |          739 |          739 |
bpred_bimod.updates                            739 |          739 |          739 |xxxxxxxxxxxxx |xxxxxxxxxxxxx |xxxxxxxxxxxxx |xxxxxxxxxxxxx |          739 |          739 |          739 |xxxxxxxxxxxxx |xxxxxxxxxxxxx |xxxxxxxxxxxxx |xxxxxxxxxxxxx |          739 |          739 |          739 |xxxxxxxxxxxxx |xxxxxxxxxxxxx |xxxxxxxxxxxxx |xxxxxxxxxxxxx |          739 |          739 |          739 |xxxxxxxxxxxxx |xxxxxxxxxxxxx |xxxxxxxxxxxxx |xxxxxxxxxxxxx |          739 |          739 |          739 |xxxxxxxxxxxxx |xxxxxxxxxxxxx |xxxxxxxxxxxxx |xxxxxxxxxxxxx |          739 |          739 |          739 |xxxxxxxxxxxxx |xxxxxxxxxxxxx |xxxxxxxxxxxxx |xxxxxxxxxxxxx |          739 |          739 |          739 |xxxxxxxxxxxxx |xxxxxxxxxxxxx |xxxxxxxxxxxxx |xxxxxxxxxxxxx |          739 |          739 |          739 |xxxxxxxxxxxxx |xxxxxxxxxxxxx |xxxxxxxxxxxxx |xxxxxxxxxxxxx |          739 |          739 |          739 |xxxxxxxxxxxxx |xxxxxxxxxxxxx |xxxxxxxxxxxxx |xxxxxxxxxxxxx |          739 |          739 |          739 |xxxxxxxxxxxxx |xxxxxxxxxxxxx |xxxxxxxxxxxxx |xxxxxxxxxxxxx |          739 |          739 |          739 |
bpred_bimod.addr_hits                          573 |          575 |          575 |xxxxxxxxxxxxx |xxxxxxxxxxxxx |xxxxxxxxxxxxx |xxxxxxxxxxxxx |          573 |          575 |          575 |xxxxxxxxxxxxx |xxxxxxxxxxxxx |xxxxxxxxxxxxx |xxxxxxxxxxxxx |          575 |          577 |          577 |xxxxxxxxxxxxx |xxxxxxxxxxxxx |xxxxxxxxxxxxx |xxxxxxxxxxxxx |          575 |          577 |          577 |xxxxxxxxxxxxx |xxxxxxxxxxxxx |xxxxxxxxxxxxx |xxxxxxxxxxxxx |          575 |          577 |          577 |xxxxxxxxxxxxx |xxxxxxxxxxxxx |xxxxxxxxxxxxx |xxxxxxxxxxxxx |          575 |          577 |          577 |xxxxxxxxxxxxx |xxxxxxxxxxxxx |xxxxxxxxxxxxx |xxxxxxxxxxxxx |          575 |          577 |          577 |xxxxxxxxxxxxx |xxxxxxxxxxxxx |xxxxxxxxxxxxx |xxxxxxxxxxxxx |          575 |          577 |          577 |xxxxxxxxxxxxx |xxxxxxxxxxxxx |xxxxxxxxxxxxx |xxxxxxxxxxxxx |          575 |          577 |          577 |xxxxxxxxxxxxx |xxxxxxxxxxxxx |xxxxxxxxxxxxx |xxxxxxxxxxxxx |          575 |          577 |          577 |xxxxxxxxxxxxx |xxxxxxxxxxxxx |xxxxxxxxxxxxx |xxxxxxxxxxxxx |          575 |          577 |          577 |
bpred_bimod.dir_hits                           666 |          667 |          666 |xxxxxxxxxxxxx |xxxxxxxxxxxxx |xxxxxxxxxxxxx |xxxxxxxxxxxxx |          666 |          667 |          666 |xxxxxxxxxxxxx |xxxxxxxxxxxxx |xxxxxxxxxxxxx |xxxxxxxxxxxxx |          668 |          669 |          668 |xxxxxxxxxxxxx |xxxxxxxxxxxxx |xxxxxxxxxxxxx |xxxxxxxxxxxxx |          667 |          668 |          667 |xxxxxxxxxxxxx |xxxxxxxxxxxxx |xxxxxxxxxxxxx |xxxxxxxxxxxxx |          667 |          668 |          667 |xxxxxxxxxxxxx |xxxxxxxxxxxxx |xxxxxxxxxxxxx |xxxxxxxxxxxxx |          668 |          669 |          668 |xxxxxxxxxxxxx |xxxxxxxxxxxxx |xxxxxxxxxxxxx |xxxxxxxxxxxxx |          668 |          669 |          668 |xxxxxxxxxxxxx |xxxxxxxxxxxxx |xxxxxxxxxxxxx |xxxxxxxxxxxxx |          668 |          669 |          668 |xxxxxxxxxxxxx |xxxxxxxxxxxxx |xxxxxxxxxxxxx |xxxxxxxxxxxxx |          668 |          669 |          668 |xxxxxxxxxxxxx |xxxxxxxxxxxxx |xxxxxxxxxxxxx |xxxxxxxxxxxxx |          668 |          669 |          668 |xxxxxxxxxxxxx |xxxxxxxxxxxxx |xxxxxxxxxxxxx |xxxxxxxxxxxxx |          668 |          669 |          668 |
bpred_bimod.misses                              73 |           72 |           73 |xxxxxxxxxxxxx |xxxxxxxxxxxxx |xxxxxxxxxxxxx |xxxxxxxxxxxxx |           73 |           72 |           73 |xxxxxxxxxxxxx |xxxxxxxxxxxxx |xxxxxxxxxxxxx |xxxxxxxxxxxxx |           71 |           70 |           71 |xxxxxxxxxxxxx |xxxxxxxxxxxxx |xxxxxxxxxxxxx |xxxxxxxxxxxxx |           72 |           71 |           72 |xxxxxxxxxxxxx |xxxxxxxxxxxxx |xxxxxxxxxxxxx |xxxxxxxxxxxxx |           72 |           71 |           72 |xxxxxxxxxxxxx |xxxxxxxxxxxxx |xxxxxxxxxxxxx |xxxxxxxxxxxxx |           71 |           70 |           71 |xxxxxxxxxxxxx |xxxxxxxxxxxxx |xxxxxxxxxxxxx |xxxxxxxxxxxxx |           71 |           70 |           71 |xxxxxxxxxxxxx |xxxxxxxxxxxxx |xxxxxxxxxxxxx |xxxxxxxxxxxxx |           71 |           70 |           71 |xxxxxxxxxxxxx |xxxxxxxxxxxxx |xxxxxxxxxxxxx |xxxxxxxxxxxxx |           71 |           70 |           71 |xxxxxxxxxxxxx |xxxxxxxxxxxxx |xxxxxxxxxxxxx |xxxxxxxxxxxxx |           71 |           70 |           71 |xxxxxxxxxxxxx |xxxxxxxxxxxxx |xxxxxxxxxxxxx |xxxxxxxxxxxxx |           71 |           70 |           71 |
bpred_bimod.jr_hits                             57 |           57 |           57 |xxxxxxxxxxxxx |xxxxxxxxxxxxx |xxxxxxxxxxxxx |xxxxxxxxxxxxx |           57 |           57 |           57 |xxxxxxxxxxxxx |xxxxxxxxxxxxx |xxxxxxxxxxxxx |xxxxxxxxxxxxx |           57 |           57 |           57 |xxxxxxxxxxxxx |xxxxxxxxxxxxx |xxxxxxxxxxxxx |xxxxxxxxxxxxx |           57 |           57 |           57 |xxxxxxxxxxxxx |xxxxxxxxxxxxx |xxxxxxxxxxxxx |xxxxxxxxxxxxx |           57 |           57 |           57 |xxxxxxxxxxxxx |xxxxxxxxxxxxx |xxxxxxxxxxxxx |xxxxxxxxxxxxx |           57 |           57 |           57 |xxxxxxxxxxxxx |xxxxxxxxxxxxx |xxxxxxxxxxxxx |xxxxxxxxxxxxx |           57 |           57 |           57 |xxxxxxxxxxxxx |xxxxxxxxxxxxx |xxxxxxxxxxxxx |xxxxxxxxxxxxx |           57 |           57 |           57 |xxxxxxxxxxxxx |xxxxxxxxxxxxx |xxxxxxxxxxxxx |xxxxxxxxxxxxx |           57 |           57 |           57 |xxxxxxxxxxxxx |xxxxxxxxxxxxx |xxxxxxxxxxxxx |xxxxxxxxxxxxx |           57 |           57 |           57 |xxxxxxxxxxxxx |xxxxxxxxxxxxx |xxxxxxxxxxxxx |xxxxxxxxxxxxx |           57 |           57 |           57 |
bpred_bimod.jr_seen                             58 |           58 |           58 |xxxxxxxxxxxxx |xxxxxxxxxxxxx |xxxxxxxxxxxxx |xxxxxxxxxxxxx |           58 |           58 |           58 |xxxxxxxxxxxxx |xxxxxxxxxxxxx |xxxxxxxxxxxxx |xxxxxxxxxxxxx |           58 |           58 |           58 |xxxxxxxxxxxxx |xxxxxxxxxxxxx |xxxxxxxxxxxxx |xxxxxxxxxxxxx |           58 |           58 |           58 |xxxxxxxxxxxxx |xxxxxxxxxxxxx |xxxxxxxxxxxxx |xxxxxxxxxxxxx |           58 |           58 |           58 |xxxxxxxxxxxxx |xxxxxxxxxxxxx |xxxxxxxxxxxxx |xxxxxxxxxxxxx |           58 |           58 |           58 |xxxxxxxxxxxxx |xxxxxxxxxxxxx |xxxxxxxxxxxxx |xxxxxxxxxxxxx |           58 |           58 |           58 |xxxxxxxxxxxxx |xxxxxxxxxxxxx |xxxxxxxxxxxxx |xxxxxxxxxxxxx |           58 |           58 |           58 |xxxxxxxxxxxxx |xxxxxxxxxxxxx |xxxxxxxxxxxxx |xxxxxxxxxxxxx |           58 |           58 |           58 |xxxxxxxxxxxxx |xxxxxxxxxxxxx |xxxxxxxxxxxxx |xxxxxxxxxxxxx |           58 |           58 |           58 |xxxxxxxxxxxxx |xxxxxxxxxxxxx |xxxxxxxxxxxxx |xxxxxxxxxxxxx |           58 |           58 |           58 |
bpred_bimod.jr_non_ras_hits.PP                   0 |            0 |            0 |xxxxxxxxxxxxx |xxxxxxxxxxxxx |xxxxxxxxxxxxx |xxxxxxxxxxxxx |            0 |            0 |            0 |xxxxxxxxxxxxx |xxxxxxxxxxxxx |xxxxxxxxxxxxx |xxxxxxxxxxxxx |            0 |            0 |            0 |xxxxxxxxxxxxx |xxxxxxxxxxxxx |xxxxxxxxxxxxx |xxxxxxxxxxxxx |            0 |            0 |            0 |xxxxxxxxxxxxx |xxxxxxxxxxxxx |xxxxxxxxxxxxx |xxxxxxxxxxxxx |            0 |            0 |            0 |xxxxxxxxxxxxx |xxxxxxxxxxxxx |xxxxxxxxxxxxx |xxxxxxxxxxxxx |            0 |            0 |            0 |xxxxxxxxxxxxx |xxxxxxxxxxxxx |xxxxxxxxxxxxx |xxxxxxxxxxxxx |            0 |            0 |            0 |xxxxxxxxxxxxx |xxxxxxxxxxxxx |xxxxxxxxxxxxx |xxxxxxxxxxxxx |            0 |            0 |            0 |xxxxxxxxxxxxx |xxxxxxxxxxxxx |xxxxxxxxxxxxx |xxxxxxxxxxxxx |            0 |            0 |            0 |xxxxxxxxxxxxx |xxxxxxxxxxxxx |xxxxxxxxxxxxx |xxxxxxxxxxxxx |            0 |            0 |            0 |xxxxxxxxxxxxx |xxxxxxxxxxxxx |xxxxxxxxxxxxx |xxxxxxxxxxxxx |            0 |            0 |            0 |
bpred_bimod.jr_non_ras_seen.PP                   0 |            0 |            0 |xxxxxxxxxxxxx |xxxxxxxxxxxxx |xxxxxxxxxxxxx |xxxxxxxxxxxxx |            0 |            0 |            0 |xxxxxxxxxxxxx |xxxxxxxxxxxxx |xxxxxxxxxxxxx |xxxxxxxxxxxxx |            0 |            0 |            0 |xxxxxxxxxxxxx |xxxxxxxxxxxxx |xxxxxxxxxxxxx |xxxxxxxxxxxxx |            0 |            0 |            0 |xxxxxxxxxxxxx |xxxxxxxxxxxxx |xxxxxxxxxxxxx |xxxxxxxxxxxxx |            0 |            0 |            0 |xxxxxxxxxxxxx |xxxxxxxxxxxxx |xxxxxxxxxxxxx |xxxxxxxxxxxxx |            0 |            0 |            0 |xxxxxxxxxxxxx |xxxxxxxxxxxxx |xxxxxxxxxxxxx |xxxxxxxxxxxxx |            0 |            0 |            0 |xxxxxxxxxxxxx |xxxxxxxxxxxxx |xxxxxxxxxxxxx |xxxxxxxxxxxxx |            0 |            0 |            0 |xxxxxxxxxxxxx |xxxxxxxxxxxxx |xxxxxxxxxxxxx |xxxxxxxxxxxxx |            0 |            0 |            0 |xxxxxxxxxxxxx |xxxxxxxxxxxxx |xxxxxxxxxxxxx |xxxxxxxxxxxxx |            0 |            0 |            0 |xxxxxxxxxxxxx |xxxxxxxxxxxxx |xxxxxxxxxxxxx |xxxxxxxxxxxxx |            0 |            0 |            0 |
bpred_bimod.bpred_addr_rate                 0.7754 |       0.7781 |       0.7781 |xxxxxxxxxxxxx |xxxxxxxxxxxxx |xxxxxxxxxxxxx |xxxxxxxxxxxxx |       0.7754 |       0.7781 |       0.7781 |xxxxxxxxxxxxx |xxxxxxxxxxxxx |xxxxxxxxxxxxx |xxxxxxxxxxxxx |       0.7781 |       0.7808 |       0.7808 |xxxxxxxxxxxxx |xxxxxxxxxxxxx |xxxxxxxxxxxxx |xxxxxxxxxxxxx |       0.7781 |       0.7808 |       0.7808 |xxxxxxxxxxxxx |xxxxxxxxxxxxx |xxxxxxxxxxxxx |xxxxxxxxxxxxx |       0.7781 |       0.7808 |       0.7808 |xxxxxxxxxxxxx |xxxxxxxxxxxxx |xxxxxxxxxxxxx |xxxxxxxxxxxxx |       0.7781 |       0.7808 |       0.7808 |xxxxxxxxxxxxx |xxxxxxxxxxxxx |xxxxxxxxxxxxx |xxxxxxxxxxxxx |       0.7781 |       0.7808 |       0.7808 |xxxxxxxxxxxxx |xxxxxxxxxxxxx |xxxxxxxxxxxxx |xxxxxxxxxxxxx |       0.7781 |       0.7808 |       0.7808 |xxxxxxxxxxxxx |xxxxxxxxxxxxx |xxxxxxxxxxxxx |xxxxxxxxxxxxx |       0.7781 |       0.7808 |       0.7808 |xxxxxxxxxxxxx |xxxxxxxxxxxxx |xxxxxxxxxxxxx |xxxxxxxxxxxxx |       0.7781 |       0.7808 |       0.7808 |xxxxxxxxxxxxx |xxxxxxxxxxxxx |xxxxxxxxxxxxx |xxxxxxxxxxxxx |       0.7781 |       0.7808 |       0.7808 |
bpred_bimod.bpred_dir_rate                  0.9012 |       0.9026 |       0.9012 |xxxxxxxxxxxxx |xxxxxxxxxxxxx |xxxxxxxxxxxxx |xxxxxxxxxxxxx |       0.9012 |       0.9026 |       0.9012 |xxxxxxxxxxxxx |xxxxxxxxxxxxx |xxxxxxxxxxxxx |xxxxxxxxxxxxx |       0.9039 |       0.9053 |       0.9039 |xxxxxxxxxxxxx |xxxxxxxxxxxxx |xxxxxxxxxxxxx |xxxxxxxxxxxxx |       0.9026 |       0.9039 |       0.9026 |xxxxxxxxxxxxx |xxxxxxxxxxxxx |xxxxxxxxxxxxx |xxxxxxxxxxxxx |       0.9026 |       0.9039 |       0.9026 |xxxxxxxxxxxxx |xxxxxxxxxxxxx |xxxxxxxxxxxxx |xxxxxxxxxxxxx |       0.9039 |       0.9053 |       0.9039 |xxxxxxxxxxxxx |xxxxxxxxxxxxx |xxxxxxxxxxxxx |xxxxxxxxxxxxx |       0.9039 |       0.9053 |       0.9039 |xxxxxxxxxxxxx |xxxxxxxxxxxxx |xxxxxxxxxxxxx |xxxxxxxxxxxxx |       0.9039 |       0.9053 |       0.9039 |xxxxxxxxxxxxx |xxxxxxxxxxxxx |xxxxxxxxxxxxx |xxxxxxxxxxxxx |       0.9039 |       0.9053 |       0.9039 |xxxxxxxxxxxxx |xxxxxxxxxxxxx |xxxxxxxxxxxxx |xxxxxxxxxxxxx |       0.9039 |       0.9053 |       0.9039 |xxxxxxxxxxxxx |xxxxxxxxxxxxx |xxxxxxxxxxxxx |xxxxxxxxxxxxx |       0.9039 |       0.9053 |       0.9039 |
bpred_bimod.bpred_jr_rate                   0.9828 |       0.9828 |       0.9828 |xxxxxxxxxxxxx |xxxxxxxxxxxxx |xxxxxxxxxxxxx |xxxxxxxxxxxxx |       0.9828 |       0.9828 |       0.9828 |xxxxxxxxxxxxx |xxxxxxxxxxxxx |xxxxxxxxxxxxx |xxxxxxxxxxxxx |       0.9828 |       0.9828 |       0.9828 |xxxxxxxxxxxxx |xxxxxxxxxxxxx |xxxxxxxxxxxxx |xxxxxxxxxxxxx |       0.9828 |       0.9828 |       0.9828 |xxxxxxxxxxxxx |xxxxxxxxxxxxx |xxxxxxxxxxxxx |xxxxxxxxxxxxx |       0.9828 |       0.9828 |       0.9828 |xxxxxxxxxxxxx |xxxxxxxxxxxxx |xxxxxxxxxxxxx |xxxxxxxxxxxxx |       0.9828 |       0.9828 |       0.9828 |xxxxxxxxxxxxx |xxxxxxxxxxxxx |xxxxxxxxxxxxx |xxxxxxxxxxxxx |       0.9828 |       0.9828 |       0.9828 |xxxxxxxxxxxxx |xxxxxxxxxxxxx |xxxxxxxxxxxxx |xxxxxxxxxxxxx |       0.9828 |       0.9828 |       0.9828 |xxxxxxxxxxxxx |xxxxxxxxxxxxx |xxxxxxxxxxxxx |xxxxxxxxxxxxx |       0.9828 |       0.9828 |       0.9828 |xxxxxxxxxxxxx |xxxxxxxxxxxxx |xxxxxxxxxxxxx |xxxxxxxxxxxxx |       0.9828 |       0.9828 |       0.9828 |xxxxxxxxxxxxx |xxxxxxxxxxxxx |xxxxxxxxxxxxx |xxxxxxxxxxxxx |       0.9828 |       0.9828 |       0.9828 |
bpred_bimod.bpred_jr_non_ras_rate.PP       <error: |      <error: |      <error: |xxxxxxxxxxxxx |xxxxxxxxxxxxx |xxxxxxxxxxxxx |xxxxxxxxxxxxx |      <error: |      <error: |      <error: |xxxxxxxxxxxxx |xxxxxxxxxxxxx |xxxxxxxxxxxxx |xxxxxxxxxxxxx |      <error: |      <error: |      <error: |xxxxxxxxxxxxx |xxxxxxxxxxxxx |xxxxxxxxxxxxx |xxxxxxxxxxxxx |      <error: |      <error: |      <error: |xxxxxxxxxxxxx |xxxxxxxxxxxxx |xxxxxxxxxxxxx |xxxxxxxxxxxxx |      <error: |      <error: |      <error: |xxxxxxxxxxxxx |xxxxxxxxxxxxx |xxxxxxxxxxxxx |xxxxxxxxxxxxx |      <error: |      <error: |      <error: |xxxxxxxxxxxxx |xxxxxxxxxxxxx |xxxxxxxxxxxxx |xxxxxxxxxxxxx |      <error: |      <error: |      <error: |xxxxxxxxxxxxx |xxxxxxxxxxxxx |xxxxxxxxxxxxx |xxxxxxxxxxxxx |      <error: |      <error: |      <error: |xxxxxxxxxxxxx |xxxxxxxxxxxxx |xxxxxxxxxxxxx |xxxxxxxxxxxxx |      <error: |      <error: |      <error: |xxxxxxxxxxxxx |xxxxxxxxxxxxx |xxxxxxxxxxxxx |xxxxxxxxxxxxx |      <error: |      <error: |      <error: |xxxxxxxxxxxxx |xxxxxxxxxxxxx |xxxxxxxxxxxxx |xxxxxxxxxxxxx |      <error: |      <error: |      <error: |
bpred_bimod.retstack_pushes                     60 |           60 |           60 |xxxxxxxxxxxxx |xxxxxxxxxxxxx |xxxxxxxxxxxxx |xxxxxxxxxxxxx |           60 |           60 |           60 |xxxxxxxxxxxxx |xxxxxxxxxxxxx |xxxxxxxxxxxxx |xxxxxxxxxxxxx |           60 |           60 |           60 |xxxxxxxxxxxxx |xxxxxxxxxxxxx |xxxxxxxxxxxxx |xxxxxxxxxxxxx |           60 |           60 |           60 |xxxxxxxxxxxxx |xxxxxxxxxxxxx |xxxxxxxxxxxxx |xxxxxxxxxxxxx |           60 |           60 |           60 |xxxxxxxxxxxxx |xxxxxxxxxxxxx |xxxxxxxxxxxxx |xxxxxxxxxxxxx |           60 |           60 |           60 |xxxxxxxxxxxxx |xxxxxxxxxxxxx |xxxxxxxxxxxxx |xxxxxxxxxxxxx |           60 |           60 |           60 |xxxxxxxxxxxxx |xxxxxxxxxxxxx |xxxxxxxxxxxxx |xxxxxxxxxxxxx |           60 |           60 |           60 |xxxxxxxxxxxxx |xxxxxxxxxxxxx |xxxxxxxxxxxxx |xxxxxxxxxxxxx |           60 |           60 |           60 |xxxxxxxxxxxxx |xxxxxxxxxxxxx |xxxxxxxxxxxxx |xxxxxxxxxxxxx |           60 |           60 |           60 |xxxxxxxxxxxxx |xxxxxxxxxxxxx |xxxxxxxxxxxxx |xxxxxxxxxxxxx |           60 |           60 |           60 |
bpred_bimod.retstack_pops                       58 |           58 |           58 |xxxxxxxxxxxxx |xxxxxxxxxxxxx |xxxxxxxxxxxxx |xxxxxxxxxxxxx |           58 |           58 |           58 |xxxxxxxxxxxxx |xxxxxxxxxxxxx |xxxxxxxxxxxxx |xxxxxxxxxxxxx |           58 |           58 |           58 |xxxxxxxxxxxxx |xxxxxxxxxxxxx |xxxxxxxxxxxxx |xxxxxxxxxxxxx |           58 |           58 |           58 |xxxxxxxxxxxxx |xxxxxxxxxxxxx |xxxxxxxxxxxxx |xxxxxxxxxxxxx |           58 |           58 |           58 |xxxxxxxxxxxxx |xxxxxxxxxxxxx |xxxxxxxxxxxxx |xxxxxxxxxxxxx |           58 |           58 |           58 |xxxxxxxxxxxxx |xxxxxxxxxxxxx |xxxxxxxxxxxxx |xxxxxxxxxxxxx |           58 |           58 |           58 |xxxxxxxxxxxxx |xxxxxxxxxxxxx |xxxxxxxxxxxxx |xxxxxxxxxxxxx |           58 |           58 |           58 |xxxxxxxxxxxxx |xxxxxxxxxxxxx |xxxxxxxxxxxxx |xxxxxxxxxxxxx |           58 |           58 |           58 |xxxxxxxxxxxxx |xxxxxxxxxxxxx |xxxxxxxxxxxxx |xxxxxxxxxxxxx |           58 |           58 |           58 |xxxxxxxxxxxxx |xxxxxxxxxxxxx |xxxxxxxxxxxxx |xxxxxxxxxxxxx |           58 |           58 |           58 |
bpred_bimod.used_ras.PP                         58 |           58 |           58 |xxxxxxxxxxxxx |xxxxxxxxxxxxx |xxxxxxxxxxxxx |xxxxxxxxxxxxx |           58 |           58 |           58 |xxxxxxxxxxxxx |xxxxxxxxxxxxx |xxxxxxxxxxxxx |xxxxxxxxxxxxx |           58 |           58 |           58 |xxxxxxxxxxxxx |xxxxxxxxxxxxx |xxxxxxxxxxxxx |xxxxxxxxxxxxx |           58 |           58 |           58 |xxxxxxxxxxxxx |xxxxxxxxxxxxx |xxxxxxxxxxxxx |xxxxxxxxxxxxx |           58 |           58 |           58 |xxxxxxxxxxxxx |xxxxxxxxxxxxx |xxxxxxxxxxxxx |xxxxxxxxxxxxx |           58 |           58 |           58 |xxxxxxxxxxxxx |xxxxxxxxxxxxx |xxxxxxxxxxxxx |xxxxxxxxxxxxx |           58 |           58 |           58 |xxxxxxxxxxxxx |xxxxxxxxxxxxx |xxxxxxxxxxxxx |xxxxxxxxxxxxx |           58 |           58 |           58 |xxxxxxxxxxxxx |xxxxxxxxxxxxx |xxxxxxxxxxxxx |xxxxxxxxxxxxx |           58 |           58 |           58 |xxxxxxxxxxxxx |xxxxxxxxxxxxx |xxxxxxxxxxxxx |xxxxxxxxxxxxx |           58 |           58 |           58 |xxxxxxxxxxxxx |xxxxxxxxxxxxx |xxxxxxxxxxxxx |xxxxxxxxxxxxx |           58 |           58 |           58 |
bpred_bimod.ras_hits.PP                         57 |           57 |           57 |xxxxxxxxxxxxx |xxxxxxxxxxxxx |xxxxxxxxxxxxx |xxxxxxxxxxxxx |           57 |           57 |           57 |xxxxxxxxxxxxx |xxxxxxxxxxxxx |xxxxxxxxxxxxx |xxxxxxxxxxxxx |           57 |           57 |           57 |xxxxxxxxxxxxx |xxxxxxxxxxxxx |xxxxxxxxxxxxx |xxxxxxxxxxxxx |           57 |           57 |           57 |xxxxxxxxxxxxx |xxxxxxxxxxxxx |xxxxxxxxxxxxx |xxxxxxxxxxxxx |           57 |           57 |           57 |xxxxxxxxxxxxx |xxxxxxxxxxxxx |xxxxxxxxxxxxx |xxxxxxxxxxxxx |           57 |           57 |           57 |xxxxxxxxxxxxx |xxxxxxxxxxxxx |xxxxxxxxxxxxx |xxxxxxxxxxxxx |           57 |           57 |           57 |xxxxxxxxxxxxx |xxxxxxxxxxxxx |xxxxxxxxxxxxx |xxxxxxxxxxxxx |           57 |           57 |           57 |xxxxxxxxxxxxx |xxxxxxxxxxxxx |xxxxxxxxxxxxx |xxxxxxxxxxxxx |           57 |           57 |           57 |xxxxxxxxxxxxx |xxxxxxxxxxxxx |xxxxxxxxxxxxx |xxxxxxxxxxxxx |           57 |           57 |           57 |xxxxxxxxxxxxx |xxxxxxxxxxxxx |xxxxxxxxxxxxx |xxxxxxxxxxxxx |           57 |           57 |           57 |
bpred_bimod.ras_rate.PP                     0.9828 |       0.9828 |       0.9828 |xxxxxxxxxxxxx |xxxxxxxxxxxxx |xxxxxxxxxxxxx |xxxxxxxxxxxxx |       0.9828 |       0.9828 |       0.9828 |xxxxxxxxxxxxx |xxxxxxxxxxxxx |xxxxxxxxxxxxx |xxxxxxxxxxxxx |       0.9828 |       0.9828 |       0.9828 |xxxxxxxxxxxxx |xxxxxxxxxxxxx |xxxxxxxxxxxxx |xxxxxxxxxxxxx |       0.9828 |       0.9828 |       0.9828 |xxxxxxxxxxxxx |xxxxxxxxxxxxx |xxxxxxxxxxxxx |xxxxxxxxxxxxx |       0.9828 |       0.9828 |       0.9828 |xxxxxxxxxxxxx |xxxxxxxxxxxxx |xxxxxxxxxxxxx |xxxxxxxxxxxxx |       0.9828 |       0.9828 |       0.9828 |xxxxxxxxxxxxx |xxxxxxxxxxxxx |xxxxxxxxxxxxx |xxxxxxxxxxxxx |       0.9828 |       0.9828 |       0.9828 |xxxxxxxxxxxxx |xxxxxxxxxxxxx |xxxxxxxxxxxxx |xxxxxxxxxxxxx |       0.9828 |       0.9828 |       0.9828 |xxxxxxxxxxxxx |xxxxxxxxxxxxx |xxxxxxxxxxxxx |xxxxxxxxxxxxx |       0.9828 |       0.9828 |       0.9828 |xxxxxxxxxxxxx |xxxxxxxxxxxxx |xxxxxxxxxxxxx |xxxxxxxxxxxxx |       0.9828 |       0.9828 |       0.9828 |xxxxxxxxxxxxx |xxxxxxxxxxxxx |xxxxxxxxxxxxx |xxxxxxxxxxxxx |       0.9828 |       0.9828 |       0.9828 |
bpred_2lev.lookups                   xxxxxxxxxxxxx |xxxxxxxxxxxxx |xxxxxxxxxxxxx |          739 |          739 |          739 |          739 |xxxxxxxxxxxxx |xxxxxxxxxxxxx |xxxxxxxxxxxxx |          739 |          739 |          739 |          739 |xxxxxxxxxxxxx |xxxxxxxxxxxxx |xxxxxxxxxxxxx |          739 |          739 |          739 |          739 |xxxxxxxxxxxxx |xxxxxxxxxxxxx |xxxxxxxxxxxxx |          739 |          739 |          739 |          739 |xxxxxxxxxxxxx |xxxxxxxxxxxxx |xxxxxxxxxxxxx |          739 |          739 |          739 |          739 |xxxxxxxxxxxxx |xxxxxxxxxxxxx |xxxxxxxxxxxxx |          739 |          739 |          739 |          739 |xxxxxxxxxxxxx |xxxxxxxxxxxxx |xxxxxxxxxxxxx |          739 |          739 |          739 |          739 |xxxxxxxxxxxxx |xxxxxxxxxxxxx |xxxxxxxxxxxxx |          739 |          739 |          739 |          739 |xxxxxxxxxxxxx |xxxxxxxxxxxxx |xxxxxxxxxxxxx |          739 |          739 |          739 |          739 |xxxxxxxxxxxxx |xxxxxxxxxxxxx |xxxxxxxxxxxxx |          739 |          739 |          739 |          739 |xxxxxxxxxxxxx |xxxxxxxxxxxxx |xxxxxxxxxxxxx |          739 |          739 |          739 |          739 |
[...]
bpred_2lev.bpred_jr_non_ras_rate.PP  xxxxxxxxxxxxx |xxxxxxxxxxxxx |xxxxxxxxxxxxx |      <error: |      <error: |      <error: |      <error: |xxxxxxxxxxxxx |xxxxxxxxxxxxx |xxxxxxxxxxxxx |      <error: |      <error: |      <error: |      <error: |xxxxxxxxxxxxx |xxxxxxxxxxxxx |xxxxxxxxxxxxx |      <error: |      <error: |      <error: |      <error: |xxxxxxxxxxxxx |xxxxxxxxxxxxx |xxxxxxxxxxxxx |      <error: |      <error: |      <error: |      <error: |xxxxxxxxxxxxx |xxxxxxxxxxxxx |xxxxxxxxxxxxx |      <error: |      <error: |      <error: |      <error: |xxxxxxxxxxxxx |xxxxxxxxxxxxx |xxxxxxxxxxxxx |      <error: |      <error: |      <error: |      <error: |xxxxxxxxxxxxx |xxxxxxxxxxxxx |xxxxxxxxxxxxx |      <error: |      <error: |      <error: |      <error: |xxxxxxxxxxxxx |xxxxxxxxxxxxx |xxxxxxxxxxxxx |      <error: |      <error: |      <error: |      <error: |xxxxxxxxxxxxx |xxxxxxxxxxxxx |xxxxxxxxxxxxx |      <error: |      <error: |      <error: |      <error: |xxxxxxxxxxxxx |xxxxxxxxxxxxx |xxxxxxxxxxxxx |      <error: |      <error: |      <error: |      <error: |xxxxxxxxxxxxx |xxxxxxxxxxxxx |xxxxxxxxxxxxx |      <error: |      <error: |      <error: |      <error: |
bpred_2lev.retstack_pushes           xxxxxxxxxxxxx |xxxxxxxxxxxxx |xxxxxxxxxxxxx |           60 |           60 |           60 |           60 |xxxxxxxxxxxxx |xxxxxxxxxxxxx |xxxxxxxxxxxxx |           60 |           60 |           60 |           60 |xxxxxxxxxxxxx |xxxxxxxxxxxxx |xxxxxxxxxxxxx |           60 |           60 |           60 |           60 |xxxxxxxxxxxxx |xxxxxxxxxxxxx |xxxxxxxxxxxxx |           60 |           60 |           60 |           60 |xxxxxxxxxxxxx |xxxxxxxxxxxxx |xxxxxxxxxxxxx |           60 |           60 |           60 |           60 |xxxxxxxxxxxxx |xxxxxxxxxxxxx |xxxxxxxxxxxxx |           60 |           60 |           60 |           60 |xxxxxxxxxxxxx |xxxxxxxxxxxxx |xxxxxxxxxxxxx |           60 |           60 |           60 |           60 |xxxxxxxxxxxxx |xxxxxxxxxxxxx |xxxxxxxxxxxxx |           60 |           60 |           60 |           60 |xxxxxxxxxxxxx |xxxxxxxxxxxxx |xxxxxxxxxxxxx |           60 |           60 |           60 |           60 |xxxxxxxxxxxxx |xxxxxxxxxxxxx |xxxxxxxxxxxxx |           60 |           60 |           60 |           60 |xxxxxxxxxxxxx |xxxxxxxxxxxxx |xxxxxxxxxxxxx |           60 |           60 |           60 |           60 |
bpred_2lev.retstack_pops             xxxxxxxxxxxxx |xxxxxxxxxxxxx |xxxxxxxxxxxxx |           58 |           58 |           58 |           58 |xxxxxxxxxxxxx |xxxxxxxxxxxxx |xxxxxxxxxxxxx |           58 |           58 |           58 |           58 |xxxxxxxxxxxxx |xxxxxxxxxxxxx |xxxxxxxxxxxxx |           58 |           58 |           58 |           58 |xxxxxxxxxxxxx |xxxxxxxxxxxxx |xxxxxxxxxxxxx |           58 |           58 |           58 |           58 |xxxxxxxxxxxxx |xxxxxxxxxxxxx |xxxxxxxxxxxxx |           58 |           58 |           58 |           58 |xxxxxxxxxxxxx |xxxxxxxxxxxxx |xxxxxxxxxxxxx |           58 |           58 |           58 |           58 |xxxxxxxxxxxxx |xxxxxxxxxxxxx |xxxxxxxxxxxxx |           58 |           58 |           58 |           58 |xxxxxxxxxxxxx |xxxxxxxxxxxxx |xxxxxxxxxxxxx |           58 |           58 |           58 |           58 |xxxxxxxxxxxxx |xxxxxxxxxxxxx |xxxxxxxxxxxxx |           58 |           58 |           58 |           58 |xxxxxxxxxxxxx |xxxxxxxxxxxxx |xxxxxxxxxxxxx |           58 |           58 |           58 |           58 |xxxxxxxxxxxxx |xxxxxxxxxxxxx |xxxxxxxxxxxxx |           58 |           58 |           58 |           58 |
bpred_2lev.used_ras.PP               xxxxxxxxxxxxx |xxxxxxxxxxxxx |xxxxxxxxxxxxx |           58 |           58 |           58 |           58 |xxxxxxxxxxxxx |xxxxxxxxxxxxx |xxxxxxxxxxxxx |           58 |           58 |           58 |           58 |xxxxxxxxxxxxx |xxxxxxxxxxxxx |xxxxxxxxxxxxx |           58 |           58 |           58 |           58 |xxxxxxxxxxxxx |xxxxxxxxxxxxx |xxxxxxxxxxxxx |           58 |           58 |           58 |           58 |xxxxxxxxxxxxx |xxxxxxxxxxxxx |xxxxxxxxxxxxx |           58 |           58 |           58 |           58 |xxxxxxxxxxxxx |xxxxxxxxxxxxx |xxxxxxxxxxxxx |           58 |           58 |           58 |           58 |xxxxxxxxxxxxx |xxxxxxxxxxxxx |xxxxxxxxxxxxx |           58 |           58 |           58 |           58 |xxxxxxxxxxxxx |xxxxxxxxxxxxx |xxxxxxxxxxxxx |           58 |           58 |           58 |           58 |xxxxxxxxxxxxx |xxxxxxxxxxxxx |xxxxxxxxxxxxx |           58 |           58 |           58 |           58 |xxxxxxxxxxxxx |xxxxxxxxxxxxx |xxxxxxxxxxxxx |           58 |           58 |           58 |           58 |xxxxxxxxxxxxx |xxxxxxxxxxxxx |xxxxxxxxxxxxx |           58 |           58 |           58 |           58 |
bpred_2lev.ras_hits.PP               xxxxxxxxxxxxx |xxxxxxxxxxxxx |xxxxxxxxxxxxx |           57 |           57 |           57 |           57 |xxxxxxxxxxxxx |xxxxxxxxxxxxx |xxxxxxxxxxxxx |           57 |           57 |           57 |           57 |xxxxxxxxxxxxx |xxxxxxxxxxxxx |xxxxxxxxxxxxx |           57 |           57 |           57 |           57 |xxxxxxxxxxxxx |xxxxxxxxxxxxx |xxxxxxxxxxxxx |           57 |           57 |           57 |           57 |xxxxxxxxxxxxx |xxxxxxxxxxxxx |xxxxxxxxxxxxx |           57 |           57 |           57 |           57 |xxxxxxxxxxxxx |xxxxxxxxxxxxx |xxxxxxxxxxxxx |           57 |           57 |           57 |           57 |xxxxxxxxxxxxx |xxxxxxxxxxxxx |xxxxxxxxxxxxx |           57 |           57 |           57 |           57 |xxxxxxxxxxxxx |xxxxxxxxxxxxx |xxxxxxxxxxxxx |           57 |           57 |           57 |           57 |xxxxxxxxxxxxx |xxxxxxxxxxxxx |xxxxxxxxxxxxx |           57 |           57 |           57 |           57 |xxxxxxxxxxxxx |xxxxxxxxxxxxx |xxxxxxxxxxxxx |           57 |           57 |           57 |           57 |xxxxxxxxxxxxx |xxxxxxxxxxxxx |xxxxxxxxxxxxx |           57 |           57 |           57 |           57 |
bpred_2lev.ras_rate.PP               xxxxxxxxxxxxx |xxxxxxxxxxxxx |xxxxxxxxxxxxx |       0.9828 |       0.9828 |       0.9828 |       0.9828 |xxxxxxxxxxxxx |xxxxxxxxxxxxx |xxxxxxxxxxxxx |       0.9828 |       0.9828 |       0.9828 |       0.9828 |xxxxxxxxxxxxx |xxxxxxxxxxxxx |xxxxxxxxxxxxx |       0.9828 |       0.9828 |       0.9828 |       0.9828 |xxxxxxxxxxxxx |xxxxxxxxxxxxx |xxxxxxxxxxxxx |       0.9828 |       0.9828 |       0.9828 |       0.9828 |xxxxxxxxxxxxx |xxxxxxxxxxxxx |xxxxxxxxxxxxx |       0.9828 |       0.9828 |       0.9828 |       0.9828 |xxxxxxxxxxxxx |xxxxxxxxxxxxx |xxxxxxxxxxxxx |       0.9828 |       0.9828 |       0.9828 |       0.9828 |xxxxxxxxxxxxx |xxxxxxxxxxxxx |xxxxxxxxxxxxx |       0.9828 |       0.9828 |       0.9828 |       0.9828 |xxxxxxxxxxxxx |xxxxxxxxxxxxx |xxxxxxxxxxxxx |       0.9828 |       0.9828 |       0.9828 |       0.9828 |xxxxxxxxxxxxx |xxxxxxxxxxxxx |xxxxxxxxxxxxx |       0.9828 |       0.9828 |       0.9828 |       0.9828 |xxxxxxxxxxxxx |xxxxxxxxxxxxx |xxxxxxxxxxxxx |       0.9828 |       0.9828 |       0.9828 |       0.9828 |xxxxxxxxxxxxx |xxxxxxxxxxxxx |xxxxxxxxxxxxx |       0.9828 |       0.9828 |       0.9828 |       0.9828 |

Command list: 
	sslittle-na-sstrix-gcc -Wall -O3 -funroll-loops -finline-functions  -DRANDOM_SIZE=4096 -DOFFSET=9 -DSORT=do_nothing sorts/do_nothing158457347.c simpleMain.c -o do_nothing1962153576
	sim-cache -cache:dl1 dl1:256:32:1:l -cache:dl2 dl2:131072:32:1:l -cache:il1 il1:256:32:1:l -cache:il2 dl2 do_nothing1962153576
	sim-cache -cache:dl1 dl1:256:32:1:l -cache:dl2 dl2:65536:32:1:l -cache:il1 il1:256:32:1:l -cache:il2 dl2 do_nothing1962153576
	sim-cache -cache:dl1 dl1:1:32:256:l -cache:dl2 dl2:1:32:131072:l -cache:il1 il1:1:32:256:l -cache:il2 dl2 do_nothing1962153576
	sim-cache -cache:dl1 dl1:1:32:256:l -cache:dl2 dl2:1:32:65536:l -cache:il1 il1:1:32:256:l -cache:il2 dl2 do_nothing1962153576
	sim-bpred -bpred bimod -bpred:bimod 512 do_nothing1962153576
	sim-bpred -bpred bimod -bpred:bimod 1024 do_nothing1962153576
	sim-bpred -bpred bimod -bpred:bimod 2048 do_nothing1962153576
	sim-bpred -bpred 2lev -bpred:2lev 1 512 10 1 do_nothing1962153576
	sim-bpred -bpred 2lev -bpred:2lev 1 1024 10 1 do_nothing1962153576
	sim-bpred -bpred 2lev -bpred:2lev 1 2048 10 1 do_nothing1962153576
	sim-bpred -bpred 2lev -bpred:2lev 1 4096 10 1 do_nothing1962153576
	sslittle-na-sstrix-gcc -Wall -O3 -funroll-loops -finline-functions  -DRANDOM_SIZE=8192 -DOFFSET=9 -DSORT=do_nothing sorts/do_nothing158457347.c simpleMain.c -o do_nothing1962153576
	sim-cache -cache:dl1 dl1:256:32:1:l -cache:dl2 dl2:131072:32:1:l -cache:il1 il1:256:32:1:l -cache:il2 dl2 do_nothing1962153576
	sim-cache -cache:dl1 dl1:256:32:1:l -cache:dl2 dl2:65536:32:1:l -cache:il1 il1:256:32:1:l -cache:il2 dl2 do_nothing1962153576
	sim-cache -cache:dl1 dl1:1:32:256:l -cache:dl2 dl2:1:32:131072:l -cache:il1 il1:1:32:256:l -cache:il2 dl2 do_nothing1962153576
	sim-cache -cache:dl1 dl1:1:32:256:l -cache:dl2 dl2:1:32:65536:l -cache:il1 il1:1:32:256:l -cache:il2 dl2 do_nothing1962153576
	sim-bpred -bpred bimod -bpred:bimod 512 do_nothing1962153576
	sim-bpred -bpred bimod -bpred:bimod 1024 do_nothing1962153576
	sim-bpred -bpred bimod -bpred:bimod 2048 do_nothing1962153576
	sim-bpred -bpred 2lev -bpred:2lev 1 512 10 1 do_nothing1962153576
	sim-bpred -bpred 2lev -bpred:2lev 1 1024 10 1 do_nothing1962153576
	sim-bpred -bpred 2lev -bpred:2lev 1 2048 10 1 do_nothing1962153576
	sim-bpred -bpred 2lev -bpred:2lev 1 4096 10 1 do_nothing1962153576
	sslittle-na-sstrix-gcc -Wall -O3 -funroll-loops -finline-functions  -DRANDOM_SIZE=16384 -DOFFSET=9 -DSORT=do_nothing sorts/do_nothing158457347.c simpleMain.c -o do_nothing1962153576
	sim-cache -cache:dl1 dl1:256:32:1:l -cache:dl2 dl2:131072:32:1:l -cache:il1 il1:256:32:1:l -cache:il2 dl2 do_nothing1962153576
	sim-cache -cache:dl1 dl1:256:32:1:l -cache:dl2 dl2:65536:32:1:l -cache:il1 il1:256:32:1:l -cache:il2 dl2 do_nothing1962153576
	sim-cache -cache:dl1 dl1:1:32:256:l -cache:dl2 dl2:1:32:131072:l -cache:il1 il1:1:32:256:l -cache:il2 dl2 do_nothing1962153576
	sim-cache -cache:dl1 dl1:1:32:256:l -cache:dl2 dl2:1:32:65536:l -cache:il1 il1:1:32:256:l -cache:il2 dl2 do_nothing1962153576
	sim-bpred -bpred bimod -bpred:bimod 512 do_nothing1962153576
	sim-bpred -bpred bimod -bpred:bimod 1024 do_nothing1962153576
	sim-bpred -bpred bimod -bpred:bimod 2048 do_nothing1962153576
	sim-bpred -bpred 2lev -bpred:2lev 1 512 10 1 do_nothing1962153576
	sim-bpred -bpred 2lev -bpred:2lev 1 1024 10 1 do_nothing1962153576
	sim-bpred -bpred 2lev -bpred:2lev 1 2048 10 1 do_nothing1962153576
	sim-bpred -bpred 2lev -bpred:2lev 1 4096 10 1 do_nothing1962153576
	sslittle-na-sstrix-gcc -Wall -O3 -funroll-loops -finline-functions  -DRANDOM_SIZE=32768 -DOFFSET=9 -DSORT=do_nothing sorts/do_nothing158457347.c simpleMain.c -o do_nothing1962153576
	sim-cache -cache:dl1 dl1:256:32:1:l -cache:dl2 dl2:131072:32:1:l -cache:il1 il1:256:32:1:l -cache:il2 dl2 do_nothing1962153576
	sim-cache -cache:dl1 dl1:256:32:1:l -cache:dl2 dl2:65536:32:1:l -cache:il1 il1:256:32:1:l -cache:il2 dl2 do_nothing1962153576
	sim-cache -cache:dl1 dl1:1:32:256:l -cache:dl2 dl2:1:32:131072:l -cache:il1 il1:1:32:256:l -cache:il2 dl2 do_nothing1962153576
	sim-cache -cache:dl1 dl1:1:32:256:l -cache:dl2 dl2:1:32:65536:l -cache:il1 il1:1:32:256:l -cache:il2 dl2 do_nothing1962153576
	sim-bpred -bpred bimod -bpred:bimod 512 do_nothing1962153576
	sim-bpred -bpred bimod -bpred:bimod 1024 do_nothing1962153576
	sim-bpred -bpred bimod -bpred:bimod 2048 do_nothing1962153576
	sim-bpred -bpred 2lev -bpred:2lev 1 512 10 1 do_nothing1962153576
	sim-bpred -bpred 2lev -bpred:2lev 1 1024 10 1 do_nothing1962153576
	sim-bpred -bpred 2lev -bpred:2lev 1 2048 10 1 do_nothing1962153576
	sim-bpred -bpred 2lev -bpred:2lev 1 4096 10 1 do_nothing1962153576
	sslittle-na-sstrix-gcc -Wall -O3 -funroll-loops -finline-functions  -DRANDOM_SIZE=65536 -DOFFSET=9 -DSORT=do_nothing sorts/do_nothing158457347.c simpleMain.c -o do_nothing1962153576
	sim-cache -cache:dl1 dl1:256:32:1:l -cache:dl2 dl2:131072:32:1:l -cache:il1 il1:256:32:1:l -cache:il2 dl2 do_nothing1962153576
	sim-cache -cache:dl1 dl1:256:32:1:l -cache:dl2 dl2:65536:32:1:l -cache:il1 il1:256:32:1:l -cache:il2 dl2 do_nothing1962153576
	sim-cache -cache:dl1 dl1:1:32:256:l -cache:dl2 dl2:1:32:131072:l -cache:il1 il1:1:32:256:l -cache:il2 dl2 do_nothing1962153576
	sim-cache -cache:dl1 dl1:1:32:256:l -cache:dl2 dl2:1:32:65536:l -cache:il1 il1:1:32:256:l -cache:il2 dl2 do_nothing1962153576
	sim-bpred -bpred bimod -bpred:bimod 512 do_nothing1962153576
	sim-bpred -bpred bimod -bpred:bimod 1024 do_nothing1962153576
	sim-bpred -bpred bimod -bpred:bimod 2048 do_nothing1962153576
	sim-bpred -bpred 2lev -bpred:2lev 1 512 10 1 do_nothing1962153576
	sim-bpred -bpred 2lev -bpred:2lev 1 1024 10 1 do_nothing1962153576
	sim-bpred -bpred 2lev -bpred:2lev 1 2048 10 1 do_nothing1962153576
	sim-bpred -bpred 2lev -bpred:2lev 1 4096 10 1 do_nothing1962153576
	sslittle-na-sstrix-gcc -Wall -O3 -funroll-loops -finline-functions  -DRANDOM_SIZE=131072 -DOFFSET=9 -DSORT=do_nothing sorts/do_nothing158457347.c simpleMain.c -o do_nothing1962153576
	sim-cache -cache:dl1 dl1:256:32:1:l -cache:dl2 dl2:131072:32:1:l -cache:il1 il1:256:32:1:l -cache:il2 dl2 do_nothing1962153576
	sim-cache -cache:dl1 dl1:256:32:1:l -cache:dl2 dl2:65536:32:1:l -cache:il1 il1:256:32:1:l -cache:il2 dl2 do_nothing1962153576
	sim-cache -cache:dl1 dl1:1:32:256:l -cache:dl2 dl2:1:32:131072:l -cache:il1 il1:1:32:256:l -cache:il2 dl2 do_nothing1962153576
	sim-cache -cache:dl1 dl1:1:32:256:l -cache:dl2 dl2:1:32:65536:l -cache:il1 il1:1:32:256:l -cache:il2 dl2 do_nothing1962153576
	sim-bpred -bpred bimod -bpred:bimod 512 do_nothing1962153576
	sim-bpred -bpred bimod -bpred:bimod 1024 do_nothing1962153576
	sim-bpred -bpred bimod -bpred:bimod 2048 do_nothing1962153576
	sim-bpred -bpred 2lev -bpred:2lev 1 512 10 1 do_nothing1962153576
	sim-bpred -bpred 2lev -bpred:2lev 1 1024 10 1 do_nothing1962153576
	sim-bpred -bpred 2lev -bpred:2lev 1 2048 10 1 do_nothing1962153576
	sim-bpred -bpred 2lev -bpred:2lev 1 4096 10 1 do_nothing1962153576
	sslittle-na-sstrix-gcc -Wall -O3 -funroll-loops -finline-functions  -DRANDOM_SIZE=262144 -DOFFSET=9 -DSORT=do_nothing sorts/do_nothing158457347.c simpleMain.c -o do_nothing1962153576
	sim-cache -cache:dl1 dl1:256:32:1:l -cache:dl2 dl2:131072:32:1:l -cache:il1 il1:256:32:1:l -cache:il2 dl2 do_nothing1962153576
	sim-cache -cache:dl1 dl1:256:32:1:l -cache:dl2 dl2:65536:32:1:l -cache:il1 il1:256:32:1:l -cache:il2 dl2 do_nothing1962153576
	sim-cache -cache:dl1 dl1:1:32:256:l -cache:dl2 dl2:1:32:131072:l -cache:il1 il1:1:32:256:l -cache:il2 dl2 do_nothing1962153576
	sim-cache -cache:dl1 dl1:1:32:256:l -cache:dl2 dl2:1:32:65536:l -cache:il1 il1:1:32:256:l -cache:il2 dl2 do_nothing1962153576
	sim-bpred -bpred bimod -bpred:bimod 512 do_nothing1962153576
	sim-bpred -bpred bimod -bpred:bimod 1024 do_nothing1962153576
	sim-bpred -bpred bimod -bpred:bimod 2048 do_nothing1962153576
	sim-bpred -bpred 2lev -bpred:2lev 1 512 10 1 do_nothing1962153576
	sim-bpred -bpred 2lev -bpred:2lev 1 1024 10 1 do_nothing1962153576
	sim-bpred -bpred 2lev -bpred:2lev 1 2048 10 1 do_nothing1962153576
	sim-bpred -bpred 2lev -bpred:2lev 1 4096 10 1 do_nothing1962153576
	sslittle-na-sstrix-gcc -Wall -O3 -funroll-loops -finline-functions  -DRANDOM_SIZE=524288 -DOFFSET=9 -DSORT=do_nothing sorts/do_nothing158457347.c simpleMain.c -o do_nothing1962153576
	sim-cache -cache:dl1 dl1:256:32:1:l -cache:dl2 dl2:131072:32:1:l -cache:il1 il1:256:32:1:l -cache:il2 dl2 do_nothing1962153576
	sim-cache -cache:dl1 dl1:256:32:1:l -cache:dl2 dl2:65536:32:1:l -cache:il1 il1:256:32:1:l -cache:il2 dl2 do_nothing1962153576
	sim-cache -cache:dl1 dl1:1:32:256:l -cache:dl2 dl2:1:32:131072:l -cache:il1 il1:1:32:256:l -cache:il2 dl2 do_nothing1962153576
	sim-cache -cache:dl1 dl1:1:32:256:l -cache:dl2 dl2:1:32:65536:l -cache:il1 il1:1:32:256:l -cache:il2 dl2 do_nothing1962153576
	sim-bpred -bpred bimod -bpred:bimod 512 do_nothing1962153576
	sim-bpred -bpred bimod -bpred:bimod 1024 do_nothing1962153576
	sim-bpred -bpred bimod -bpred:bimod 2048 do_nothing1962153576
	sim-bpred -bpred 2lev -bpred:2lev 1 512 10 1 do_nothing1962153576
	sim-bpred -bpred 2lev -bpred:2lev 1 1024 10 1 do_nothing1962153576
	sim-bpred -bpred 2lev -bpred:2lev 1 2048 10 1 do_nothing1962153576
	sim-bpred -bpred 2lev -bpred:2lev 1 4096 10 1 do_nothing1962153576
	sslittle-na-sstrix-gcc -Wall -O3 -funroll-loops -finline-functions  -DRANDOM_SIZE=1048576 -DOFFSET=9 -DSORT=do_nothing sorts/do_nothing158457347.c simpleMain.c -o do_nothing1962153576
	sim-cache -cache:dl1 dl1:256:32:1:l -cache:dl2 dl2:131072:32:1:l -cache:il1 il1:256:32:1:l -cache:il2 dl2 do_nothing1962153576
	sim-cache -cache:dl1 dl1:256:32:1:l -cache:dl2 dl2:65536:32:1:l -cache:il1 il1:256:32:1:l -cache:il2 dl2 do_nothing1962153576
	sim-cache -cache:dl1 dl1:1:32:256:l -cache:dl2 dl2:1:32:131072:l -cache:il1 il1:1:32:256:l -cache:il2 dl2 do_nothing1962153576
	sim-cache -cache:dl1 dl1:1:32:256:l -cache:dl2 dl2:1:32:65536:l -cache:il1 il1:1:32:256:l -cache:il2 dl2 do_nothing1962153576
	sim-bpred -bpred bimod -bpred:bimod 512 do_nothing1962153576
	sim-bpred -bpred bimod -bpred:bimod 1024 do_nothing1962153576
	sim-bpred -bpred bimod -bpred:bimod 2048 do_nothing1962153576
	sim-bpred -bpred 2lev -bpred:2lev 1 512 10 1 do_nothing1962153576
	sim-bpred -bpred 2lev -bpred:2lev 1 1024 10 1 do_nothing1962153576
	sim-bpred -bpred 2lev -bpred:2lev 1 2048 10 1 do_nothing1962153576
	sim-bpred -bpred 2lev -bpred:2lev 1 4096 10 1 do_nothing1962153576
	sslittle-na-sstrix-gcc -Wall -O3 -funroll-loops -finline-functions  -DRANDOM_SIZE=2097152 -DOFFSET=9 -DSORT=do_nothing sorts/do_nothing158457347.c simpleMain.c -o do_nothing1962153576
	sim-cache -cache:dl1 dl1:256:32:1:l -cache:dl2 dl2:131072:32:1:l -cache:il1 il1:256:32:1:l -cache:il2 dl2 do_nothing1962153576
	sim-cache -cache:dl1 dl1:256:32:1:l -cache:dl2 dl2:65536:32:1:l -cache:il1 il1:256:32:1:l -cache:il2 dl2 do_nothing1962153576
	sim-cache -cache:dl1 dl1:1:32:256:l -cache:dl2 dl2:1:32:131072:l -cache:il1 il1:1:32:256:l -cache:il2 dl2 do_nothing1962153576
	sim-cache -cache:dl1 dl1:1:32:256:l -cache:dl2 dl2:1:32:65536:l -cache:il1 il1:1:32:256:l -cache:il2 dl2 do_nothing1962153576
	sim-bpred -bpred bimod -bpred:bimod 512 do_nothing1962153576
	sim-bpred -bpred bimod -bpred:bimod 1024 do_nothing1962153576
	sim-bpred -bpred bimod -bpred:bimod 2048 do_nothing1962153576
	sim-bpred -bpred 2lev -bpred:2lev 1 512 10 1 do_nothing1962153576
	sim-bpred -bpred 2lev -bpred:2lev 1 1024 10 1 do_nothing1962153576
	sim-bpred -bpred 2lev -bpred:2lev 1 2048 10 1 do_nothing1962153576
	sim-bpred -bpred 2lev -bpred:2lev 1 4096 10 1 do_nothing1962153576
	sslittle-na-sstrix-gcc -Wall -O3 -funroll-loops -finline-functions  -DRANDOM_SIZE=4194304 -DOFFSET=9 -DSORT=do_nothing sorts/do_nothing158457347.c simpleMain.c -o do_nothing1962153576
	sim-cache -cache:dl1 dl1:256:32:1:l -cache:dl2 dl2:131072:32:1:l -cache:il1 il1:256:32:1:l -cache:il2 dl2 do_nothing1962153576
	sim-cache -cache:dl1 dl1:256:32:1:l -cache:dl2 dl2:65536:32:1:l -cache:il1 il1:256:32:1:l -cache:il2 dl2 do_nothing1962153576
	sim-cache -cache:dl1 dl1:1:32:256:l -cache:dl2 dl2:1:32:131072:l -cache:il1 il1:1:32:256:l -cache:il2 dl2 do_nothing1962153576
	sim-cache -cache:dl1 dl1:1:32:256:l -cache:dl2 dl2:1:32:65536:l -cache:il1 il1:1:32:256:l -cache:il2 dl2 do_nothing1962153576
	sim-bpred -bpred bimod -bpred:bimod 512 do_nothing1962153576
	sim-bpred -bpred bimod -bpred:bimod 1024 do_nothing1962153576
	sim-bpred -bpred bimod -bpred:bimod 2048 do_nothing1962153576
	sim-bpred -bpred 2lev -bpred:2lev 1 512 10 1 do_nothing1962153576
	sim-bpred -bpred 2lev -bpred:2lev 1 1024 10 1 do_nothing1962153576
	sim-bpred -bpred 2lev -bpred:2lev 1 2048 10 1 do_nothing1962153576
	sim-bpred -bpred 2lev -bpred:2lev 1 4096 10 1 do_nothing1962153576
