Thu Aug  4 20:48:08 2005
Run as: "./do_simple -c random.org9 -o 9 double_multi_mergesort"
-------------------------------------------------------------------------------------------------
sim-cache                                     4096 |         4096 |         4096 |         4096 |         8192 |         8192 |         8192 |         8192 |        16384 |        16384 |        16384 |        16384 |        32768 |        32768 |        32768 |        32768 |        65536 |        65536 |        65536 |        65536 |       131072 |       131072 |       131072 |       131072 |       262144 |       262144 |       262144 |       262144 |       524288 |       524288 |       524288 |       524288 |      1048576 |      1048576 |      1048576 |      1048576 |      2097152 |      2097152 |      2097152 |      2097152 |      4194304 |      4194304 |      4194304 |      4194304 |
-cache:dl1 dl1:256:32:1:l -cache:dl2 dl2:131072:32:1:l -cache:il1 il1:256:32:1:l -cache:il2 dl2
-cache:dl1 dl1:256:32:1:l -cache:dl2 dl2:65536:32:1:l -cache:il1 il1:256:32:1:l -cache:il2 dl2
-cache:dl1 dl1:1:32:256:l -cache:dl2 dl2:1:32:131072:l -cache:il1 il1:1:32:256:l -cache:il2 dl2
-cache:dl1 dl1:1:32:256:l -cache:dl2 dl2:1:32:65536:l -cache:il1 il1:1:32:256:l -cache:il2 dl2
-------------------------------------------------------------------------------------------------
sim_num_insn                                857919 |       857919 |       857919 |       857919 |      1750880 |      1750880 |      1750880 |      1750880 |      3962497 |      3962497 |      3962497 |      3962497 |      8068967 |      8068967 |      8068967 |      8068967 |     17987154 |     17987154 |     17987154 |     17987154 |     36574803 |     36574803 |     36574803 |     36574803 |     77471343 |     77471343 |     77471343 |     77471343 |    223414427 |    223414427 |    223414427 |    223414427 |    473237354 |    473237354 |    473237354 |    473237354 |   1035748377 |   1035748377 |   1035748377 |   1035748377 |   2186646747 |   2186646747 |   2186646747 |   2186646747 |
sim_num_refs                                228576 |       228576 |       228576 |       228576 |       472074 |       472074 |       472074 |       472074 |      1052239 |      1052239 |      1052239 |      1052239 |      2172201 |      2172201 |      2172201 |      2172201 |      4785825 |      4785825 |      4785825 |      4785825 |      9855699 |      9855699 |      9855699 |      9855699 |     20887504 |     20887504 |     20887504 |     20887504 |     60950235 |     60950235 |     60950235 |     60950235 |    130168141 |    130168141 |    130168141 |    130168141 |    283196899 |    283196899 |    283196899 |    283196899 |    604301923 |    604301923 |    604301923 |    604301923 |
sim_elapsed_time                                 1 |            1 |           10 |            5 |            1 |            1 |           16 |            8 |            1 |            1 |           26 |           14 |            2 |            2 |           47 |           24 |            5 |            5 |           88 |           44 |            9 |           10 |          163 |           76 |           20 |           21 |          280 |          108 |           60 |           60 |          404 |          149 |          126 |          127 |          475 |          220 |          277 |          273 |          633 |          383 |          583 |          582 |          960 |          716 |
sim_inst_rate                          857919.0000 |  857919.0000 |   85791.9000 |  171583.8000 | 1750880.0000 | 1750880.0000 |  109430.0000 |  218860.0000 | 3962497.0000 | 3962497.0000 |  152403.7308 |  283035.5000 | 4034483.5000 | 4034483.5000 |  171680.1489 |  336206.9583 | 3597430.8000 | 3597430.8000 |  204399.4773 |  408798.9545 | 4063867.0000 | 3657480.3000 |  224385.2945 |  481247.4079 | 3873567.1500 | 3689111.5714 |  276683.3679 |  717327.2500 | 3723573.7833 | 3723573.7833 |  553006.0074 | 1499425.6846 | 3755852.0159 | 3726278.3780 |  996289.1663 | 2151078.8818 | 3739163.8159 | 3793950.0989 | 1636253.3602 | 2704303.8564 | 3750680.5266 | 3757124.9948 | 2277757.0281 | 3053975.9036 |
il1.accesses                                857919 |       857919 |       857919 |       857919 |      1750880 |      1750880 |      1750880 |      1750880 |      3962497 |      3962497 |      3962497 |      3962497 |      8068967 |      8068967 |      8068967 |      8068967 |     17987154 |     17987154 |     17987154 |     17987154 |     36574803 |     36574803 |     36574803 |     36574803 |     77471343 |     77471343 |     77471343 |     77471343 |    223414427 |    223414427 |    223414427 |    223414427 |    473237354 |    473237354 |    473237354 |    473237354 |   1035748377 |   1035748377 |   1035748377 |   1035748377 |   2186646747 |   2186646747 |   2186646747 |   2186646747 |
il1.hits                                    857236 |       857236 |       857341 |       857341 |      1750152 |      1750152 |      1750281 |      1750281 |      3961752 |      3961752 |      3961921 |      3961921 |      8068090 |      8068090 |      8068364 |      8068364 |     17986107 |     17986107 |     17986570 |     17986570 |     36573350 |     36573350 |     36574200 |     36574200 |     77469632 |     77469632 |     77470743 |     77470743 |    222102697 |    222102697 |    223413536 |    223413536 |    470614852 |    470614852 |    473236417 |    473236417 |   1030504444 |   1030504444 |   1035747458 |   1035747458 |   2176159901 |   2176159901 |   2186645810 |   2186645810 |
il1.misses                                     683 |          683 |          578 |          578 |          728 |          728 |          599 |          599 |          745 |          745 |          576 |          576 |          877 |          877 |          603 |          603 |         1047 |         1047 |          584 |          584 |         1453 |         1453 |          603 |          603 |         1711 |         1711 |          600 |          600 |      1311730 |      1311730 |          891 |          891 |      2622502 |      2622502 |          937 |          937 |      5243933 |      5243933 |          919 |          919 |     10486846 |     10486846 |          937 |          937 |
il1.replacements                               449 |          449 |          322 |          322 |          492 |          492 |          343 |          343 |          510 |          510 |          320 |          320 |          641 |          641 |          347 |          347 |          812 |          812 |          328 |          328 |         1217 |         1217 |          347 |          347 |         1474 |         1474 |          344 |          344 |      1311474 |      1311474 |          635 |          635 |      2622246 |      2622246 |          681 |          681 |      5243677 |      5243677 |          663 |          663 |     10486590 |     10486590 |          681 |          681 |
il1.writebacks                                   0 |            0 |            0 |            0 |            0 |            0 |            0 |            0 |            0 |            0 |            0 |            0 |            0 |            0 |            0 |            0 |            0 |            0 |            0 |            0 |            0 |            0 |            0 |            0 |            0 |            0 |            0 |            0 |            0 |            0 |            0 |            0 |            0 |            0 |            0 |            0 |            0 |            0 |            0 |            0 |            0 |            0 |            0 |            0 |
il1.invalidations                                0 |            0 |            0 |            0 |            0 |            0 |            0 |            0 |            0 |            0 |            0 |            0 |            0 |            0 |            0 |            0 |            0 |            0 |            0 |            0 |            0 |            0 |            0 |            0 |            0 |            0 |            0 |            0 |            0 |            0 |            0 |            0 |            0 |            0 |            0 |            0 |            0 |            0 |            0 |            0 |            0 |            0 |            0 |            0 |
il1.miss_rate                               0.0008 |       0.0008 |       0.0007 |       0.0007 |       0.0004 |       0.0004 |       0.0003 |       0.0003 |       0.0002 |       0.0002 |       0.0001 |       0.0001 |       0.0001 |       0.0001 |       0.0001 |       0.0001 |       0.0001 |       0.0001 |       0.0000 |       0.0000 |       0.0000 |       0.0000 |       0.0000 |       0.0000 |       0.0000 |       0.0000 |       0.0000 |       0.0000 |       0.0059 |       0.0059 |       0.0000 |       0.0000 |       0.0055 |       0.0055 |       0.0000 |       0.0000 |       0.0051 |       0.0051 |       0.0000 |       0.0000 |       0.0048 |       0.0048 |       0.0000 |       0.0000 |
il1.repl_rate                               0.0005 |       0.0005 |       0.0004 |       0.0004 |       0.0003 |       0.0003 |       0.0002 |       0.0002 |       0.0001 |       0.0001 |       0.0001 |       0.0001 |       0.0001 |       0.0001 |       0.0000 |       0.0000 |       0.0000 |       0.0000 |       0.0000 |       0.0000 |       0.0000 |       0.0000 |       0.0000 |       0.0000 |       0.0000 |       0.0000 |       0.0000 |       0.0000 |       0.0059 |       0.0059 |       0.0000 |       0.0000 |       0.0055 |       0.0055 |       0.0000 |       0.0000 |       0.0051 |       0.0051 |       0.0000 |       0.0000 |       0.0048 |       0.0048 |       0.0000 |       0.0000 |
il1.wb_rate                                 0.0000 |       0.0000 |       0.0000 |       0.0000 |       0.0000 |       0.0000 |       0.0000 |       0.0000 |       0.0000 |       0.0000 |       0.0000 |       0.0000 |       0.0000 |       0.0000 |       0.0000 |       0.0000 |       0.0000 |       0.0000 |       0.0000 |       0.0000 |       0.0000 |       0.0000 |       0.0000 |       0.0000 |       0.0000 |       0.0000 |       0.0000 |       0.0000 |       0.0000 |       0.0000 |       0.0000 |       0.0000 |       0.0000 |       0.0000 |       0.0000 |       0.0000 |       0.0000 |       0.0000 |       0.0000 |       0.0000 |       0.0000 |       0.0000 |       0.0000 |       0.0000 |
il1.inv_rate                                0.0000 |       0.0000 |       0.0000 |       0.0000 |       0.0000 |       0.0000 |       0.0000 |       0.0000 |       0.0000 |       0.0000 |       0.0000 |       0.0000 |       0.0000 |       0.0000 |       0.0000 |       0.0000 |       0.0000 |       0.0000 |       0.0000 |       0.0000 |       0.0000 |       0.0000 |       0.0000 |       0.0000 |       0.0000 |       0.0000 |       0.0000 |       0.0000 |       0.0000 |       0.0000 |       0.0000 |       0.0000 |       0.0000 |       0.0000 |       0.0000 |       0.0000 |       0.0000 |       0.0000 |       0.0000 |       0.0000 |       0.0000 |       0.0000 |       0.0000 |       0.0000 |
dl1.accesses                                245042 |       245042 |       245042 |       245042 |       504924 |       504924 |       504924 |       504924 |      1117857 |      1117857 |      1117857 |      1117857 |      2303355 |      2303355 |      2303355 |      2303355 |      5048051 |      5048051 |      5048051 |      5048051 |     10380069 |     10380069 |     10380069 |     10380069 |     21936162 |     21936162 |     21936162 |     21936162 |     63047469 |     63047469 |     63047469 |     63047469 |    134362527 |    134362527 |    134362527 |    134362527 |    291585589 |    291585589 |    291585589 |    291585589 |    621079221 |    621079221 |    621079221 |    621079221 |
dl1.hits                                    239609 |       239609 |       238080 |       238080 |       492342 |       492342 |       490708 |       490708 |      1088516 |      1088516 |      1083257 |      1083257 |      2236372 |      2236372 |      2231568 |      2231568 |      4896126 |      4896126 |      4878352 |      4878352 |     10040853 |     10040853 |     10028703 |     10028703 |     21185607 |     21185607 |     21168432 |     21168432 |     61242207 |     61242207 |     61298911 |     61298911 |    130746017 |    130746017 |    131029791 |    131029791 |    284335198 |    284335198 |    284597171 |    284597171 |    606532910 |    606532910 |    607750971 |    607750971 |
dl1.misses                                    5433 |         5433 |         6962 |         6962 |        12582 |        12582 |        14216 |        14216 |        29341 |        29341 |        34600 |        34600 |        66983 |        66983 |        71787 |        71787 |       151925 |       151925 |       169699 |       169699 |       339216 |       339216 |       351366 |       351366 |       750555 |       750555 |       767730 |       767730 |      1805262 |      1805262 |      1748558 |      1748558 |      3616510 |      3616510 |      3332736 |      3332736 |      7250391 |      7250391 |      6988418 |      6988418 |     14546311 |     14546311 |     13328250 |     13328250 |
dl1.replacements                              5177 |         5177 |         6706 |         6706 |        12326 |        12326 |        13960 |        13960 |        29085 |        29085 |        34344 |        34344 |        66727 |        66727 |        71531 |        71531 |       151669 |       151669 |       169443 |       169443 |       338960 |       338960 |       351110 |       351110 |       750299 |       750299 |       767474 |       767474 |      1805006 |      1805006 |      1748302 |      1748302 |      3616254 |      3616254 |      3332480 |      3332480 |      7250135 |      7250135 |      6988162 |      6988162 |     14546055 |     14546055 |     13327994 |     13327994 |
dl1.writebacks                                3498 |         3498 |         5065 |         5065 |         7770 |         7770 |         9788 |         9788 |        17444 |        17444 |        23381 |        23381 |        38814 |        38814 |        46380 |        46380 |        86038 |        86038 |       108988 |       108988 |       188960 |       188960 |       217400 |       217400 |       411842 |       411842 |       467172 |       467172 |      1045388 |      1045388 |      1067323 |      1067323 |      2095281 |      2095281 |      1999590 |      1999590 |      4211893 |      4211893 |      4266088 |      4266088 |      8458003 |      8458003 |      7997873 |      7997873 |
dl1.invalidations                                0 |            0 |            0 |            0 |            0 |            0 |            0 |            0 |            0 |            0 |            0 |            0 |            0 |            0 |            0 |            0 |            0 |            0 |            0 |            0 |            0 |            0 |            0 |            0 |            0 |            0 |            0 |            0 |            0 |            0 |            0 |            0 |            0 |            0 |            0 |            0 |            0 |            0 |            0 |            0 |            0 |            0 |            0 |            0 |
dl1.miss_rate                               0.0222 |       0.0222 |       0.0284 |       0.0284 |       0.0249 |       0.0249 |       0.0282 |       0.0282 |       0.0262 |       0.0262 |       0.0310 |       0.0310 |       0.0291 |       0.0291 |       0.0312 |       0.0312 |       0.0301 |       0.0301 |       0.0336 |       0.0336 |       0.0327 |       0.0327 |       0.0339 |       0.0339 |       0.0342 |       0.0342 |       0.0350 |       0.0350 |       0.0286 |       0.0286 |       0.0277 |       0.0277 |       0.0269 |       0.0269 |       0.0248 |       0.0248 |       0.0249 |       0.0249 |       0.0240 |       0.0240 |       0.0234 |       0.0234 |       0.0215 |       0.0215 |
dl1.repl_rate                               0.0211 |       0.0211 |       0.0274 |       0.0274 |       0.0244 |       0.0244 |       0.0276 |       0.0276 |       0.0260 |       0.0260 |       0.0307 |       0.0307 |       0.0290 |       0.0290 |       0.0311 |       0.0311 |       0.0300 |       0.0300 |       0.0336 |       0.0336 |       0.0327 |       0.0327 |       0.0338 |       0.0338 |       0.0342 |       0.0342 |       0.0350 |       0.0350 |       0.0286 |       0.0286 |       0.0277 |       0.0277 |       0.0269 |       0.0269 |       0.0248 |       0.0248 |       0.0249 |       0.0249 |       0.0240 |       0.0240 |       0.0234 |       0.0234 |       0.0215 |       0.0215 |
dl1.wb_rate                                 0.0143 |       0.0143 |       0.0207 |       0.0207 |       0.0154 |       0.0154 |       0.0194 |       0.0194 |       0.0156 |       0.0156 |       0.0209 |       0.0209 |       0.0169 |       0.0169 |       0.0201 |       0.0201 |       0.0170 |       0.0170 |       0.0216 |       0.0216 |       0.0182 |       0.0182 |       0.0209 |       0.0209 |       0.0188 |       0.0188 |       0.0213 |       0.0213 |       0.0166 |       0.0166 |       0.0169 |       0.0169 |       0.0156 |       0.0156 |       0.0149 |       0.0149 |       0.0144 |       0.0144 |       0.0146 |       0.0146 |       0.0136 |       0.0136 |       0.0129 |       0.0129 |
dl1.inv_rate                                0.0000 |       0.0000 |       0.0000 |       0.0000 |       0.0000 |       0.0000 |       0.0000 |       0.0000 |       0.0000 |       0.0000 |       0.0000 |       0.0000 |       0.0000 |       0.0000 |       0.0000 |       0.0000 |       0.0000 |       0.0000 |       0.0000 |       0.0000 |       0.0000 |       0.0000 |       0.0000 |       0.0000 |       0.0000 |       0.0000 |       0.0000 |       0.0000 |       0.0000 |       0.0000 |       0.0000 |       0.0000 |       0.0000 |       0.0000 |       0.0000 |       0.0000 |       0.0000 |       0.0000 |       0.0000 |       0.0000 |       0.0000 |       0.0000 |       0.0000 |       0.0000 |
dl2.accesses                                  9614 |         9614 |        12605 |        12605 |        21080 |        21080 |        24603 |        24603 |        47530 |        47530 |        58557 |        58557 |       106674 |       106674 |       118770 |       118770 |       239010 |       239010 |       279271 |       279271 |       529629 |       529629 |       569369 |       569369 |      1164108 |      1164108 |      1235502 |      1235502 |      4162380 |      4162380 |      2816772 |      2816772 |      8334293 |      8334293 |      5333263 |      5333263 |     16706217 |     16706217 |     11255425 |     11255425 |     33491160 |     33491160 |     21327060 |     21327060 |
dl2.hits                                      7578 |         7578 |        10640 |        10640 |        17979 |        17979 |        21597 |        21597 |        42424 |        42424 |        53525 |        53525 |        97426 |        97426 |       109617 |       109617 |       221608 |       221608 |       261943 |       261943 |       495805 |       495805 |       535640 |       535640 |      1097528 |      1094945 |      1169009 |      1132346 |      3974745 |      3869820 |      2647513 |      2425330 |      7740695 |      7670607 |      4686081 |      4553740 |     15374635 |     15374094 |      9945995 |      9699719 |     30828314 |     30827238 |     18703036 |     18217860 |
dl2.misses                                    2036 |         2036 |         1965 |         1965 |         3101 |         3101 |         3006 |         3006 |         5106 |         5106 |         5032 |         5032 |         9248 |         9248 |         9153 |         9153 |        17402 |        17402 |        17328 |        17328 |        33824 |        33824 |        33729 |        33729 |        66580 |        69163 |        66493 |       103156 |       187635 |       292560 |       169259 |       391442 |       593598 |       663686 |       647182 |       779523 |      1331582 |      1332123 |      1309430 |      1555706 |      2662846 |      2663922 |      2624024 |      3109200 |
dl2.replacements                               231 |          231 |            0 |            0 |          271 |          271 |            0 |            0 |          235 |          235 |            0 |            0 |          272 |          272 |            0 |            0 |          235 |          235 |            0 |            0 |          272 |          272 |            0 |            0 |          256 |         3743 |            0 |        37620 |        87750 |       227024 |        38187 |       325906 |       462526 |       598150 |       516110 |       713987 |      1200510 |      1266587 |      1178358 |      1490170 |      2531774 |      2598386 |      2492952 |      3043664 |
dl2.writebacks                                 104 |          104 |            0 |            0 |          106 |          106 |            0 |            0 |          108 |          108 |            0 |            0 |          107 |          107 |            0 |            0 |          108 |          108 |            0 |            0 |          107 |          107 |            0 |            0 |           97 |         2231 |            0 |        37175 |        87489 |       190813 |        37358 |       292045 |       393656 |       478206 |       460429 |       614471 |       959924 |      1001799 |       985375 |      1259433 |      2004900 |      2058956 |      2035345 |      2550477 |
dl2.invalidations                                0 |            0 |            0 |            0 |            0 |            0 |            0 |            0 |            0 |            0 |            0 |            0 |            0 |            0 |            0 |            0 |            0 |            0 |            0 |            0 |            0 |            0 |            0 |            0 |            0 |            0 |            0 |            0 |            0 |            0 |            0 |            0 |            0 |            0 |            0 |            0 |            0 |            0 |            0 |            0 |            0 |            0 |            0 |            0 |
dl2.miss_rate                               0.2118 |       0.2118 |       0.1559 |       0.1559 |       0.1471 |       0.1471 |       0.1222 |       0.1222 |       0.1074 |       0.1074 |       0.0859 |       0.0859 |       0.0867 |       0.0867 |       0.0771 |       0.0771 |       0.0728 |       0.0728 |       0.0620 |       0.0620 |       0.0639 |       0.0639 |       0.0592 |       0.0592 |       0.0572 |       0.0594 |       0.0538 |       0.0835 |       0.0451 |       0.0703 |       0.0601 |       0.1390 |       0.0712 |       0.0796 |       0.1213 |       0.1462 |       0.0797 |       0.0797 |       0.1163 |       0.1382 |       0.0795 |       0.0795 |       0.1230 |       0.1458 |
dl2.repl_rate                               0.0240 |       0.0240 |       0.0000 |       0.0000 |       0.0129 |       0.0129 |       0.0000 |       0.0000 |       0.0049 |       0.0049 |       0.0000 |       0.0000 |       0.0025 |       0.0025 |       0.0000 |       0.0000 |       0.0010 |       0.0010 |       0.0000 |       0.0000 |       0.0005 |       0.0005 |       0.0000 |       0.0000 |       0.0002 |       0.0032 |       0.0000 |       0.0304 |       0.0211 |       0.0545 |       0.0136 |       0.1157 |       0.0555 |       0.0718 |       0.0968 |       0.1339 |       0.0719 |       0.0758 |       0.1047 |       0.1324 |       0.0756 |       0.0776 |       0.1169 |       0.1427 |
dl2.wb_rate                                 0.0108 |       0.0108 |       0.0000 |       0.0000 |       0.0050 |       0.0050 |       0.0000 |       0.0000 |       0.0023 |       0.0023 |       0.0000 |       0.0000 |       0.0010 |       0.0010 |       0.0000 |       0.0000 |       0.0005 |       0.0005 |       0.0000 |       0.0000 |       0.0002 |       0.0002 |       0.0000 |       0.0000 |       0.0001 |       0.0019 |       0.0000 |       0.0301 |       0.0210 |       0.0458 |       0.0133 |       0.1037 |       0.0472 |       0.0574 |       0.0863 |       0.1152 |       0.0575 |       0.0600 |       0.0875 |       0.1119 |       0.0599 |       0.0615 |       0.0954 |       0.1196 |
dl2.inv_rate                                0.0000 |       0.0000 |       0.0000 |       0.0000 |       0.0000 |       0.0000 |       0.0000 |       0.0000 |       0.0000 |       0.0000 |       0.0000 |       0.0000 |       0.0000 |       0.0000 |       0.0000 |       0.0000 |       0.0000 |       0.0000 |       0.0000 |       0.0000 |       0.0000 |       0.0000 |       0.0000 |       0.0000 |       0.0000 |       0.0000 |       0.0000 |       0.0000 |       0.0000 |       0.0000 |       0.0000 |       0.0000 |       0.0000 |       0.0000 |       0.0000 |       0.0000 |       0.0000 |       0.0000 |       0.0000 |       0.0000 |       0.0000 |       0.0000 |       0.0000 |       0.0000 |
itlb.accesses                               857919 |       857919 |       857919 |       857919 |      1750880 |      1750880 |      1750880 |      1750880 |      3962497 |      3962497 |      3962497 |      3962497 |      8068967 |      8068967 |      8068967 |      8068967 |     17987154 |     17987154 |     17987154 |     17987154 |     36574803 |     36574803 |     36574803 |     36574803 |     77471343 |     77471343 |     77471343 |     77471343 |    223414427 |    223414427 |    223414427 |    223414427 |    473237354 |    473237354 |    473237354 |    473237354 |   1035748377 |   1035748377 |   1035748377 |   1035748377 |   2186646747 |   2186646747 |   2186646747 |   2186646747 |
itlb.hits                                   857905 |       857905 |       857905 |       857905 |      1750866 |      1750866 |      1750866 |      1750866 |      3962483 |      3962483 |      3962483 |      3962483 |      8068953 |      8068953 |      8068953 |      8068953 |     17987140 |     17987140 |     17987140 |     17987140 |     36574789 |     36574789 |     36574789 |     36574789 |     77471329 |     77471329 |     77471329 |     77471329 |    223414413 |    223414413 |    223414413 |    223414413 |    473237340 |    473237340 |    473237340 |    473237340 |   1035748363 |   1035748363 |   1035748363 |   1035748363 |   2186646733 |   2186646733 |   2186646733 |   2186646733 |
itlb.misses                                     14 |           14 |           14 |           14 |           14 |           14 |           14 |           14 |           14 |           14 |           14 |           14 |           14 |           14 |           14 |           14 |           14 |           14 |           14 |           14 |           14 |           14 |           14 |           14 |           14 |           14 |           14 |           14 |           14 |           14 |           14 |           14 |           14 |           14 |           14 |           14 |           14 |           14 |           14 |           14 |           14 |           14 |           14 |           14 |
itlb.replacements                                0 |            0 |            0 |            0 |            0 |            0 |            0 |            0 |            0 |            0 |            0 |            0 |            0 |            0 |            0 |            0 |            0 |            0 |            0 |            0 |            0 |            0 |            0 |            0 |            0 |            0 |            0 |            0 |            0 |            0 |            0 |            0 |            0 |            0 |            0 |            0 |            0 |            0 |            0 |            0 |            0 |            0 |            0 |            0 |
itlb.writebacks                                  0 |            0 |            0 |            0 |            0 |            0 |            0 |            0 |            0 |            0 |            0 |            0 |            0 |            0 |            0 |            0 |            0 |            0 |            0 |            0 |            0 |            0 |            0 |            0 |            0 |            0 |            0 |            0 |            0 |            0 |            0 |            0 |            0 |            0 |            0 |            0 |            0 |            0 |            0 |            0 |            0 |            0 |            0 |            0 |
itlb.invalidations                               0 |            0 |            0 |            0 |            0 |            0 |            0 |            0 |            0 |            0 |            0 |            0 |            0 |            0 |            0 |            0 |            0 |            0 |            0 |            0 |            0 |            0 |            0 |            0 |            0 |            0 |            0 |            0 |            0 |            0 |            0 |            0 |            0 |            0 |            0 |            0 |            0 |            0 |            0 |            0 |            0 |            0 |            0 |            0 |
itlb.miss_rate                              0.0000 |       0.0000 |       0.0000 |       0.0000 |       0.0000 |       0.0000 |       0.0000 |       0.0000 |       0.0000 |       0.0000 |       0.0000 |       0.0000 |       0.0000 |       0.0000 |       0.0000 |       0.0000 |       0.0000 |       0.0000 |       0.0000 |       0.0000 |       0.0000 |       0.0000 |       0.0000 |       0.0000 |       0.0000 |       0.0000 |       0.0000 |       0.0000 |       0.0000 |       0.0000 |       0.0000 |       0.0000 |       0.0000 |       0.0000 |       0.0000 |       0.0000 |       0.0000 |       0.0000 |       0.0000 |       0.0000 |       0.0000 |       0.0000 |       0.0000 |       0.0000 |
itlb.repl_rate                              0.0000 |       0.0000 |       0.0000 |       0.0000 |       0.0000 |       0.0000 |       0.0000 |       0.0000 |       0.0000 |       0.0000 |       0.0000 |       0.0000 |       0.0000 |       0.0000 |       0.0000 |       0.0000 |       0.0000 |       0.0000 |       0.0000 |       0.0000 |       0.0000 |       0.0000 |       0.0000 |       0.0000 |       0.0000 |       0.0000 |       0.0000 |       0.0000 |       0.0000 |       0.0000 |       0.0000 |       0.0000 |       0.0000 |       0.0000 |       0.0000 |       0.0000 |       0.0000 |       0.0000 |       0.0000 |       0.0000 |       0.0000 |       0.0000 |       0.0000 |       0.0000 |
itlb.wb_rate                                0.0000 |       0.0000 |       0.0000 |       0.0000 |       0.0000 |       0.0000 |       0.0000 |       0.0000 |       0.0000 |       0.0000 |       0.0000 |       0.0000 |       0.0000 |       0.0000 |       0.0000 |       0.0000 |       0.0000 |       0.0000 |       0.0000 |       0.0000 |       0.0000 |       0.0000 |       0.0000 |       0.0000 |       0.0000 |       0.0000 |       0.0000 |       0.0000 |       0.0000 |       0.0000 |       0.0000 |       0.0000 |       0.0000 |       0.0000 |       0.0000 |       0.0000 |       0.0000 |       0.0000 |       0.0000 |       0.0000 |       0.0000 |       0.0000 |       0.0000 |       0.0000 |
itlb.inv_rate                               0.0000 |       0.0000 |       0.0000 |       0.0000 |       0.0000 |       0.0000 |       0.0000 |       0.0000 |       0.0000 |       0.0000 |       0.0000 |       0.0000 |       0.0000 |       0.0000 |       0.0000 |       0.0000 |       0.0000 |       0.0000 |       0.0000 |       0.0000 |       0.0000 |       0.0000 |       0.0000 |       0.0000 |       0.0000 |       0.0000 |       0.0000 |       0.0000 |       0.0000 |       0.0000 |       0.0000 |       0.0000 |       0.0000 |       0.0000 |       0.0000 |       0.0000 |       0.0000 |       0.0000 |       0.0000 |       0.0000 |       0.0000 |       0.0000 |       0.0000 |       0.0000 |
dtlb.accesses                               245042 |       245042 |       245042 |       245042 |       504924 |       504924 |       504924 |       504924 |      1117857 |      1117857 |      1117857 |      1117857 |      2303355 |      2303355 |      2303355 |      2303355 |      5048051 |      5048051 |      5048051 |      5048051 |     10380069 |     10380069 |     10380069 |     10380069 |     21936162 |     21936162 |     21936162 |     21936162 |     63047469 |     63047469 |     63047469 |     63047469 |    134362527 |    134362527 |    134362527 |    134362527 |    291585589 |    291585589 |    291585589 |    291585589 |    621079221 |    621079221 |    621079221 |    621079221 |
dtlb.hits                                   245026 |       245026 |       245026 |       245026 |       504900 |       504900 |       504900 |       504900 |      1117817 |      1117817 |      1117817 |      1117817 |      2303283 |      2303283 |      2303283 |      2303283 |      5047849 |      5047849 |      5047849 |      5047849 |     10377643 |     10377643 |     10377643 |     10377643 |     21930748 |     21930748 |     21930748 |     21930748 |     63035741 |     63035741 |     63035741 |     63035741 |    134339086 |    134339086 |    134339086 |    134339086 |    291520239 |    291520239 |    291520239 |    291520239 |    620617559 |    620617559 |    620617559 |    620617559 |
dtlb.misses                                     16 |           16 |           16 |           16 |           24 |           24 |           24 |           24 |           40 |           40 |           40 |           40 |           72 |           72 |           72 |           72 |          202 |          202 |          202 |          202 |         2426 |         2426 |         2426 |         2426 |         5414 |         5414 |         5414 |         5414 |        11728 |        11728 |        11728 |        11728 |        23441 |        23441 |        23441 |        23441 |        65350 |        65350 |        65350 |        65350 |       461662 |       461662 |       461662 |       461662 |
dtlb.replacements                                0 |            0 |            0 |            0 |            0 |            0 |            0 |            0 |            0 |            0 |            0 |            0 |            0 |            0 |            0 |            0 |           74 |           74 |           74 |           74 |         2298 |         2298 |         2298 |         2298 |         5286 |         5286 |         5286 |         5286 |        11600 |        11600 |        11600 |        11600 |        23313 |        23313 |        23313 |        23313 |        65222 |        65222 |        65222 |        65222 |       461534 |       461534 |       461534 |       461534 |
dtlb.writebacks                                  0 |            0 |            0 |            0 |            0 |            0 |            0 |            0 |            0 |            0 |            0 |            0 |            0 |            0 |            0 |            0 |           49 |           49 |           49 |           49 |         1335 |         1335 |         1335 |         1335 |         3030 |         3030 |         3030 |         3030 |         6579 |         6579 |         6579 |         6579 |        13203 |        13203 |        13203 |        13203 |        26452 |        26452 |        26452 |        26452 |        52937 |        52937 |        52937 |        52937 |
dtlb.invalidations                               0 |            0 |            0 |            0 |            0 |            0 |            0 |            0 |            0 |            0 |            0 |            0 |            0 |            0 |            0 |            0 |            0 |            0 |            0 |            0 |            0 |            0 |            0 |            0 |            0 |            0 |            0 |            0 |            0 |            0 |            0 |            0 |            0 |            0 |            0 |            0 |            0 |            0 |            0 |            0 |            0 |            0 |            0 |            0 |
dtlb.miss_rate                              0.0001 |       0.0001 |       0.0001 |       0.0001 |       0.0000 |       0.0000 |       0.0000 |       0.0000 |       0.0000 |       0.0000 |       0.0000 |       0.0000 |       0.0000 |       0.0000 |       0.0000 |       0.0000 |       0.0000 |       0.0000 |       0.0000 |       0.0000 |       0.0002 |       0.0002 |       0.0002 |       0.0002 |       0.0002 |       0.0002 |       0.0002 |       0.0002 |       0.0002 |       0.0002 |       0.0002 |       0.0002 |       0.0002 |       0.0002 |       0.0002 |       0.0002 |       0.0002 |       0.0002 |       0.0002 |       0.0002 |       0.0007 |       0.0007 |       0.0007 |       0.0007 |
dtlb.repl_rate                              0.0000 |       0.0000 |       0.0000 |       0.0000 |       0.0000 |       0.0000 |       0.0000 |       0.0000 |       0.0000 |       0.0000 |       0.0000 |       0.0000 |       0.0000 |       0.0000 |       0.0000 |       0.0000 |       0.0000 |       0.0000 |       0.0000 |       0.0000 |       0.0002 |       0.0002 |       0.0002 |       0.0002 |       0.0002 |       0.0002 |       0.0002 |       0.0002 |       0.0002 |       0.0002 |       0.0002 |       0.0002 |       0.0002 |       0.0002 |       0.0002 |       0.0002 |       0.0002 |       0.0002 |       0.0002 |       0.0002 |       0.0007 |       0.0007 |       0.0007 |       0.0007 |
dtlb.wb_rate                                0.0000 |       0.0000 |       0.0000 |       0.0000 |       0.0000 |       0.0000 |       0.0000 |       0.0000 |       0.0000 |       0.0000 |       0.0000 |       0.0000 |       0.0000 |       0.0000 |       0.0000 |       0.0000 |       0.0000 |       0.0000 |       0.0000 |       0.0000 |       0.0001 |       0.0001 |       0.0001 |       0.0001 |       0.0001 |       0.0001 |       0.0001 |       0.0001 |       0.0001 |       0.0001 |       0.0001 |       0.0001 |       0.0001 |       0.0001 |       0.0001 |       0.0001 |       0.0001 |       0.0001 |       0.0001 |       0.0001 |       0.0001 |       0.0001 |       0.0001 |       0.0001 |
dtlb.inv_rate                               0.0000 |       0.0000 |       0.0000 |       0.0000 |       0.0000 |       0.0000 |       0.0000 |       0.0000 |       0.0000 |       0.0000 |       0.0000 |       0.0000 |       0.0000 |       0.0000 |       0.0000 |       0.0000 |       0.0000 |       0.0000 |       0.0000 |       0.0000 |       0.0000 |       0.0000 |       0.0000 |       0.0000 |       0.0000 |       0.0000 |       0.0000 |       0.0000 |       0.0000 |       0.0000 |       0.0000 |       0.0000 |       0.0000 |       0.0000 |       0.0000 |       0.0000 |       0.0000 |       0.0000 |       0.0000 |       0.0000 |       0.0000 |       0.0000 |       0.0000 |       0.0000 |
ld_text_base                            0x00400000 |   0x00400000 |   0x00400000 |   0x00400000 |   0x00400000 |   0x00400000 |   0x00400000 |   0x00400000 |   0x00400000 |   0x00400000 |   0x00400000 |   0x00400000 |   0x00400000 |   0x00400000 |   0x00400000 |   0x00400000 |   0x00400000 |   0x00400000 |   0x00400000 |   0x00400000 |   0x00400000 |   0x00400000 |   0x00400000 |   0x00400000 |   0x00400000 |   0x00400000 |   0x00400000 |   0x00400000 |   0x00400000 |   0x00400000 |   0x00400000 |   0x00400000 |   0x00400000 |   0x00400000 |   0x00400000 |   0x00400000 |   0x00400000 |   0x00400000 |   0x00400000 |   0x00400000 |   0x00400000 |   0x00400000 |   0x00400000 |   0x00400000 |
ld_text_size                                 94704 |        94704 |        94704 |        94704 |        94736 |        94736 |        94736 |        94736 |        94752 |        94752 |        94752 |        94752 |        94768 |        94768 |        94768 |        94768 |        94768 |        94768 |        94768 |        94768 |        94768 |        94768 |        94768 |        94768 |        94768 |        94768 |        94768 |        94768 |        94768 |        94768 |        94768 |        94768 |        94768 |        94768 |        94768 |        94768 |        94768 |        94768 |        94768 |        94768 |        94768 |        94768 |        94768 |        94768 |
ld_data_base                            0x10000000 |   0x10000000 |   0x10000000 |   0x10000000 |   0x10000000 |   0x10000000 |   0x10000000 |   0x10000000 |   0x10000000 |   0x10000000 |   0x10000000 |   0x10000000 |   0x10000000 |   0x10000000 |   0x10000000 |   0x10000000 |   0x10000000 |   0x10000000 |   0x10000000 |   0x10000000 |   0x10000000 |   0x10000000 |   0x10000000 |   0x10000000 |   0x10000000 |   0x10000000 |   0x10000000 |   0x10000000 |   0x10000000 |   0x10000000 |   0x10000000 |   0x10000000 |   0x10000000 |   0x10000000 |   0x10000000 |   0x10000000 |   0x10000000 |   0x10000000 |   0x10000000 |   0x10000000 |   0x10000000 |   0x10000000 |   0x10000000 |   0x10000000 |
ld_data_size                                  8192 |         8192 |         8192 |         8192 |         8192 |         8192 |         8192 |         8192 |         8192 |         8192 |         8192 |         8192 |         8192 |         8192 |         8192 |         8192 |         8192 |         8192 |         8192 |         8192 |         8192 |         8192 |         8192 |         8192 |         8192 |         8192 |         8192 |         8192 |         8192 |         8192 |         8192 |         8192 |         8192 |         8192 |         8192 |         8192 |         8192 |         8192 |         8192 |         8192 |         8192 |         8192 |         8192 |         8192 |
ld_stack_base                           0x7fffc000 |   0x7fffc000 |   0x7fffc000 |   0x7fffc000 |   0x7fffc000 |   0x7fffc000 |   0x7fffc000 |   0x7fffc000 |   0x7fffc000 |   0x7fffc000 |   0x7fffc000 |   0x7fffc000 |   0x7fffc000 |   0x7fffc000 |   0x7fffc000 |   0x7fffc000 |   0x7fffc000 |   0x7fffc000 |   0x7fffc000 |   0x7fffc000 |   0x7fffc000 |   0x7fffc000 |   0x7fffc000 |   0x7fffc000 |   0x7fffc000 |   0x7fffc000 |   0x7fffc000 |   0x7fffc000 |   0x7fffc000 |   0x7fffc000 |   0x7fffc000 |   0x7fffc000 |   0x7fffc000 |   0x7fffc000 |   0x7fffc000 |   0x7fffc000 |   0x7fffc000 |   0x7fffc000 |   0x7fffc000 |   0x7fffc000 |   0x7fffc000 |   0x7fffc000 |   0x7fffc000 |   0x7fffc000 |
ld_stack_size                                16384 |        16384 |        16384 |        16384 |        16384 |        16384 |        16384 |        16384 |        16384 |        16384 |        16384 |        16384 |        16384 |        16384 |        16384 |        16384 |        16384 |        16384 |        16384 |        16384 |        16384 |        16384 |        16384 |        16384 |        16384 |        16384 |        16384 |        16384 |        16384 |        16384 |        16384 |        16384 |        16384 |        16384 |        16384 |        16384 |        16384 |        16384 |        16384 |        16384 |        16384 |        16384 |        16384 |        16384 |
ld_prog_entry                           0x00400140 |   0x00400140 |   0x00400140 |   0x00400140 |   0x00400140 |   0x00400140 |   0x00400140 |   0x00400140 |   0x00400140 |   0x00400140 |   0x00400140 |   0x00400140 |   0x00400140 |   0x00400140 |   0x00400140 |   0x00400140 |   0x00400140 |   0x00400140 |   0x00400140 |   0x00400140 |   0x00400140 |   0x00400140 |   0x00400140 |   0x00400140 |   0x00400140 |   0x00400140 |   0x00400140 |   0x00400140 |   0x00400140 |   0x00400140 |   0x00400140 |   0x00400140 |   0x00400140 |   0x00400140 |   0x00400140 |   0x00400140 |   0x00400140 |   0x00400140 |   0x00400140 |   0x00400140 |   0x00400140 |   0x00400140 |   0x00400140 |   0x00400140 |
ld_environ_base                         0x7fff8000 |   0x7fff8000 |   0x7fff8000 |   0x7fff8000 |   0x7fff8000 |   0x7fff8000 |   0x7fff8000 |   0x7fff8000 |   0x7fff8000 |   0x7fff8000 |   0x7fff8000 |   0x7fff8000 |   0x7fff8000 |   0x7fff8000 |   0x7fff8000 |   0x7fff8000 |   0x7fff8000 |   0x7fff8000 |   0x7fff8000 |   0x7fff8000 |   0x7fff8000 |   0x7fff8000 |   0x7fff8000 |   0x7fff8000 |   0x7fff8000 |   0x7fff8000 |   0x7fff8000 |   0x7fff8000 |   0x7fff8000 |   0x7fff8000 |   0x7fff8000 |   0x7fff8000 |   0x7fff8000 |   0x7fff8000 |   0x7fff8000 |   0x7fff8000 |   0x7fff8000 |   0x7fff8000 |   0x7fff8000 |   0x7fff8000 |   0x7fff8000 |   0x7fff8000 |   0x7fff8000 |   0x7fff8000 |
ld_target_big_endian                             0 |            0 |            0 |            0 |            0 |            0 |            0 |            0 |            0 |            0 |            0 |            0 |            0 |            0 |            0 |            0 |            0 |            0 |            0 |            0 |            0 |            0 |            0 |            0 |            0 |            0 |            0 |            0 |            0 |            0 |            0 |            0 |            0 |            0 |            0 |            0 |            0 |            0 |            0 |            0 |            0 |            0 |            0 |            0 |
mem.page_count                                  40 |           40 |           40 |           40 |           48 |           48 |           48 |           48 |           64 |           64 |           64 |           64 |           96 |           96 |           96 |           96 |          160 |          160 |          160 |          160 |          288 |          288 |          288 |          288 |          544 |          544 |          544 |          544 |         1062 |         1062 |         1062 |         1062 |         2086 |         2086 |         2086 |         2086 |         4140 |         4140 |         4140 |         4140 |         8248 |         8248 |         8248 |         8248 |
mem.page_mem                                  160k |         160k |         160k |         160k |         192k |         192k |         192k |         192k |         256k |         256k |         256k |         256k |         384k |         384k |         384k |         384k |         640k |         640k |         640k |         640k |        1152k |        1152k |        1152k |        1152k |        2176k |        2176k |        2176k |        2176k |        4248k |        4248k |        4248k |        4248k |        8344k |        8344k |        8344k |        8344k |       16560k |       16560k |       16560k |       16560k |       32992k |       32992k |       32992k |       32992k |
mem.ptab_misses                                 40 |           40 |           40 |           40 |           48 |           48 |           48 |           48 |           64 |           64 |           64 |           64 |           96 |           96 |           96 |           96 |          160 |          160 |          160 |          160 |          288 |          288 |          288 |          288 |          544 |          544 |          544 |          544 |         1067 |         1067 |         1067 |         1067 |        80335 |        80335 |        80335 |        80335 |        84699 |        84699 |        84699 |        84699 |        86499 |        86499 |        86499 |        86499 |
mem.ptab_accesses                          4504610 |      4504610 |      4504610 |      4504610 |      8596410 |      8596410 |      8596410 |      8596410 |     18668840 |     18668840 |     18668840 |     18668840 |     37465812 |     37465812 |     37465812 |     37465812 |     82627952 |     82627952 |     82627952 |     82627952 |    167642584 |    167642584 |    167642584 |    167642584 |    354340930 |    354340930 |    354340930 |    354340930 |   1020335880 |   1020335880 |   1020335880 |   1020335880 |   2162257704 |   2162257704 |   2162257704 |   2162257704 |   4726747920 |   4726747920 |   4726747920 |   4726747920 |   9989328664 |   9989328664 |   9989328664 |   9989328664 |
mem.ptab_miss_rate                          0.0000 |       0.0000 |       0.0000 |       0.0000 |       0.0000 |       0.0000 |       0.0000 |       0.0000 |       0.0000 |       0.0000 |       0.0000 |       0.0000 |       0.0000 |       0.0000 |       0.0000 |       0.0000 |       0.0000 |       0.0000 |       0.0000 |       0.0000 |       0.0000 |       0.0000 |       0.0000 |       0.0000 |       0.0000 |       0.0000 |       0.0000 |       0.0000 |       0.0000 |       0.0000 |       0.0000 |       0.0000 |       0.0000 |       0.0000 |       0.0000 |       0.0000 |       0.0000 |       0.0000 |       0.0000 |       0.0000 |       0.0000 |       0.0000 |       0.0000 |       0.0000 |
-------------------------------------------------------------------------------------------------
sim-bpred                                     4096 |         4096 |         4096 |         4096 |         4096 |         4096 |         4096 |         8192 |         8192 |         8192 |         8192 |         8192 |         8192 |         8192 |        16384 |        16384 |        16384 |        16384 |        16384 |        16384 |        16384 |        32768 |        32768 |        32768 |        32768 |        32768 |        32768 |        32768 |        65536 |        65536 |        65536 |        65536 |        65536 |        65536 |        65536 |       131072 |       131072 |       131072 |       131072 |       131072 |       131072 |       131072 |       262144 |       262144 |       262144 |       262144 |       262144 |       262144 |       262144 |       524288 |       524288 |       524288 |       524288 |       524288 |       524288 |       524288 |      1048576 |      1048576 |      1048576 |      1048576 |      1048576 |      1048576 |      1048576 |      2097152 |      2097152 |      2097152 |      2097152 |      2097152 |      2097152 |      2097152 |      4194304 |      4194304 |      4194304 |      4194304 |      4194304 |      4194304 |      4194304 |
-bpred bimod -bpred:bimod 512
-bpred bimod -bpred:bimod 1024
-bpred bimod -bpred:bimod 2048
-bpred 2lev -bpred:2lev 1 512 10 1
-bpred 2lev -bpred:2lev 1 1024 10 1
-bpred 2lev -bpred:2lev 1 2048 10 1
-bpred 2lev -bpred:2lev 1 4096 10 1
-------------------------------------------------------------------------------------------------
sim_num_insn                                857919 |       857919 |       857919 |       857919 |       857919 |       857919 |       857919 |      1750880 |      1750880 |      1750880 |      1750880 |      1750880 |      1750880 |      1750880 |      3962497 |      3962497 |      3962497 |      3962497 |      3962497 |      3962497 |      3962497 |      8068967 |      8068967 |      8068967 |      8068967 |      8068967 |      8068967 |      8068967 |     17987154 |     17987154 |     17987154 |     17987154 |     17987154 |     17987154 |     17987154 |     36574803 |     36574803 |     36574803 |     36574803 |     36574803 |     36574803 |     36574803 |     77471343 |     77471343 |     77471343 |     77471343 |     77471343 |     77471343 |     77471343 |    223414427 |    223414427 |    223414427 |    223414427 |    223414427 |    223414427 |    223414427 |    473237354 |    473237354 |    473237354 |    473237354 |    473237354 |    473237354 |    473237354 |   1035748377 |   1035748377 |   1035748377 |   1035748377 |   1035748377 |   1035748377 |   1035748377 |   2186646747 |   2186646747 |   2186646747 |   2186646747 |   2186646747 |   2186646747 |   2186646747 |
sim_num_refs                                228576 |       228576 |       228576 |       228576 |       228576 |       228576 |       228576 |       472074 |       472074 |       472074 |       472074 |       472074 |       472074 |       472074 |      1052239 |      1052239 |      1052239 |      1052239 |      1052239 |      1052239 |      1052239 |      2172201 |      2172201 |      2172201 |      2172201 |      2172201 |      2172201 |      2172201 |      4785825 |      4785825 |      4785825 |      4785825 |      4785825 |      4785825 |      4785825 |      9855699 |      9855699 |      9855699 |      9855699 |      9855699 |      9855699 |      9855699 |     20887504 |     20887504 |     20887504 |     20887504 |     20887504 |     20887504 |     20887504 |     60950235 |     60950235 |     60950235 |     60950235 |     60950235 |     60950235 |     60950235 |    130168141 |    130168141 |    130168141 |    130168141 |    130168141 |    130168141 |    130168141 |    283196899 |    283196899 |    283196899 |    283196899 |    283196899 |    283196899 |    283196899 |    604301923 |    604301923 |    604301923 |    604301923 |    604301923 |    604301923 |    604301923 |
sim_elapsed_time                                 1 |            1 |            1 |            1 |            1 |            1 |            1 |            1 |            1 |            1 |            1 |            1 |            1 |            1 |            1 |            1 |            1 |            1 |            1 |            1 |            1 |            1 |            1 |            1 |            1 |            1 |            1 |            1 |            2 |            2 |            2 |            2 |            2 |            2 |            2 |            4 |            4 |            4 |            5 |            4 |            4 |            4 |            9 |            8 |            9 |            9 |            9 |            9 |            8 |           25 |           26 |           25 |           26 |           26 |           26 |           26 |           55 |           55 |           54 |           56 |           56 |           55 |           56 |          120 |          119 |          119 |          122 |          121 |          121 |          121 |          253 |          253 |          253 |          257 |          258 |          257 |          256 |
sim_inst_rate                          857919.0000 |  857919.0000 |  857919.0000 |  857919.0000 |  857919.0000 |  857919.0000 |  857919.0000 | 1750880.0000 | 1750880.0000 | 1750880.0000 | 1750880.0000 | 1750880.0000 | 1750880.0000 | 1750880.0000 | 3962497.0000 | 3962497.0000 | 3962497.0000 | 3962497.0000 | 3962497.0000 | 3962497.0000 | 3962497.0000 | 8068967.0000 | 8068967.0000 | 8068967.0000 | 8068967.0000 | 8068967.0000 | 8068967.0000 | 8068967.0000 | 8993577.0000 | 8993577.0000 | 8993577.0000 | 8993577.0000 | 8993577.0000 | 8993577.0000 | 8993577.0000 | 9143700.7500 | 9143700.7500 | 9143700.7500 | 7314960.6000 | 9143700.7500 | 9143700.7500 | 9143700.7500 | 8607927.0000 | 9683917.8750 | 8607927.0000 | 8607927.0000 | 8607927.0000 | 8607927.0000 | 9683917.8750 | 8936577.0800 | 8592862.5769 | 8936577.0800 | 8592862.5769 | 8592862.5769 | 8592862.5769 | 8592862.5769 | 8604315.5273 | 8604315.5273 | 8763654.7037 | 8450667.0357 | 8450667.0357 | 8604315.5273 | 8450667.0357 | 8631236.4750 | 8703767.8739 | 8703767.8739 | 8489740.7951 | 8559903.9421 | 8559903.9421 | 8559903.9421 | 8642872.5178 | 8642872.5178 | 8642872.5178 | 8508353.1012 | 8475374.9884 | 8508353.1012 | 8541588.8555 |
sim_num_branches                            112695 |       112695 |       112695 |       112695 |       112695 |       112695 |       112695 |       235900 |       235900 |       235900 |       235900 |       235900 |       235900 |       235900 |       515365 |       515365 |       515365 |       515365 |       515365 |       515365 |       515365 |      1072695 |      1072695 |      1072695 |      1072695 |      1072695 |      1072695 |      1072695 |      2320601 |      2320601 |      2320601 |      2320601 |      2320601 |      2320601 |      2320601 |      4812967 |      4812967 |      4812967 |      4812967 |      4812967 |      4812967 |      4812967 |     10150782 |     10150782 |     10150782 |     10150782 |     10150782 |     10150782 |     10150782 |     30682905 |     30682905 |     30682905 |     30682905 |     30682905 |     30682905 |     30682905 |     67187450 |     67187450 |     67187450 |     67187450 |     67187450 |     67187450 |     67187450 |    145972538 |    145972538 |    145972538 |    145972538 |    145972538 |    145972538 |    145972538 |    314549621 |    314549621 |    314549621 |    314549621 |    314549621 |    314549621 |    314549621 |
sim_IPB                                     7.6128 |       7.6128 |       7.6128 |       7.6128 |       7.6128 |       7.6128 |       7.6128 |       7.4221 |       7.4221 |       7.4221 |       7.4221 |       7.4221 |       7.4221 |       7.4221 |       7.6887 |       7.6887 |       7.6887 |       7.6887 |       7.6887 |       7.6887 |       7.6887 |       7.5221 |       7.5221 |       7.5221 |       7.5221 |       7.5221 |       7.5221 |       7.5221 |       7.7511 |       7.7511 |       7.7511 |       7.7511 |       7.7511 |       7.7511 |       7.7511 |       7.5992 |       7.5992 |       7.5992 |       7.5992 |       7.5992 |       7.5992 |       7.5992 |       7.6321 |       7.6321 |       7.6321 |       7.6321 |       7.6321 |       7.6321 |       7.6321 |       7.2814 |       7.2814 |       7.2814 |       7.2814 |       7.2814 |       7.2814 |       7.2814 |       7.0435 |       7.0435 |       7.0435 |       7.0435 |       7.0435 |       7.0435 |       7.0435 |       7.0955 |       7.0955 |       7.0955 |       7.0955 |       7.0955 |       7.0955 |       7.0955 |       6.9517 |       6.9517 |       6.9517 |       6.9517 |       6.9517 |       6.9517 |       6.9517 |
bpred_bimod.lookups                         112695 |       112695 |       112695 |xxxxxxxxxxxxx |xxxxxxxxxxxxx |xxxxxxxxxxxxx |xxxxxxxxxxxxx |       235900 |       235900 |       235900 |xxxxxxxxxxxxx |xxxxxxxxxxxxx |xxxxxxxxxxxxx |xxxxxxxxxxxxx |       515365 |       515365 |       515365 |xxxxxxxxxxxxx |xxxxxxxxxxxxx |xxxxxxxxxxxxx |xxxxxxxxxxxxx |      1072695 |      1072695 |      1072695 |xxxxxxxxxxxxx |xxxxxxxxxxxxx |xxxxxxxxxxxxx |xxxxxxxxxxxxx |      2320601 |      2320601 |      2320601 |xxxxxxxxxxxxx |xxxxxxxxxxxxx |xxxxxxxxxxxxx |xxxxxxxxxxxxx |      4812967 |      4812967 |      4812967 |xxxxxxxxxxxxx |xxxxxxxxxxxxx |xxxxxxxxxxxxx |xxxxxxxxxxxxx |     10150782 |     10150782 |     10150782 |xxxxxxxxxxxxx |xxxxxxxxxxxxx |xxxxxxxxxxxxx |xxxxxxxxxxxxx |     30682905 |     30682905 |     30682905 |xxxxxxxxxxxxx |xxxxxxxxxxxxx |xxxxxxxxxxxxx |xxxxxxxxxxxxx |     67187450 |     67187450 |     67187450 |xxxxxxxxxxxxx |xxxxxxxxxxxxx |xxxxxxxxxxxxx |xxxxxxxxxxxxx |    145972538 |    145972538 |    145972538 |xxxxxxxxxxxxx |xxxxxxxxxxxxx |xxxxxxxxxxxxx |xxxxxxxxxxxxx |    314549621 |    314549621 |    314549621 |
bpred_bimod.updates                         112695 |       112695 |       112695 |xxxxxxxxxxxxx |xxxxxxxxxxxxx |xxxxxxxxxxxxx |xxxxxxxxxxxxx |       235900 |       235900 |       235900 |xxxxxxxxxxxxx |xxxxxxxxxxxxx |xxxxxxxxxxxxx |xxxxxxxxxxxxx |       515365 |       515365 |       515365 |xxxxxxxxxxxxx |xxxxxxxxxxxxx |xxxxxxxxxxxxx |xxxxxxxxxxxxx |      1072695 |      1072695 |      1072695 |xxxxxxxxxxxxx |xxxxxxxxxxxxx |xxxxxxxxxxxxx |xxxxxxxxxxxxx |      2320601 |      2320601 |      2320601 |xxxxxxxxxxxxx |xxxxxxxxxxxxx |xxxxxxxxxxxxx |xxxxxxxxxxxxx |      4812967 |      4812967 |      4812967 |xxxxxxxxxxxxx |xxxxxxxxxxxxx |xxxxxxxxxxxxx |xxxxxxxxxxxxx |     10150782 |     10150782 |     10150782 |xxxxxxxxxxxxx |xxxxxxxxxxxxx |xxxxxxxxxxxxx |xxxxxxxxxxxxx |     30682905 |     30682905 |     30682905 |xxxxxxxxxxxxx |xxxxxxxxxxxxx |xxxxxxxxxxxxx |xxxxxxxxxxxxx |     67187450 |     67187450 |     67187450 |xxxxxxxxxxxxx |xxxxxxxxxxxxx |xxxxxxxxxxxxx |xxxxxxxxxxxxx |    145972538 |    145972538 |    145972538 |xxxxxxxxxxxxx |xxxxxxxxxxxxx |xxxxxxxxxxxxx |xxxxxxxxxxxxx |    314549621 |    314549621 |    314549621 |
bpred_bimod.addr_hits                        86775 |        86785 |        86790 |xxxxxxxxxxxxx |xxxxxxxxxxxxx |xxxxxxxxxxxxx |xxxxxxxxxxxxx |       183925 |       183932 |       183935 |xxxxxxxxxxxxx |xxxxxxxxxxxxx |xxxxxxxxxxxxx |xxxxxxxxxxxxx |       396757 |       396775 |       396780 |xxxxxxxxxxxxx |xxxxxxxxxxxxx |xxxxxxxxxxxxx |xxxxxxxxxxxxx |       833503 |       833516 |       833520 |xxxxxxxxxxxxx |xxxxxxxxxxxxx |xxxxxxxxxxxxx |xxxxxxxxxxxxx |      1781818 |      1781887 |      1781891 |xxxxxxxxxxxxx |xxxxxxxxxxxxx |xxxxxxxxxxxxx |xxxxxxxxxxxxx |      3725975 |      3726016 |      3726020 |xxxxxxxxxxxxx |xxxxxxxxxxxxx |xxxxxxxxxxxxx |xxxxxxxxxxxxx |      7846594 |      7846682 |      7846752 |xxxxxxxxxxxxx |xxxxxxxxxxxxx |xxxxxxxxxxxxx |xxxxxxxxxxxxx |     24450206 |     24450758 |     24450760 |xxxxxxxxxxxxx |xxxxxxxxxxxxx |xxxxxxxxxxxxx |xxxxxxxxxxxxx |     54432287 |     54432639 |     54432646 |xxxxxxxxxxxxx |xxxxxxxxxxxxx |xxxxxxxxxxxxx |xxxxxxxxxxxxx |    116890202 |    116892358 |    116892360 |xxxxxxxxxxxxx |xxxxxxxxxxxxx |xxxxxxxxxxxxx |xxxxxxxxxxxxx |    252094993 |    252096378 |    252096365 |
bpred_bimod.dir_hits                         86929 |        86938 |        86942 |xxxxxxxxxxxxx |xxxxxxxxxxxxx |xxxxxxxxxxxxx |xxxxxxxxxxxxx |       184080 |       184084 |       184087 |xxxxxxxxxxxxx |xxxxxxxxxxxxx |xxxxxxxxxxxxx |xxxxxxxxxxxxx |       396913 |       396926 |       396931 |xxxxxxxxxxxxx |xxxxxxxxxxxxx |xxxxxxxxxxxxx |xxxxxxxxxxxxx |       833655 |       833668 |       833672 |xxxxxxxxxxxxx |xxxxxxxxxxxxx |xxxxxxxxxxxxx |xxxxxxxxxxxxx |      1781970 |      1782039 |      1782042 |xxxxxxxxxxxxx |xxxxxxxxxxxxx |xxxxxxxxxxxxx |xxxxxxxxxxxxx |      3726128 |      3726169 |      3726173 |xxxxxxxxxxxxx |xxxxxxxxxxxxx |xxxxxxxxxxxxx |xxxxxxxxxxxxx |      7846749 |      7846837 |      7846908 |xxxxxxxxxxxxx |xxxxxxxxxxxxx |xxxxxxxxxxxxx |xxxxxxxxxxxxx |     24450437 |     24450986 |     24450986 |xxxxxxxxxxxxx |xxxxxxxxxxxxx |xxxxxxxxxxxxx |xxxxxxxxxxxxx |     54432527 |     54432876 |     54432879 |xxxxxxxxxxxxx |xxxxxxxxxxxxx |xxxxxxxxxxxxx |xxxxxxxxxxxxx |    116890442 |    116892595 |    116892594 |xxxxxxxxxxxxx |xxxxxxxxxxxxx |xxxxxxxxxxxxx |xxxxxxxxxxxxx |    252095235 |    252096616 |    252096601 |
bpred_bimod.misses                           25766 |        25757 |        25753 |xxxxxxxxxxxxx |xxxxxxxxxxxxx |xxxxxxxxxxxxx |xxxxxxxxxxxxx |        51820 |        51816 |        51813 |xxxxxxxxxxxxx |xxxxxxxxxxxxx |xxxxxxxxxxxxx |xxxxxxxxxxxxx |       118452 |       118439 |       118434 |xxxxxxxxxxxxx |xxxxxxxxxxxxx |xxxxxxxxxxxxx |xxxxxxxxxxxxx |       239040 |       239027 |       239023 |xxxxxxxxxxxxx |xxxxxxxxxxxxx |xxxxxxxxxxxxx |xxxxxxxxxxxxx |       538631 |       538562 |       538559 |xxxxxxxxxxxxx |xxxxxxxxxxxxx |xxxxxxxxxxxxx |xxxxxxxxxxxxx |      1086839 |      1086798 |      1086794 |xxxxxxxxxxxxx |xxxxxxxxxxxxx |xxxxxxxxxxxxx |xxxxxxxxxxxxx |      2304033 |      2303945 |      2303874 |xxxxxxxxxxxxx |xxxxxxxxxxxxx |xxxxxxxxxxxxx |xxxxxxxxxxxxx |      6232468 |      6231919 |      6231919 |xxxxxxxxxxxxx |xxxxxxxxxxxxx |xxxxxxxxxxxxx |xxxxxxxxxxxxx |     12754923 |     12754574 |     12754571 |xxxxxxxxxxxxx |xxxxxxxxxxxxx |xxxxxxxxxxxxx |xxxxxxxxxxxxx |     29082096 |     29079943 |     29079944 |xxxxxxxxxxxxx |xxxxxxxxxxxxx |xxxxxxxxxxxxx |xxxxxxxxxxxxx |     62454386 |     62453005 |     62453020 |
bpred_bimod.jr_hits                             79 |           79 |           79 |xxxxxxxxxxxxx |xxxxxxxxxxxxx |xxxxxxxxxxxxx |xxxxxxxxxxxxx |           87 |           87 |           87 |xxxxxxxxxxxxx |xxxxxxxxxxxxx |xxxxxxxxxxxxx |xxxxxxxxxxxxx |          103 |          103 |          103 |xxxxxxxxxxxxx |xxxxxxxxxxxxx |xxxxxxxxxxxxx |xxxxxxxxxxxxx |          135 |          135 |          135 |xxxxxxxxxxxxx |xxxxxxxxxxxxx |xxxxxxxxxxxxx |xxxxxxxxxxxxx |          199 |          199 |          199 |xxxxxxxxxxxxx |xxxxxxxxxxxxx |xxxxxxxxxxxxx |xxxxxxxxxxxxx |          327 |          327 |          327 |xxxxxxxxxxxxx |xxxxxxxxxxxxx |xxxxxxxxxxxxx |xxxxxxxxxxxxx |          583 |          583 |          583 |xxxxxxxxxxxxx |xxxxxxxxxxxxx |xxxxxxxxxxxxx |xxxxxxxxxxxxx |       525413 |       525413 |       525413 |xxxxxxxxxxxxx |xxxxxxxxxxxxx |xxxxxxxxxxxxx |xxxxxxxxxxxxx |      1050727 |      1050727 |      1050727 |xxxxxxxxxxxxx |xxxxxxxxxxxxx |xxxxxxxxxxxxx |xxxxxxxxxxxxx |      2101355 |      2101355 |      2101355 |xxxxxxxxxxxxx |xxxxxxxxxxxxx |xxxxxxxxxxxxx |xxxxxxxxxxxxx |      4202611 |      4202611 |      4202611 |
bpred_bimod.jr_seen                             80 |           80 |           80 |xxxxxxxxxxxxx |xxxxxxxxxxxxx |xxxxxxxxxxxxx |xxxxxxxxxxxxx |           88 |           88 |           88 |xxxxxxxxxxxxx |xxxxxxxxxxxxx |xxxxxxxxxxxxx |xxxxxxxxxxxxx |          104 |          104 |          104 |xxxxxxxxxxxxx |xxxxxxxxxxxxx |xxxxxxxxxxxxx |xxxxxxxxxxxxx |          136 |          136 |          136 |xxxxxxxxxxxxx |xxxxxxxxxxxxx |xxxxxxxxxxxxx |xxxxxxxxxxxxx |          200 |          200 |          200 |xxxxxxxxxxxxx |xxxxxxxxxxxxx |xxxxxxxxxxxxx |xxxxxxxxxxxxx |          328 |          328 |          328 |xxxxxxxxxxxxx |xxxxxxxxxxxxx |xxxxxxxxxxxxx |xxxxxxxxxxxxx |          584 |          584 |          584 |xxxxxxxxxxxxx |xxxxxxxxxxxxx |xxxxxxxxxxxxx |xxxxxxxxxxxxx |       525414 |       525414 |       525414 |xxxxxxxxxxxxx |xxxxxxxxxxxxx |xxxxxxxxxxxxx |xxxxxxxxxxxxx |      1050728 |      1050728 |      1050728 |xxxxxxxxxxxxx |xxxxxxxxxxxxx |xxxxxxxxxxxxx |xxxxxxxxxxxxx |      2101356 |      2101356 |      2101356 |xxxxxxxxxxxxx |xxxxxxxxxxxxx |xxxxxxxxxxxxx |xxxxxxxxxxxxx |      4202612 |      4202612 |      4202612 |
bpred_bimod.jr_non_ras_hits.PP                   0 |            0 |            0 |xxxxxxxxxxxxx |xxxxxxxxxxxxx |xxxxxxxxxxxxx |xxxxxxxxxxxxx |            0 |            0 |            0 |xxxxxxxxxxxxx |xxxxxxxxxxxxx |xxxxxxxxxxxxx |xxxxxxxxxxxxx |            0 |            0 |            0 |xxxxxxxxxxxxx |xxxxxxxxxxxxx |xxxxxxxxxxxxx |xxxxxxxxxxxxx |            0 |            0 |            0 |xxxxxxxxxxxxx |xxxxxxxxxxxxx |xxxxxxxxxxxxx |xxxxxxxxxxxxx |            0 |            0 |            0 |xxxxxxxxxxxxx |xxxxxxxxxxxxx |xxxxxxxxxxxxx |xxxxxxxxxxxxx |            0 |            0 |            0 |xxxxxxxxxxxxx |xxxxxxxxxxxxx |xxxxxxxxxxxxx |xxxxxxxxxxxxx |            0 |            0 |            0 |xxxxxxxxxxxxx |xxxxxxxxxxxxx |xxxxxxxxxxxxx |xxxxxxxxxxxxx |            0 |            0 |            0 |xxxxxxxxxxxxx |xxxxxxxxxxxxx |xxxxxxxxxxxxx |xxxxxxxxxxxxx |            0 |            0 |            0 |xxxxxxxxxxxxx |xxxxxxxxxxxxx |xxxxxxxxxxxxx |xxxxxxxxxxxxx |            0 |            0 |            0 |xxxxxxxxxxxxx |xxxxxxxxxxxxx |xxxxxxxxxxxxx |xxxxxxxxxxxxx |            0 |            0 |            0 |
bpred_bimod.jr_non_ras_seen.PP                   0 |            0 |            0 |xxxxxxxxxxxxx |xxxxxxxxxxxxx |xxxxxxxxxxxxx |xxxxxxxxxxxxx |            0 |            0 |            0 |xxxxxxxxxxxxx |xxxxxxxxxxxxx |xxxxxxxxxxxxx |xxxxxxxxxxxxx |            0 |            0 |            0 |xxxxxxxxxxxxx |xxxxxxxxxxxxx |xxxxxxxxxxxxx |xxxxxxxxxxxxx |            0 |            0 |            0 |xxxxxxxxxxxxx |xxxxxxxxxxxxx |xxxxxxxxxxxxx |xxxxxxxxxxxxx |            0 |            0 |            0 |xxxxxxxxxxxxx |xxxxxxxxxxxxx |xxxxxxxxxxxxx |xxxxxxxxxxxxx |            0 |            0 |            0 |xxxxxxxxxxxxx |xxxxxxxxxxxxx |xxxxxxxxxxxxx |xxxxxxxxxxxxx |            0 |            0 |            0 |xxxxxxxxxxxxx |xxxxxxxxxxxxx |xxxxxxxxxxxxx |xxxxxxxxxxxxx |            1 |            1 |            1 |xxxxxxxxxxxxx |xxxxxxxxxxxxx |xxxxxxxxxxxxx |xxxxxxxxxxxxx |            1 |            1 |            1 |xxxxxxxxxxxxx |xxxxxxxxxxxxx |xxxxxxxxxxxxx |xxxxxxxxxxxxx |            1 |            1 |            1 |xxxxxxxxxxxxx |xxxxxxxxxxxxx |xxxxxxxxxxxxx |xxxxxxxxxxxxx |            1 |            1 |            1 |
bpred_bimod.bpred_addr_rate                 0.7700 |       0.7701 |       0.7701 |xxxxxxxxxxxxx |xxxxxxxxxxxxx |xxxxxxxxxxxxx |xxxxxxxxxxxxx |       0.7797 |       0.7797 |       0.7797 |xxxxxxxxxxxxx |xxxxxxxxxxxxx |xxxxxxxxxxxxx |xxxxxxxxxxxxx |       0.7699 |       0.7699 |       0.7699 |xxxxxxxxxxxxx |xxxxxxxxxxxxx |xxxxxxxxxxxxx |xxxxxxxxxxxxx |       0.7770 |       0.7770 |       0.7770 |xxxxxxxxxxxxx |xxxxxxxxxxxxx |xxxxxxxxxxxxx |xxxxxxxxxxxxx |       0.7678 |       0.7679 |       0.7679 |xxxxxxxxxxxxx |xxxxxxxxxxxxx |xxxxxxxxxxxxx |xxxxxxxxxxxxx |       0.7742 |       0.7742 |       0.7742 |xxxxxxxxxxxxx |xxxxxxxxxxxxx |xxxxxxxxxxxxx |xxxxxxxxxxxxx |       0.7730 |       0.7730 |       0.7730 |xxxxxxxxxxxxx |xxxxxxxxxxxxx |xxxxxxxxxxxxx |xxxxxxxxxxxxx |       0.7969 |       0.7969 |       0.7969 |xxxxxxxxxxxxx |xxxxxxxxxxxxx |xxxxxxxxxxxxx |xxxxxxxxxxxxx |       0.8102 |       0.8102 |       0.8102 |xxxxxxxxxxxxx |xxxxxxxxxxxxx |xxxxxxxxxxxxx |xxxxxxxxxxxxx |       0.8008 |       0.8008 |       0.8008 |xxxxxxxxxxxxx |xxxxxxxxxxxxx |xxxxxxxxxxxxx |xxxxxxxxxxxxx |       0.8014 |       0.8015 |       0.8015 |
bpred_bimod.bpred_dir_rate                  0.7714 |       0.7714 |       0.7715 |xxxxxxxxxxxxx |xxxxxxxxxxxxx |xxxxxxxxxxxxx |xxxxxxxxxxxxx |       0.7803 |       0.7803 |       0.7804 |xxxxxxxxxxxxx |xxxxxxxxxxxxx |xxxxxxxxxxxxx |xxxxxxxxxxxxx |       0.7702 |       0.7702 |       0.7702 |xxxxxxxxxxxxx |xxxxxxxxxxxxx |xxxxxxxxxxxxx |xxxxxxxxxxxxx |       0.7772 |       0.7772 |       0.7772 |xxxxxxxxxxxxx |xxxxxxxxxxxxx |xxxxxxxxxxxxx |xxxxxxxxxxxxx |       0.7679 |       0.7679 |       0.7679 |xxxxxxxxxxxxx |xxxxxxxxxxxxx |xxxxxxxxxxxxx |xxxxxxxxxxxxx |       0.7742 |       0.7742 |       0.7742 |xxxxxxxxxxxxx |xxxxxxxxxxxxx |xxxxxxxxxxxxx |xxxxxxxxxxxxx |       0.7730 |       0.7730 |       0.7730 |xxxxxxxxxxxxx |xxxxxxxxxxxxx |xxxxxxxxxxxxx |xxxxxxxxxxxxx |       0.7969 |       0.7969 |       0.7969 |xxxxxxxxxxxxx |xxxxxxxxxxxxx |xxxxxxxxxxxxx |xxxxxxxxxxxxx |       0.8102 |       0.8102 |       0.8102 |xxxxxxxxxxxxx |xxxxxxxxxxxxx |xxxxxxxxxxxxx |xxxxxxxxxxxxx |       0.8008 |       0.8008 |       0.8008 |xxxxxxxxxxxxx |xxxxxxxxxxxxx |xxxxxxxxxxxxx |xxxxxxxxxxxxx |       0.8014 |       0.8015 |       0.8015 |
bpred_bimod.bpred_jr_rate                   0.9875 |       0.9875 |       0.9875 |xxxxxxxxxxxxx |xxxxxxxxxxxxx |xxxxxxxxxxxxx |xxxxxxxxxxxxx |       0.9886 |       0.9886 |       0.9886 |xxxxxxxxxxxxx |xxxxxxxxxxxxx |xxxxxxxxxxxxx |xxxxxxxxxxxxx |       0.9904 |       0.9904 |       0.9904 |xxxxxxxxxxxxx |xxxxxxxxxxxxx |xxxxxxxxxxxxx |xxxxxxxxxxxxx |       0.9926 |       0.9926 |       0.9926 |xxxxxxxxxxxxx |xxxxxxxxxxxxx |xxxxxxxxxxxxx |xxxxxxxxxxxxx |       0.9950 |       0.9950 |       0.9950 |xxxxxxxxxxxxx |xxxxxxxxxxxxx |xxxxxxxxxxxxx |xxxxxxxxxxxxx |       0.9970 |       0.9970 |       0.9970 |xxxxxxxxxxxxx |xxxxxxxxxxxxx |xxxxxxxxxxxxx |xxxxxxxxxxxxx |       0.9983 |       0.9983 |       0.9983 |xxxxxxxxxxxxx |xxxxxxxxxxxxx |xxxxxxxxxxxxx |xxxxxxxxxxxxx |       1.0000 |       1.0000 |       1.0000 |xxxxxxxxxxxxx |xxxxxxxxxxxxx |xxxxxxxxxxxxx |xxxxxxxxxxxxx |       1.0000 |       1.0000 |       1.0000 |xxxxxxxxxxxxx |xxxxxxxxxxxxx |xxxxxxxxxxxxx |xxxxxxxxxxxxx |       1.0000 |       1.0000 |       1.0000 |xxxxxxxxxxxxx |xxxxxxxxxxxxx |xxxxxxxxxxxxx |xxxxxxxxxxxxx |       1.0000 |       1.0000 |       1.0000 |
bpred_bimod.bpred_jr_non_ras_rate.PP       <error: |      <error: |      <error: |xxxxxxxxxxxxx |xxxxxxxxxxxxx |xxxxxxxxxxxxx |xxxxxxxxxxxxx |      <error: |      <error: |      <error: |xxxxxxxxxxxxx |xxxxxxxxxxxxx |xxxxxxxxxxxxx |xxxxxxxxxxxxx |      <error: |      <error: |      <error: |xxxxxxxxxxxxx |xxxxxxxxxxxxx |xxxxxxxxxxxxx |xxxxxxxxxxxxx |      <error: |      <error: |      <error: |xxxxxxxxxxxxx |xxxxxxxxxxxxx |xxxxxxxxxxxxx |xxxxxxxxxxxxx |      <error: |      <error: |      <error: |xxxxxxxxxxxxx |xxxxxxxxxxxxx |xxxxxxxxxxxxx |xxxxxxxxxxxxx |      <error: |      <error: |      <error: |xxxxxxxxxxxxx |xxxxxxxxxxxxx |xxxxxxxxxxxxx |xxxxxxxxxxxxx |      <error: |      <error: |      <error: |xxxxxxxxxxxxx |xxxxxxxxxxxxx |xxxxxxxxxxxxx |xxxxxxxxxxxxx |       0.0000 |       0.0000 |       0.0000 |xxxxxxxxxxxxx |xxxxxxxxxxxxx |xxxxxxxxxxxxx |xxxxxxxxxxxxx |       0.0000 |       0.0000 |       0.0000 |xxxxxxxxxxxxx |xxxxxxxxxxxxx |xxxxxxxxxxxxx |xxxxxxxxxxxxx |       0.0000 |       0.0000 |       0.0000 |xxxxxxxxxxxxx |xxxxxxxxxxxxx |xxxxxxxxxxxxx |xxxxxxxxxxxxx |       0.0000 |       0.0000 |       0.0000 |
bpred_bimod.retstack_pushes                     82 |           82 |           82 |xxxxxxxxxxxxx |xxxxxxxxxxxxx |xxxxxxxxxxxxx |xxxxxxxxxxxxx |           90 |           90 |           90 |xxxxxxxxxxxxx |xxxxxxxxxxxxx |xxxxxxxxxxxxx |xxxxxxxxxxxxx |          106 |          106 |          106 |xxxxxxxxxxxxx |xxxxxxxxxxxxx |xxxxxxxxxxxxx |xxxxxxxxxxxxx |          138 |          138 |          138 |xxxxxxxxxxxxx |xxxxxxxxxxxxx |xxxxxxxxxxxxx |xxxxxxxxxxxxx |          202 |          202 |          202 |xxxxxxxxxxxxx |xxxxxxxxxxxxx |xxxxxxxxxxxxx |xxxxxxxxxxxxx |          330 |          330 |          330 |xxxxxxxxxxxxx |xxxxxxxxxxxxx |xxxxxxxxxxxxx |xxxxxxxxxxxxx |          586 |          586 |          586 |xxxxxxxxxxxxx |xxxxxxxxxxxxx |xxxxxxxxxxxxx |xxxxxxxxxxxxx |       525415 |       525415 |       525415 |xxxxxxxxxxxxx |xxxxxxxxxxxxx |xxxxxxxxxxxxx |xxxxxxxxxxxxx |      1050729 |      1050729 |      1050729 |xxxxxxxxxxxxx |xxxxxxxxxxxxx |xxxxxxxxxxxxx |xxxxxxxxxxxxx |      2101357 |      2101357 |      2101357 |xxxxxxxxxxxxx |xxxxxxxxxxxxx |xxxxxxxxxxxxx |xxxxxxxxxxxxx |      4202613 |      4202613 |      4202613 |
bpred_bimod.retstack_pops                       80 |           80 |           80 |xxxxxxxxxxxxx |xxxxxxxxxxxxx |xxxxxxxxxxxxx |xxxxxxxxxxxxx |           88 |           88 |           88 |xxxxxxxxxxxxx |xxxxxxxxxxxxx |xxxxxxxxxxxxx |xxxxxxxxxxxxx |          104 |          104 |          104 |xxxxxxxxxxxxx |xxxxxxxxxxxxx |xxxxxxxxxxxxx |xxxxxxxxxxxxx |          136 |          136 |          136 |xxxxxxxxxxxxx |xxxxxxxxxxxxx |xxxxxxxxxxxxx |xxxxxxxxxxxxx |          200 |          200 |          200 |xxxxxxxxxxxxx |xxxxxxxxxxxxx |xxxxxxxxxxxxx |xxxxxxxxxxxxx |          328 |          328 |          328 |xxxxxxxxxxxxx |xxxxxxxxxxxxx |xxxxxxxxxxxxx |xxxxxxxxxxxxx |          584 |          584 |          584 |xxxxxxxxxxxxx |xxxxxxxxxxxxx |xxxxxxxxxxxxx |xxxxxxxxxxxxx |       525413 |       525413 |       525413 |xxxxxxxxxxxxx |xxxxxxxxxxxxx |xxxxxxxxxxxxx |xxxxxxxxxxxxx |      1050727 |      1050727 |      1050727 |xxxxxxxxxxxxx |xxxxxxxxxxxxx |xxxxxxxxxxxxx |xxxxxxxxxxxxx |      2101355 |      2101355 |      2101355 |xxxxxxxxxxxxx |xxxxxxxxxxxxx |xxxxxxxxxxxxx |xxxxxxxxxxxxx |      4202611 |      4202611 |      4202611 |
bpred_bimod.used_ras.PP                         80 |           80 |           80 |xxxxxxxxxxxxx |xxxxxxxxxxxxx |xxxxxxxxxxxxx |xxxxxxxxxxxxx |           88 |           88 |           88 |xxxxxxxxxxxxx |xxxxxxxxxxxxx |xxxxxxxxxxxxx |xxxxxxxxxxxxx |          104 |          104 |          104 |xxxxxxxxxxxxx |xxxxxxxxxxxxx |xxxxxxxxxxxxx |xxxxxxxxxxxxx |          136 |          136 |          136 |xxxxxxxxxxxxx |xxxxxxxxxxxxx |xxxxxxxxxxxxx |xxxxxxxxxxxxx |          200 |          200 |          200 |xxxxxxxxxxxxx |xxxxxxxxxxxxx |xxxxxxxxxxxxx |xxxxxxxxxxxxx |          328 |          328 |          328 |xxxxxxxxxxxxx |xxxxxxxxxxxxx |xxxxxxxxxxxxx |xxxxxxxxxxxxx |          584 |          584 |          584 |xxxxxxxxxxxxx |xxxxxxxxxxxxx |xxxxxxxxxxxxx |xxxxxxxxxxxxx |       525413 |       525413 |       525413 |xxxxxxxxxxxxx |xxxxxxxxxxxxx |xxxxxxxxxxxxx |xxxxxxxxxxxxx |      1050727 |      1050727 |      1050727 |xxxxxxxxxxxxx |xxxxxxxxxxxxx |xxxxxxxxxxxxx |xxxxxxxxxxxxx |      2101355 |      2101355 |      2101355 |xxxxxxxxxxxxx |xxxxxxxxxxxxx |xxxxxxxxxxxxx |xxxxxxxxxxxxx |      4202611 |      4202611 |      4202611 |
bpred_bimod.ras_hits.PP                         79 |           79 |           79 |xxxxxxxxxxxxx |xxxxxxxxxxxxx |xxxxxxxxxxxxx |xxxxxxxxxxxxx |           87 |           87 |           87 |xxxxxxxxxxxxx |xxxxxxxxxxxxx |xxxxxxxxxxxxx |xxxxxxxxxxxxx |          103 |          103 |          103 |xxxxxxxxxxxxx |xxxxxxxxxxxxx |xxxxxxxxxxxxx |xxxxxxxxxxxxx |          135 |          135 |          135 |xxxxxxxxxxxxx |xxxxxxxxxxxxx |xxxxxxxxxxxxx |xxxxxxxxxxxxx |          199 |          199 |          199 |xxxxxxxxxxxxx |xxxxxxxxxxxxx |xxxxxxxxxxxxx |xxxxxxxxxxxxx |          327 |          327 |          327 |xxxxxxxxxxxxx |xxxxxxxxxxxxx |xxxxxxxxxxxxx |xxxxxxxxxxxxx |          583 |          583 |          583 |xxxxxxxxxxxxx |xxxxxxxxxxxxx |xxxxxxxxxxxxx |xxxxxxxxxxxxx |       525413 |       525413 |       525413 |xxxxxxxxxxxxx |xxxxxxxxxxxxx |xxxxxxxxxxxxx |xxxxxxxxxxxxx |      1050727 |      1050727 |      1050727 |xxxxxxxxxxxxx |xxxxxxxxxxxxx |xxxxxxxxxxxxx |xxxxxxxxxxxxx |      2101355 |      2101355 |      2101355 |xxxxxxxxxxxxx |xxxxxxxxxxxxx |xxxxxxxxxxxxx |xxxxxxxxxxxxx |      4202611 |      4202611 |      4202611 |
bpred_bimod.ras_rate.PP                     0.9875 |       0.9875 |       0.9875 |xxxxxxxxxxxxx |xxxxxxxxxxxxx |xxxxxxxxxxxxx |xxxxxxxxxxxxx |       0.9886 |       0.9886 |       0.9886 |xxxxxxxxxxxxx |xxxxxxxxxxxxx |xxxxxxxxxxxxx |xxxxxxxxxxxxx |       0.9904 |       0.9904 |       0.9904 |xxxxxxxxxxxxx |xxxxxxxxxxxxx |xxxxxxxxxxxxx |xxxxxxxxxxxxx |       0.9926 |       0.9926 |       0.9926 |xxxxxxxxxxxxx |xxxxxxxxxxxxx |xxxxxxxxxxxxx |xxxxxxxxxxxxx |       0.9950 |       0.9950 |       0.9950 |xxxxxxxxxxxxx |xxxxxxxxxxxxx |xxxxxxxxxxxxx |xxxxxxxxxxxxx |       0.9970 |       0.9970 |       0.9970 |xxxxxxxxxxxxx |xxxxxxxxxxxxx |xxxxxxxxxxxxx |xxxxxxxxxxxxx |       0.9983 |       0.9983 |       0.9983 |xxxxxxxxxxxxx |xxxxxxxxxxxxx |xxxxxxxxxxxxx |xxxxxxxxxxxxx |       1.0000 |       1.0000 |       1.0000 |xxxxxxxxxxxxx |xxxxxxxxxxxxx |xxxxxxxxxxxxx |xxxxxxxxxxxxx |       1.0000 |       1.0000 |       1.0000 |xxxxxxxxxxxxx |xxxxxxxxxxxxx |xxxxxxxxxxxxx |xxxxxxxxxxxxx |       1.0000 |       1.0000 |       1.0000 |xxxxxxxxxxxxx |xxxxxxxxxxxxx |xxxxxxxxxxxxx |xxxxxxxxxxxxx |       1.0000 |       1.0000 |       1.0000 |
bpred_2lev.lookups                   xxxxxxxxxxxxx |xxxxxxxxxxxxx |xxxxxxxxxxxxx |       112695 |       112695 |       112695 |       112695 |xxxxxxxxxxxxx |xxxxxxxxxxxxx |xxxxxxxxxxxxx |       235900 |       235900 |       235900 |       235900 |xxxxxxxxxxxxx |xxxxxxxxxxxxx |xxxxxxxxxxxxx |       515365 |       515365 |       515365 |       515365 |xxxxxxxxxxxxx |xxxxxxxxxxxxx |xxxxxxxxxxxxx |      1072695 |      1072695 |      1072695 |      1072695 |xxxxxxxxxxxxx |xxxxxxxxxxxxx |xxxxxxxxxxxxx |      2320601 |      2320601 |      2320601 |      2320601 |xxxxxxxxxxxxx |xxxxxxxxxxxxx |xxxxxxxxxxxxx |      4812967 |      4812967 |      4812967 |      4812967 |xxxxxxxxxxxxx |xxxxxxxxxxxxx |xxxxxxxxxxxxx |     10150782 |     10150782 |     10150782 |     10150782 |xxxxxxxxxxxxx |xxxxxxxxxxxxx |xxxxxxxxxxxxx |     30682905 |     30682905 |     30682905 |     30682905 |xxxxxxxxxxxxx |xxxxxxxxxxxxx |xxxxxxxxxxxxx |     67187450 |     67187450 |     67187450 |     67187450 |xxxxxxxxxxxxx |xxxxxxxxxxxxx |xxxxxxxxxxxxx |    145972538 |    145972538 |    145972538 |    145972538 |xxxxxxxxxxxxx |xxxxxxxxxxxxx |xxxxxxxxxxxxx |    314549621 |    314549621 |    314549621 |    314549621 |
[...]
bpred_2lev.retstack_pops             xxxxxxxxxxxxx |xxxxxxxxxxxxx |xxxxxxxxxxxxx |           80 |           80 |           80 |           80 |xxxxxxxxxxxxx |xxxxxxxxxxxxx |xxxxxxxxxxxxx |           88 |           88 |           88 |           88 |xxxxxxxxxxxxx |xxxxxxxxxxxxx |xxxxxxxxxxxxx |          104 |          104 |          104 |          104 |xxxxxxxxxxxxx |xxxxxxxxxxxxx |xxxxxxxxxxxxx |          136 |          136 |          136 |          136 |xxxxxxxxxxxxx |xxxxxxxxxxxxx |xxxxxxxxxxxxx |          200 |          200 |          200 |          200 |xxxxxxxxxxxxx |xxxxxxxxxxxxx |xxxxxxxxxxxxx |          328 |          328 |          328 |          328 |xxxxxxxxxxxxx |xxxxxxxxxxxxx |xxxxxxxxxxxxx |          584 |          584 |          584 |          584 |xxxxxxxxxxxxx |xxxxxxxxxxxxx |xxxxxxxxxxxxx |       525413 |       525413 |       525413 |       525413 |xxxxxxxxxxxxx |xxxxxxxxxxxxx |xxxxxxxxxxxxx |      1050727 |      1050727 |      1050727 |      1050727 |xxxxxxxxxxxxx |xxxxxxxxxxxxx |xxxxxxxxxxxxx |      2101355 |      2101355 |      2101355 |      2101355 |xxxxxxxxxxxxx |xxxxxxxxxxxxx |xxxxxxxxxxxxx |      4202611 |      4202611 |      4202611 |      4202611 |
bpred_2lev.used_ras.PP               xxxxxxxxxxxxx |xxxxxxxxxxxxx |xxxxxxxxxxxxx |           80 |           80 |           80 |           80 |xxxxxxxxxxxxx |xxxxxxxxxxxxx |xxxxxxxxxxxxx |           88 |           88 |           88 |           88 |xxxxxxxxxxxxx |xxxxxxxxxxxxx |xxxxxxxxxxxxx |          104 |          104 |          104 |          104 |xxxxxxxxxxxxx |xxxxxxxxxxxxx |xxxxxxxxxxxxx |          136 |          136 |          136 |          136 |xxxxxxxxxxxxx |xxxxxxxxxxxxx |xxxxxxxxxxxxx |          200 |          200 |          200 |          200 |xxxxxxxxxxxxx |xxxxxxxxxxxxx |xxxxxxxxxxxxx |          328 |          328 |          328 |          328 |xxxxxxxxxxxxx |xxxxxxxxxxxxx |xxxxxxxxxxxxx |          584 |          584 |          584 |          584 |xxxxxxxxxxxxx |xxxxxxxxxxxxx |xxxxxxxxxxxxx |       525413 |       525413 |       525413 |       525413 |xxxxxxxxxxxxx |xxxxxxxxxxxxx |xxxxxxxxxxxxx |      1050727 |      1050727 |      1050727 |      1050727 |xxxxxxxxxxxxx |xxxxxxxxxxxxx |xxxxxxxxxxxxx |      2101355 |      2101355 |      2101355 |      2101355 |xxxxxxxxxxxxx |xxxxxxxxxxxxx |xxxxxxxxxxxxx |      4202611 |      4202611 |      4202611 |      4202611 |
bpred_2lev.ras_hits.PP               xxxxxxxxxxxxx |xxxxxxxxxxxxx |xxxxxxxxxxxxx |           79 |           79 |           79 |           79 |xxxxxxxxxxxxx |xxxxxxxxxxxxx |xxxxxxxxxxxxx |           87 |           87 |           87 |           87 |xxxxxxxxxxxxx |xxxxxxxxxxxxx |xxxxxxxxxxxxx |          103 |          103 |          103 |          103 |xxxxxxxxxxxxx |xxxxxxxxxxxxx |xxxxxxxxxxxxx |          135 |          135 |          135 |          135 |xxxxxxxxxxxxx |xxxxxxxxxxxxx |xxxxxxxxxxxxx |          199 |          199 |          199 |          199 |xxxxxxxxxxxxx |xxxxxxxxxxxxx |xxxxxxxxxxxxx |          327 |          327 |          327 |          327 |xxxxxxxxxxxxx |xxxxxxxxxxxxx |xxxxxxxxxxxxx |          583 |          583 |          583 |          583 |xxxxxxxxxxxxx |xxxxxxxxxxxxx |xxxxxxxxxxxxx |       525413 |       525413 |       525413 |       525413 |xxxxxxxxxxxxx |xxxxxxxxxxxxx |xxxxxxxxxxxxx |      1050727 |      1050727 |      1050727 |      1050727 |xxxxxxxxxxxxx |xxxxxxxxxxxxx |xxxxxxxxxxxxx |      2101355 |      2101355 |      2101355 |      2101355 |xxxxxxxxxxxxx |xxxxxxxxxxxxx |xxxxxxxxxxxxx |      4202611 |      4202611 |      4202611 |      4202611 |
bpred_2lev.ras_rate.PP               xxxxxxxxxxxxx |xxxxxxxxxxxxx |xxxxxxxxxxxxx |       0.9875 |       0.9875 |       0.9875 |       0.9875 |xxxxxxxxxxxxx |xxxxxxxxxxxxx |xxxxxxxxxxxxx |       0.9886 |       0.9886 |       0.9886 |       0.9886 |xxxxxxxxxxxxx |xxxxxxxxxxxxx |xxxxxxxxxxxxx |       0.9904 |       0.9904 |       0.9904 |       0.9904 |xxxxxxxxxxxxx |xxxxxxxxxxxxx |xxxxxxxxxxxxx |       0.9926 |       0.9926 |       0.9926 |       0.9926 |xxxxxxxxxxxxx |xxxxxxxxxxxxx |xxxxxxxxxxxxx |       0.9950 |       0.9950 |       0.9950 |       0.9950 |xxxxxxxxxxxxx |xxxxxxxxxxxxx |xxxxxxxxxxxxx |       0.9970 |       0.9970 |       0.9970 |       0.9970 |xxxxxxxxxxxxx |xxxxxxxxxxxxx |xxxxxxxxxxxxx |       0.9983 |       0.9983 |       0.9983 |       0.9983 |xxxxxxxxxxxxx |xxxxxxxxxxxxx |xxxxxxxxxxxxx |       1.0000 |       1.0000 |       1.0000 |       1.0000 |xxxxxxxxxxxxx |xxxxxxxxxxxxx |xxxxxxxxxxxxx |       1.0000 |       1.0000 |       1.0000 |       1.0000 |xxxxxxxxxxxxx |xxxxxxxxxxxxx |xxxxxxxxxxxxx |       1.0000 |       1.0000 |       1.0000 |       1.0000 |xxxxxxxxxxxxx |xxxxxxxxxxxxx |xxxxxxxxxxxxx |       1.0000 |       1.0000 |       1.0000 |       1.0000 |

Command list: 
	sslittle-na-sstrix-gcc -Wall -O3 -funroll-loops -finline-functions  -DRANDOM_SIZE=4096 -DOFFSET=9 -DSORT=double_multi_mergesort sorts/double_multi_mergesort1912485687.c simpleMain.c -o double_multi_mergesort1691011468
	sim-cache -cache:dl1 dl1:256:32:1:l -cache:dl2 dl2:131072:32:1:l -cache:il1 il1:256:32:1:l -cache:il2 dl2 double_multi_mergesort1691011468
	sim-cache -cache:dl1 dl1:256:32:1:l -cache:dl2 dl2:65536:32:1:l -cache:il1 il1:256:32:1:l -cache:il2 dl2 double_multi_mergesort1691011468
	sim-cache -cache:dl1 dl1:1:32:256:l -cache:dl2 dl2:1:32:131072:l -cache:il1 il1:1:32:256:l -cache:il2 dl2 double_multi_mergesort1691011468
	sim-cache -cache:dl1 dl1:1:32:256:l -cache:dl2 dl2:1:32:65536:l -cache:il1 il1:1:32:256:l -cache:il2 dl2 double_multi_mergesort1691011468
	sim-bpred -bpred bimod -bpred:bimod 512 double_multi_mergesort1691011468
	sim-bpred -bpred bimod -bpred:bimod 1024 double_multi_mergesort1691011468
	sim-bpred -bpred bimod -bpred:bimod 2048 double_multi_mergesort1691011468
	sim-bpred -bpred 2lev -bpred:2lev 1 512 10 1 double_multi_mergesort1691011468
	sim-bpred -bpred 2lev -bpred:2lev 1 1024 10 1 double_multi_mergesort1691011468
	sim-bpred -bpred 2lev -bpred:2lev 1 2048 10 1 double_multi_mergesort1691011468
	sim-bpred -bpred 2lev -bpred:2lev 1 4096 10 1 double_multi_mergesort1691011468
	sslittle-na-sstrix-gcc -Wall -O3 -funroll-loops -finline-functions  -DRANDOM_SIZE=8192 -DOFFSET=9 -DSORT=double_multi_mergesort sorts/double_multi_mergesort1912485687.c simpleMain.c -o double_multi_mergesort1691011468
	sim-cache -cache:dl1 dl1:256:32:1:l -cache:dl2 dl2:131072:32:1:l -cache:il1 il1:256:32:1:l -cache:il2 dl2 double_multi_mergesort1691011468
	sim-cache -cache:dl1 dl1:256:32:1:l -cache:dl2 dl2:65536:32:1:l -cache:il1 il1:256:32:1:l -cache:il2 dl2 double_multi_mergesort1691011468
	sim-cache -cache:dl1 dl1:1:32:256:l -cache:dl2 dl2:1:32:131072:l -cache:il1 il1:1:32:256:l -cache:il2 dl2 double_multi_mergesort1691011468
	sim-cache -cache:dl1 dl1:1:32:256:l -cache:dl2 dl2:1:32:65536:l -cache:il1 il1:1:32:256:l -cache:il2 dl2 double_multi_mergesort1691011468
	sim-bpred -bpred bimod -bpred:bimod 512 double_multi_mergesort1691011468
	sim-bpred -bpred bimod -bpred:bimod 1024 double_multi_mergesort1691011468
	sim-bpred -bpred bimod -bpred:bimod 2048 double_multi_mergesort1691011468
	sim-bpred -bpred 2lev -bpred:2lev 1 512 10 1 double_multi_mergesort1691011468
	sim-bpred -bpred 2lev -bpred:2lev 1 1024 10 1 double_multi_mergesort1691011468
	sim-bpred -bpred 2lev -bpred:2lev 1 2048 10 1 double_multi_mergesort1691011468
	sim-bpred -bpred 2lev -bpred:2lev 1 4096 10 1 double_multi_mergesort1691011468
	sslittle-na-sstrix-gcc -Wall -O3 -funroll-loops -finline-functions  -DRANDOM_SIZE=16384 -DOFFSET=9 -DSORT=double_multi_mergesort sorts/double_multi_mergesort1912485687.c simpleMain.c -o double_multi_mergesort1691011468
	sim-cache -cache:dl1 dl1:256:32:1:l -cache:dl2 dl2:131072:32:1:l -cache:il1 il1:256:32:1:l -cache:il2 dl2 double_multi_mergesort1691011468
	sim-cache -cache:dl1 dl1:256:32:1:l -cache:dl2 dl2:65536:32:1:l -cache:il1 il1:256:32:1:l -cache:il2 dl2 double_multi_mergesort1691011468
	sim-cache -cache:dl1 dl1:1:32:256:l -cache:dl2 dl2:1:32:131072:l -cache:il1 il1:1:32:256:l -cache:il2 dl2 double_multi_mergesort1691011468
	sim-cache -cache:dl1 dl1:1:32:256:l -cache:dl2 dl2:1:32:65536:l -cache:il1 il1:1:32:256:l -cache:il2 dl2 double_multi_mergesort1691011468
	sim-bpred -bpred bimod -bpred:bimod 512 double_multi_mergesort1691011468
	sim-bpred -bpred bimod -bpred:bimod 1024 double_multi_mergesort1691011468
	sim-bpred -bpred bimod -bpred:bimod 2048 double_multi_mergesort1691011468
	sim-bpred -bpred 2lev -bpred:2lev 1 512 10 1 double_multi_mergesort1691011468
	sim-bpred -bpred 2lev -bpred:2lev 1 1024 10 1 double_multi_mergesort1691011468
	sim-bpred -bpred 2lev -bpred:2lev 1 2048 10 1 double_multi_mergesort1691011468
	sim-bpred -bpred 2lev -bpred:2lev 1 4096 10 1 double_multi_mergesort1691011468
	sslittle-na-sstrix-gcc -Wall -O3 -funroll-loops -finline-functions  -DRANDOM_SIZE=32768 -DOFFSET=9 -DSORT=double_multi_mergesort sorts/double_multi_mergesort1912485687.c simpleMain.c -o double_multi_mergesort1691011468
	sim-cache -cache:dl1 dl1:256:32:1:l -cache:dl2 dl2:131072:32:1:l -cache:il1 il1:256:32:1:l -cache:il2 dl2 double_multi_mergesort1691011468
	sim-cache -cache:dl1 dl1:256:32:1:l -cache:dl2 dl2:65536:32:1:l -cache:il1 il1:256:32:1:l -cache:il2 dl2 double_multi_mergesort1691011468
	sim-cache -cache:dl1 dl1:1:32:256:l -cache:dl2 dl2:1:32:131072:l -cache:il1 il1:1:32:256:l -cache:il2 dl2 double_multi_mergesort1691011468
	sim-cache -cache:dl1 dl1:1:32:256:l -cache:dl2 dl2:1:32:65536:l -cache:il1 il1:1:32:256:l -cache:il2 dl2 double_multi_mergesort1691011468
	sim-bpred -bpred bimod -bpred:bimod 512 double_multi_mergesort1691011468
	sim-bpred -bpred bimod -bpred:bimod 1024 double_multi_mergesort1691011468
	sim-bpred -bpred bimod -bpred:bimod 2048 double_multi_mergesort1691011468
	sim-bpred -bpred 2lev -bpred:2lev 1 512 10 1 double_multi_mergesort1691011468
	sim-bpred -bpred 2lev -bpred:2lev 1 1024 10 1 double_multi_mergesort1691011468
	sim-bpred -bpred 2lev -bpred:2lev 1 2048 10 1 double_multi_mergesort1691011468
	sim-bpred -bpred 2lev -bpred:2lev 1 4096 10 1 double_multi_mergesort1691011468
	sslittle-na-sstrix-gcc -Wall -O3 -funroll-loops -finline-functions  -DRANDOM_SIZE=65536 -DOFFSET=9 -DSORT=double_multi_mergesort sorts/double_multi_mergesort1912485687.c simpleMain.c -o double_multi_mergesort1691011468
	sim-cache -cache:dl1 dl1:256:32:1:l -cache:dl2 dl2:131072:32:1:l -cache:il1 il1:256:32:1:l -cache:il2 dl2 double_multi_mergesort1691011468
	sim-cache -cache:dl1 dl1:256:32:1:l -cache:dl2 dl2:65536:32:1:l -cache:il1 il1:256:32:1:l -cache:il2 dl2 double_multi_mergesort1691011468
	sim-cache -cache:dl1 dl1:1:32:256:l -cache:dl2 dl2:1:32:131072:l -cache:il1 il1:1:32:256:l -cache:il2 dl2 double_multi_mergesort1691011468
	sim-cache -cache:dl1 dl1:1:32:256:l -cache:dl2 dl2:1:32:65536:l -cache:il1 il1:1:32:256:l -cache:il2 dl2 double_multi_mergesort1691011468
	sim-bpred -bpred bimod -bpred:bimod 512 double_multi_mergesort1691011468
	sim-bpred -bpred bimod -bpred:bimod 1024 double_multi_mergesort1691011468
	sim-bpred -bpred bimod -bpred:bimod 2048 double_multi_mergesort1691011468
	sim-bpred -bpred 2lev -bpred:2lev 1 512 10 1 double_multi_mergesort1691011468
	sim-bpred -bpred 2lev -bpred:2lev 1 1024 10 1 double_multi_mergesort1691011468
	sim-bpred -bpred 2lev -bpred:2lev 1 2048 10 1 double_multi_mergesort1691011468
	sim-bpred -bpred 2lev -bpred:2lev 1 4096 10 1 double_multi_mergesort1691011468
	sslittle-na-sstrix-gcc -Wall -O3 -funroll-loops -finline-functions  -DRANDOM_SIZE=131072 -DOFFSET=9 -DSORT=double_multi_mergesort sorts/double_multi_mergesort1912485687.c simpleMain.c -o double_multi_mergesort1691011468
	sim-cache -cache:dl1 dl1:256:32:1:l -cache:dl2 dl2:131072:32:1:l -cache:il1 il1:256:32:1:l -cache:il2 dl2 double_multi_mergesort1691011468
	sim-cache -cache:dl1 dl1:256:32:1:l -cache:dl2 dl2:65536:32:1:l -cache:il1 il1:256:32:1:l -cache:il2 dl2 double_multi_mergesort1691011468
	sim-cache -cache:dl1 dl1:1:32:256:l -cache:dl2 dl2:1:32:131072:l -cache:il1 il1:1:32:256:l -cache:il2 dl2 double_multi_mergesort1691011468
	sim-cache -cache:dl1 dl1:1:32:256:l -cache:dl2 dl2:1:32:65536:l -cache:il1 il1:1:32:256:l -cache:il2 dl2 double_multi_mergesort1691011468
	sim-bpred -bpred bimod -bpred:bimod 512 double_multi_mergesort1691011468
	sim-bpred -bpred bimod -bpred:bimod 1024 double_multi_mergesort1691011468
	sim-bpred -bpred bimod -bpred:bimod 2048 double_multi_mergesort1691011468
	sim-bpred -bpred 2lev -bpred:2lev 1 512 10 1 double_multi_mergesort1691011468
	sim-bpred -bpred 2lev -bpred:2lev 1 1024 10 1 double_multi_mergesort1691011468
	sim-bpred -bpred 2lev -bpred:2lev 1 2048 10 1 double_multi_mergesort1691011468
	sim-bpred -bpred 2lev -bpred:2lev 1 4096 10 1 double_multi_mergesort1691011468
	sslittle-na-sstrix-gcc -Wall -O3 -funroll-loops -finline-functions  -DRANDOM_SIZE=262144 -DOFFSET=9 -DSORT=double_multi_mergesort sorts/double_multi_mergesort1912485687.c simpleMain.c -o double_multi_mergesort1691011468
	sim-cache -cache:dl1 dl1:256:32:1:l -cache:dl2 dl2:131072:32:1:l -cache:il1 il1:256:32:1:l -cache:il2 dl2 double_multi_mergesort1691011468
	sim-cache -cache:dl1 dl1:256:32:1:l -cache:dl2 dl2:65536:32:1:l -cache:il1 il1:256:32:1:l -cache:il2 dl2 double_multi_mergesort1691011468
	sim-cache -cache:dl1 dl1:1:32:256:l -cache:dl2 dl2:1:32:131072:l -cache:il1 il1:1:32:256:l -cache:il2 dl2 double_multi_mergesort1691011468
	sim-cache -cache:dl1 dl1:1:32:256:l -cache:dl2 dl2:1:32:65536:l -cache:il1 il1:1:32:256:l -cache:il2 dl2 double_multi_mergesort1691011468
	sim-bpred -bpred bimod -bpred:bimod 512 double_multi_mergesort1691011468
	sim-bpred -bpred bimod -bpred:bimod 1024 double_multi_mergesort1691011468
	sim-bpred -bpred bimod -bpred:bimod 2048 double_multi_mergesort1691011468
	sim-bpred -bpred 2lev -bpred:2lev 1 512 10 1 double_multi_mergesort1691011468
	sim-bpred -bpred 2lev -bpred:2lev 1 1024 10 1 double_multi_mergesort1691011468
	sim-bpred -bpred 2lev -bpred:2lev 1 2048 10 1 double_multi_mergesort1691011468
	sim-bpred -bpred 2lev -bpred:2lev 1 4096 10 1 double_multi_mergesort1691011468
	sslittle-na-sstrix-gcc -Wall -O3 -funroll-loops -finline-functions  -DRANDOM_SIZE=524288 -DOFFSET=9 -DSORT=double_multi_mergesort sorts/double_multi_mergesort1912485687.c simpleMain.c -o double_multi_mergesort1691011468
	sim-cache -cache:dl1 dl1:256:32:1:l -cache:dl2 dl2:131072:32:1:l -cache:il1 il1:256:32:1:l -cache:il2 dl2 double_multi_mergesort1691011468
	sim-cache -cache:dl1 dl1:256:32:1:l -cache:dl2 dl2:65536:32:1:l -cache:il1 il1:256:32:1:l -cache:il2 dl2 double_multi_mergesort1691011468
	sim-cache -cache:dl1 dl1:1:32:256:l -cache:dl2 dl2:1:32:131072:l -cache:il1 il1:1:32:256:l -cache:il2 dl2 double_multi_mergesort1691011468
	sim-cache -cache:dl1 dl1:1:32:256:l -cache:dl2 dl2:1:32:65536:l -cache:il1 il1:1:32:256:l -cache:il2 dl2 double_multi_mergesort1691011468
	sim-bpred -bpred bimod -bpred:bimod 512 double_multi_mergesort1691011468
	sim-bpred -bpred bimod -bpred:bimod 1024 double_multi_mergesort1691011468
	sim-bpred -bpred bimod -bpred:bimod 2048 double_multi_mergesort1691011468
	sim-bpred -bpred 2lev -bpred:2lev 1 512 10 1 double_multi_mergesort1691011468
	sim-bpred -bpred 2lev -bpred:2lev 1 1024 10 1 double_multi_mergesort1691011468
	sim-bpred -bpred 2lev -bpred:2lev 1 2048 10 1 double_multi_mergesort1691011468
	sim-bpred -bpred 2lev -bpred:2lev 1 4096 10 1 double_multi_mergesort1691011468
	sslittle-na-sstrix-gcc -Wall -O3 -funroll-loops -finline-functions  -DRANDOM_SIZE=1048576 -DOFFSET=9 -DSORT=double_multi_mergesort sorts/double_multi_mergesort1912485687.c simpleMain.c -o double_multi_mergesort1691011468
	sim-cache -cache:dl1 dl1:256:32:1:l -cache:dl2 dl2:131072:32:1:l -cache:il1 il1:256:32:1:l -cache:il2 dl2 double_multi_mergesort1691011468
	sim-cache -cache:dl1 dl1:256:32:1:l -cache:dl2 dl2:65536:32:1:l -cache:il1 il1:256:32:1:l -cache:il2 dl2 double_multi_mergesort1691011468
	sim-cache -cache:dl1 dl1:1:32:256:l -cache:dl2 dl2:1:32:131072:l -cache:il1 il1:1:32:256:l -cache:il2 dl2 double_multi_mergesort1691011468
	sim-cache -cache:dl1 dl1:1:32:256:l -cache:dl2 dl2:1:32:65536:l -cache:il1 il1:1:32:256:l -cache:il2 dl2 double_multi_mergesort1691011468
	sim-bpred -bpred bimod -bpred:bimod 512 double_multi_mergesort1691011468
	sim-bpred -bpred bimod -bpred:bimod 1024 double_multi_mergesort1691011468
	sim-bpred -bpred bimod -bpred:bimod 2048 double_multi_mergesort1691011468
	sim-bpred -bpred 2lev -bpred:2lev 1 512 10 1 double_multi_mergesort1691011468
	sim-bpred -bpred 2lev -bpred:2lev 1 1024 10 1 double_multi_mergesort1691011468
	sim-bpred -bpred 2lev -bpred:2lev 1 2048 10 1 double_multi_mergesort1691011468
	sim-bpred -bpred 2lev -bpred:2lev 1 4096 10 1 double_multi_mergesort1691011468
	sslittle-na-sstrix-gcc -Wall -O3 -funroll-loops -finline-functions  -DRANDOM_SIZE=2097152 -DOFFSET=9 -DSORT=double_multi_mergesort sorts/double_multi_mergesort1912485687.c simpleMain.c -o double_multi_mergesort1691011468
	sim-cache -cache:dl1 dl1:256:32:1:l -cache:dl2 dl2:131072:32:1:l -cache:il1 il1:256:32:1:l -cache:il2 dl2 double_multi_mergesort1691011468
	sim-cache -cache:dl1 dl1:256:32:1:l -cache:dl2 dl2:65536:32:1:l -cache:il1 il1:256:32:1:l -cache:il2 dl2 double_multi_mergesort1691011468
	sim-cache -cache:dl1 dl1:1:32:256:l -cache:dl2 dl2:1:32:131072:l -cache:il1 il1:1:32:256:l -cache:il2 dl2 double_multi_mergesort1691011468
	sim-cache -cache:dl1 dl1:1:32:256:l -cache:dl2 dl2:1:32:65536:l -cache:il1 il1:1:32:256:l -cache:il2 dl2 double_multi_mergesort1691011468
	sim-bpred -bpred bimod -bpred:bimod 512 double_multi_mergesort1691011468
	sim-bpred -bpred bimod -bpred:bimod 1024 double_multi_mergesort1691011468
	sim-bpred -bpred bimod -bpred:bimod 2048 double_multi_mergesort1691011468
	sim-bpred -bpred 2lev -bpred:2lev 1 512 10 1 double_multi_mergesort1691011468
	sim-bpred -bpred 2lev -bpred:2lev 1 1024 10 1 double_multi_mergesort1691011468
	sim-bpred -bpred 2lev -bpred:2lev 1 2048 10 1 double_multi_mergesort1691011468
	sim-bpred -bpred 2lev -bpred:2lev 1 4096 10 1 double_multi_mergesort1691011468
	sslittle-na-sstrix-gcc -Wall -O3 -funroll-loops -finline-functions  -DRANDOM_SIZE=4194304 -DOFFSET=9 -DSORT=double_multi_mergesort sorts/double_multi_mergesort1912485687.c simpleMain.c -o double_multi_mergesort1691011468
	sim-cache -cache:dl1 dl1:256:32:1:l -cache:dl2 dl2:131072:32:1:l -cache:il1 il1:256:32:1:l -cache:il2 dl2 double_multi_mergesort1691011468
	sim-cache -cache:dl1 dl1:256:32:1:l -cache:dl2 dl2:65536:32:1:l -cache:il1 il1:256:32:1:l -cache:il2 dl2 double_multi_mergesort1691011468
	sim-cache -cache:dl1 dl1:1:32:256:l -cache:dl2 dl2:1:32:131072:l -cache:il1 il1:1:32:256:l -cache:il2 dl2 double_multi_mergesort1691011468
	sim-cache -cache:dl1 dl1:1:32:256:l -cache:dl2 dl2:1:32:65536:l -cache:il1 il1:1:32:256:l -cache:il2 dl2 double_multi_mergesort1691011468
	sim-bpred -bpred bimod -bpred:bimod 512 double_multi_mergesort1691011468
	sim-bpred -bpred bimod -bpred:bimod 1024 double_multi_mergesort1691011468
	sim-bpred -bpred bimod -bpred:bimod 2048 double_multi_mergesort1691011468
	sim-bpred -bpred 2lev -bpred:2lev 1 512 10 1 double_multi_mergesort1691011468
	sim-bpred -bpred 2lev -bpred:2lev 1 1024 10 1 double_multi_mergesort1691011468
	sim-bpred -bpred 2lev -bpred:2lev 1 2048 10 1 double_multi_mergesort1691011468
	sim-bpred -bpred 2lev -bpred:2lev 1 4096 10 1 double_multi_mergesort1691011468
