Sun Jul  3 01:14:05 2005
Run as: "./do_simple -c random.org3 -o 3 double_aligned_multi_mergesort"
-------------------------------------------------------------------------------------------------
sim-cache                                     4096 |         4096 |         4096 |         4096 |         8192 |         8192 |         8192 |         8192 |        16384 |        16384 |        16384 |        16384 |        32768 |        32768 |        32768 |        32768 |        65536 |        65536 |        65536 |        65536 |       131072 |       131072 |       131072 |       131072 |       262144 |       262144 |       262144 |       262144 |       524288 |       524288 |       524288 |       524288 |      1048576 |      1048576 |      1048576 |      1048576 |      2097152 |      2097152 |      2097152 |      2097152 |      4194304 |      4194304 |      4194304 |      4194304 |
-cache:dl1 dl1:256:32:1:l -cache:dl2 dl2:131072:32:1:l -cache:il1 il1:256:32:1:l -cache:il2 dl2
-cache:dl1 dl1:256:32:1:l -cache:dl2 dl2:65536:32:1:l -cache:il1 il1:256:32:1:l -cache:il2 dl2
-cache:dl1 dl1:1:32:256:l -cache:dl2 dl2:1:32:131072:l -cache:il1 il1:1:32:256:l -cache:il2 dl2
-cache:dl1 dl1:1:32:256:l -cache:dl2 dl2:1:32:65536:l -cache:il1 il1:1:32:256:l -cache:il2 dl2
-------------------------------------------------------------------------------------------------
sim_num_insn                                860247 |       860247 |       860247 |       860247 |      1749956 |      1749956 |      1749956 |      1749956 |      3960518 |      3960518 |      3960518 |      3960518 |      8062773 |      8062773 |      8062773 |      8062773 |     17979458 |     17979458 |     17979458 |     17979458 |     36566885 |     36566885 |     36566885 |     36566885 |     77441616 |     77441616 |     77441616 |     77441616 |    223370541 |    223370541 |    223370541 |    223370541 |    473222859 |    473222859 |    473222859 |    473222859 |   1035624936 |   1035624936 |   1035624936 |   1035624936 |   2186591559 |   2186591559 |   2186591559 |   2186591559 |
sim_num_refs                                229034 |       229034 |       229034 |       229034 |       471823 |       471823 |       471823 |       471823 |      1051707 |      1051707 |      1051707 |      1051707 |      2171280 |      2171280 |      2171280 |      2171280 |      4784126 |      4784126 |      4784126 |      4784126 |      9854376 |      9854376 |      9854376 |      9854376 |     20881427 |     20881427 |     20881427 |     20881427 |     60939328 |     60939328 |     60939328 |     60939328 |    130164136 |    130164136 |    130164136 |    130164136 |    283165805 |    283165805 |    283165805 |    283165805 |    604290586 |    604290586 |    604290586 |    604290586 |
sim_elapsed_time                                 1 |            1 |           11 |            5 |            1 |            1 |           16 |            8 |            2 |            1 |           26 |           14 |            2 |            2 |           48 |           24 |            5 |            5 |           88 |           44 |           10 |           10 |          162 |           75 |           20 |           21 |          277 |          107 |           59 |           59 |          401 |          148 |          126 |          127 |          471 |          219 |          280 |          276 |          632 |          380 |          582 |          581 |          958 |          709 |
sim_inst_rate                          860247.0000 |  860247.0000 |   78204.2727 |  172049.4000 | 1749956.0000 | 1749956.0000 |  109372.2500 |  218744.5000 | 1980259.0000 | 3960518.0000 |  152327.6154 |  282894.1429 | 4031386.5000 | 4031386.5000 |  167974.4375 |  335948.8750 | 3595891.6000 | 3595891.6000 |  204312.0227 |  408624.0455 | 3656688.5000 | 3656688.5000 |  225721.5123 |  487558.4667 | 3872080.8000 | 3687696.0000 |  279572.6209 |  723753.4206 | 3785941.3729 | 3785941.3729 |  557033.7681 | 1509260.4122 | 3755736.9762 | 3726164.2441 | 1004719.4459 | 2160834.9726 | 3698660.4857 | 3752264.2609 | 1638647.0506 | 2725328.7789 | 3757030.1701 | 3763496.6592 | 2282454.6545 | 3084050.1537 |
il1.accesses                                860247 |       860247 |       860247 |       860247 |      1749956 |      1749956 |      1749956 |      1749956 |      3960518 |      3960518 |      3960518 |      3960518 |      8062773 |      8062773 |      8062773 |      8062773 |     17979458 |     17979458 |     17979458 |     17979458 |     36566885 |     36566885 |     36566885 |     36566885 |     77441616 |     77441616 |     77441616 |     77441616 |    223370541 |    223370541 |    223370541 |    223370541 |    473222859 |    473222859 |    473222859 |    473222859 |   1035624936 |   1035624936 |   1035624936 |   1035624936 |   2186591559 |   2186591559 |   2186591559 |   2186591559 |
il1.hits                                    859561 |       859561 |       859666 |       859666 |      1749225 |      1749225 |      1749354 |      1749354 |      3959772 |      3959772 |      3959944 |      3959944 |      8061895 |      8061895 |      8062168 |      8062168 |     17978410 |     17978410 |     17978875 |     17978875 |     36565431 |     36565431 |     36566280 |     36566280 |     77439902 |     77439902 |     77441013 |     77441013 |    222058808 |    222058808 |    223369647 |    223369647 |    470600358 |    470600358 |    473221922 |    473221922 |   1030380999 |   1030380999 |   1035624014 |   1035624014 |   2176104709 |   2176104709 |   2186590619 |   2186590619 |
il1.misses                                     686 |          686 |          581 |          581 |          731 |          731 |          602 |          602 |          746 |          746 |          574 |          574 |          878 |          878 |          605 |          605 |         1048 |         1048 |          583 |          583 |         1454 |         1454 |          605 |          605 |         1714 |         1714 |          603 |          603 |      1311733 |      1311733 |          894 |          894 |      2622501 |      2622501 |          937 |          937 |      5243937 |      5243937 |          922 |          922 |     10486850 |     10486850 |          940 |          940 |
il1.replacements                               452 |          452 |          325 |          325 |          495 |          495 |          346 |          346 |          511 |          511 |          318 |          318 |          642 |          642 |          349 |          349 |          813 |          813 |          327 |          327 |         1218 |         1218 |          349 |          349 |         1477 |         1477 |          347 |          347 |      1311477 |      1311477 |          638 |          638 |      2622245 |      2622245 |          681 |          681 |      5243681 |      5243681 |          666 |          666 |     10486594 |     10486594 |          684 |          684 |
il1.writebacks                                   0 |            0 |            0 |            0 |            0 |            0 |            0 |            0 |            0 |            0 |            0 |            0 |            0 |            0 |            0 |            0 |            0 |            0 |            0 |            0 |            0 |            0 |            0 |            0 |            0 |            0 |            0 |            0 |            0 |            0 |            0 |            0 |            0 |            0 |            0 |            0 |            0 |            0 |            0 |            0 |            0 |            0 |            0 |            0 |
il1.invalidations                                0 |            0 |            0 |            0 |            0 |            0 |            0 |            0 |            0 |            0 |            0 |            0 |            0 |            0 |            0 |            0 |            0 |            0 |            0 |            0 |            0 |            0 |            0 |            0 |            0 |            0 |            0 |            0 |            0 |            0 |            0 |            0 |            0 |            0 |            0 |            0 |            0 |            0 |            0 |            0 |            0 |            0 |            0 |            0 |
il1.miss_rate                               0.0008 |       0.0008 |       0.0007 |       0.0007 |       0.0004 |       0.0004 |       0.0003 |       0.0003 |       0.0002 |       0.0002 |       0.0001 |       0.0001 |       0.0001 |       0.0001 |       0.0001 |       0.0001 |       0.0001 |       0.0001 |       0.0000 |       0.0000 |       0.0000 |       0.0000 |       0.0000 |       0.0000 |       0.0000 |       0.0000 |       0.0000 |       0.0000 |       0.0059 |       0.0059 |       0.0000 |       0.0000 |       0.0055 |       0.0055 |       0.0000 |       0.0000 |       0.0051 |       0.0051 |       0.0000 |       0.0000 |       0.0048 |       0.0048 |       0.0000 |       0.0000 |
il1.repl_rate                               0.0005 |       0.0005 |       0.0004 |       0.0004 |       0.0003 |       0.0003 |       0.0002 |       0.0002 |       0.0001 |       0.0001 |       0.0001 |       0.0001 |       0.0001 |       0.0001 |       0.0000 |       0.0000 |       0.0000 |       0.0000 |       0.0000 |       0.0000 |       0.0000 |       0.0000 |       0.0000 |       0.0000 |       0.0000 |       0.0000 |       0.0000 |       0.0000 |       0.0059 |       0.0059 |       0.0000 |       0.0000 |       0.0055 |       0.0055 |       0.0000 |       0.0000 |       0.0051 |       0.0051 |       0.0000 |       0.0000 |       0.0048 |       0.0048 |       0.0000 |       0.0000 |
il1.wb_rate                                 0.0000 |       0.0000 |       0.0000 |       0.0000 |       0.0000 |       0.0000 |       0.0000 |       0.0000 |       0.0000 |       0.0000 |       0.0000 |       0.0000 |       0.0000 |       0.0000 |       0.0000 |       0.0000 |       0.0000 |       0.0000 |       0.0000 |       0.0000 |       0.0000 |       0.0000 |       0.0000 |       0.0000 |       0.0000 |       0.0000 |       0.0000 |       0.0000 |       0.0000 |       0.0000 |       0.0000 |       0.0000 |       0.0000 |       0.0000 |       0.0000 |       0.0000 |       0.0000 |       0.0000 |       0.0000 |       0.0000 |       0.0000 |       0.0000 |       0.0000 |       0.0000 |
il1.inv_rate                                0.0000 |       0.0000 |       0.0000 |       0.0000 |       0.0000 |       0.0000 |       0.0000 |       0.0000 |       0.0000 |       0.0000 |       0.0000 |       0.0000 |       0.0000 |       0.0000 |       0.0000 |       0.0000 |       0.0000 |       0.0000 |       0.0000 |       0.0000 |       0.0000 |       0.0000 |       0.0000 |       0.0000 |       0.0000 |       0.0000 |       0.0000 |       0.0000 |       0.0000 |       0.0000 |       0.0000 |       0.0000 |       0.0000 |       0.0000 |       0.0000 |       0.0000 |       0.0000 |       0.0000 |       0.0000 |       0.0000 |       0.0000 |       0.0000 |       0.0000 |       0.0000 |
dl1.accesses                                245500 |       245500 |       245500 |       245500 |       504673 |       504673 |       504673 |       504673 |      1117325 |      1117325 |      1117325 |      1117325 |      2302434 |      2302434 |      2302434 |      2302434 |      5046352 |      5046352 |      5046352 |      5046352 |     10378746 |     10378746 |     10378746 |     10378746 |     21930085 |     21930085 |     21930085 |     21930085 |     63036562 |     63036562 |     63036562 |     63036562 |    134358522 |    134358522 |    134358522 |    134358522 |    291554495 |    291554495 |    291554495 |    291554495 |    621067884 |    621067884 |    621067884 |    621067884 |
dl1.hits                                    240053 |       240053 |       238563 |       238563 |       492108 |       492108 |       490499 |       490499 |      1088056 |      1088056 |      1082787 |      1082787 |      2235568 |      2235568 |      2230651 |      2230651 |      4894153 |      4894153 |      4876718 |      4876718 |     10039964 |     10039964 |     10027545 |     10027545 |     21178774 |     21178774 |     21162571 |     21162571 |     61232551 |     61232551 |     61287805 |     61287805 |    130739799 |    130739799 |    131025881 |    131025881 |    284305543 |    284305543 |    284565706 |    284565706 |    606519261 |    606519261 |    607739483 |    607739483 |
dl1.misses                                    5447 |         5447 |         6937 |         6937 |        12565 |        12565 |        14174 |        14174 |        29269 |        29269 |        34538 |        34538 |        66866 |        66866 |        71783 |        71783 |       152199 |       152199 |       169634 |       169634 |       338782 |       338782 |       351201 |       351201 |       751311 |       751311 |       767514 |       767514 |      1804011 |      1804011 |      1748757 |      1748757 |      3618723 |      3618723 |      3332641 |      3332641 |      7248952 |      7248952 |      6988789 |      6988789 |     14548623 |     14548623 |     13328401 |     13328401 |
dl1.replacements                              5191 |         5191 |         6681 |         6681 |        12309 |        12309 |        13918 |        13918 |        29013 |        29013 |        34282 |        34282 |        66610 |        66610 |        71527 |        71527 |       151943 |       151943 |       169378 |       169378 |       338526 |       338526 |       350945 |       350945 |       751055 |       751055 |       767258 |       767258 |      1803755 |      1803755 |      1748501 |      1748501 |      3618467 |      3618467 |      3332385 |      3332385 |      7248696 |      7248696 |      6988533 |      6988533 |     14548367 |     14548367 |     13328145 |     13328145 |
dl1.writebacks                                3517 |         3517 |         5046 |         5046 |         7773 |         7773 |         9752 |         9752 |        17439 |        17439 |        23360 |        23360 |        38748 |        38748 |        46374 |        46374 |        86171 |        86171 |       108972 |       108972 |       188741 |       188741 |       217263 |       217263 |       412079 |       412079 |       467014 |       467014 |      1045409 |      1045409 |      1067561 |      1067561 |      2095952 |      2095952 |      1999587 |      1999587 |      4211171 |      4211171 |      4266390 |      4266390 |      8460102 |      8460102 |      7998093 |      7998093 |
dl1.invalidations                                0 |            0 |            0 |            0 |            0 |            0 |            0 |            0 |            0 |            0 |            0 |            0 |            0 |            0 |            0 |            0 |            0 |            0 |            0 |            0 |            0 |            0 |            0 |            0 |            0 |            0 |            0 |            0 |            0 |            0 |            0 |            0 |            0 |            0 |            0 |            0 |            0 |            0 |            0 |            0 |            0 |            0 |            0 |            0 |
dl1.miss_rate                               0.0222 |       0.0222 |       0.0283 |       0.0283 |       0.0249 |       0.0249 |       0.0281 |       0.0281 |       0.0262 |       0.0262 |       0.0309 |       0.0309 |       0.0290 |       0.0290 |       0.0312 |       0.0312 |       0.0302 |       0.0302 |       0.0336 |       0.0336 |       0.0326 |       0.0326 |       0.0338 |       0.0338 |       0.0343 |       0.0343 |       0.0350 |       0.0350 |       0.0286 |       0.0286 |       0.0277 |       0.0277 |       0.0269 |       0.0269 |       0.0248 |       0.0248 |       0.0249 |       0.0249 |       0.0240 |       0.0240 |       0.0234 |       0.0234 |       0.0215 |       0.0215 |
dl1.repl_rate                               0.0211 |       0.0211 |       0.0272 |       0.0272 |       0.0244 |       0.0244 |       0.0276 |       0.0276 |       0.0260 |       0.0260 |       0.0307 |       0.0307 |       0.0289 |       0.0289 |       0.0311 |       0.0311 |       0.0301 |       0.0301 |       0.0336 |       0.0336 |       0.0326 |       0.0326 |       0.0338 |       0.0338 |       0.0342 |       0.0342 |       0.0350 |       0.0350 |       0.0286 |       0.0286 |       0.0277 |       0.0277 |       0.0269 |       0.0269 |       0.0248 |       0.0248 |       0.0249 |       0.0249 |       0.0240 |       0.0240 |       0.0234 |       0.0234 |       0.0215 |       0.0215 |
dl1.wb_rate                                 0.0143 |       0.0143 |       0.0206 |       0.0206 |       0.0154 |       0.0154 |       0.0193 |       0.0193 |       0.0156 |       0.0156 |       0.0209 |       0.0209 |       0.0168 |       0.0168 |       0.0201 |       0.0201 |       0.0171 |       0.0171 |       0.0216 |       0.0216 |       0.0182 |       0.0182 |       0.0209 |       0.0209 |       0.0188 |       0.0188 |       0.0213 |       0.0213 |       0.0166 |       0.0166 |       0.0169 |       0.0169 |       0.0156 |       0.0156 |       0.0149 |       0.0149 |       0.0144 |       0.0144 |       0.0146 |       0.0146 |       0.0136 |       0.0136 |       0.0129 |       0.0129 |
dl1.inv_rate                                0.0000 |       0.0000 |       0.0000 |       0.0000 |       0.0000 |       0.0000 |       0.0000 |       0.0000 |       0.0000 |       0.0000 |       0.0000 |       0.0000 |       0.0000 |       0.0000 |       0.0000 |       0.0000 |       0.0000 |       0.0000 |       0.0000 |       0.0000 |       0.0000 |       0.0000 |       0.0000 |       0.0000 |       0.0000 |       0.0000 |       0.0000 |       0.0000 |       0.0000 |       0.0000 |       0.0000 |       0.0000 |       0.0000 |       0.0000 |       0.0000 |       0.0000 |       0.0000 |       0.0000 |       0.0000 |       0.0000 |       0.0000 |       0.0000 |       0.0000 |       0.0000 |
dl2.accesses                                  9650 |         9650 |        12564 |        12564 |        21069 |        21069 |        24528 |        24528 |        47454 |        47454 |        58472 |        58472 |       106492 |       106492 |       118762 |       118762 |       239418 |       239418 |       279189 |       279189 |       528977 |       528977 |       569069 |       569069 |      1165104 |      1165104 |      1235131 |      1235131 |      4161153 |      4161153 |      2817212 |      2817212 |      8337176 |      8337176 |      5333165 |      5333165 |     16704060 |     16704060 |     11256101 |     11256101 |     33495575 |     33495575 |     21327434 |     21327434 |
dl2.hits                                      7611 |         7611 |        10596 |        10596 |        17967 |        17967 |        21519 |        21519 |        42346 |        42346 |        53438 |        53438 |        97244 |        97244 |       109607 |       109607 |       222014 |       222014 |       261859 |       261859 |       495153 |       495153 |       535338 |       535338 |      1098523 |      1095940 |      1168635 |      1132052 |      3973507 |      3868567 |      2647947 |      2425847 |      7743517 |      7672919 |      4685902 |      4553702 |     15373952 |     15372600 |      9946692 |      9700397 |     30834254 |     30832379 |     18703463 |     18218415 |
dl2.misses                                    2039 |         2039 |         1968 |         1968 |         3102 |         3102 |         3009 |         3009 |         5108 |         5108 |         5034 |         5034 |         9248 |         9248 |         9155 |         9155 |        17404 |        17404 |        17330 |        17330 |        33824 |        33824 |        33731 |        33731 |        66581 |        69164 |        66496 |       103079 |       187646 |       292586 |       169265 |       391365 |       593659 |       664257 |       647263 |       779463 |      1330108 |      1331460 |      1309409 |      1555704 |      2661321 |      2663196 |      2623971 |      3109019 |
dl2.replacements                               231 |          231 |            0 |            0 |          269 |          269 |            0 |            0 |          234 |          234 |            0 |            0 |          269 |          269 |            0 |            0 |          234 |          234 |            0 |            0 |          269 |          269 |            0 |            0 |          254 |         3744 |            0 |        37543 |        87758 |       227050 |        38193 |       325829 |       462587 |       598721 |       516191 |       713927 |      1199036 |      1265924 |      1178337 |      1490168 |      2530249 |      2597660 |      2492899 |      3043483 |
dl2.writebacks                                 104 |          104 |            0 |            0 |          108 |          108 |            0 |            0 |          107 |          107 |            0 |            0 |          108 |          108 |            0 |            0 |          107 |          107 |            0 |            0 |          108 |          108 |            0 |            0 |           99 |         2231 |            0 |        37088 |        87497 |       190823 |        37355 |       291968 |       393703 |       478248 |       460430 |       614403 |       959968 |      1001787 |       985375 |      1259434 |      2004971 |      2059001 |      2035344 |      2550273 |
dl2.invalidations                                0 |            0 |            0 |            0 |            0 |            0 |            0 |            0 |            0 |            0 |            0 |            0 |            0 |            0 |            0 |            0 |            0 |            0 |            0 |            0 |            0 |            0 |            0 |            0 |            0 |            0 |            0 |            0 |            0 |            0 |            0 |            0 |            0 |            0 |            0 |            0 |            0 |            0 |            0 |            0 |            0 |            0 |            0 |            0 |
dl2.miss_rate                               0.2113 |       0.2113 |       0.1566 |       0.1566 |       0.1472 |       0.1472 |       0.1227 |       0.1227 |       0.1076 |       0.1076 |       0.0861 |       0.0861 |       0.0868 |       0.0868 |       0.0771 |       0.0771 |       0.0727 |       0.0727 |       0.0621 |       0.0621 |       0.0639 |       0.0639 |       0.0593 |       0.0593 |       0.0571 |       0.0594 |       0.0538 |       0.0835 |       0.0451 |       0.0703 |       0.0601 |       0.1389 |       0.0712 |       0.0797 |       0.1214 |       0.1462 |       0.0796 |       0.0797 |       0.1163 |       0.1382 |       0.0795 |       0.0795 |       0.1230 |       0.1458 |
dl2.repl_rate                               0.0239 |       0.0239 |       0.0000 |       0.0000 |       0.0128 |       0.0128 |       0.0000 |       0.0000 |       0.0049 |       0.0049 |       0.0000 |       0.0000 |       0.0025 |       0.0025 |       0.0000 |       0.0000 |       0.0010 |       0.0010 |       0.0000 |       0.0000 |       0.0005 |       0.0005 |       0.0000 |       0.0000 |       0.0002 |       0.0032 |       0.0000 |       0.0304 |       0.0211 |       0.0546 |       0.0136 |       0.1157 |       0.0555 |       0.0718 |       0.0968 |       0.1339 |       0.0718 |       0.0758 |       0.1047 |       0.1324 |       0.0755 |       0.0776 |       0.1169 |       0.1427 |
dl2.wb_rate                                 0.0108 |       0.0108 |       0.0000 |       0.0000 |       0.0051 |       0.0051 |       0.0000 |       0.0000 |       0.0023 |       0.0023 |       0.0000 |       0.0000 |       0.0010 |       0.0010 |       0.0000 |       0.0000 |       0.0004 |       0.0004 |       0.0000 |       0.0000 |       0.0002 |       0.0002 |       0.0000 |       0.0000 |       0.0001 |       0.0019 |       0.0000 |       0.0300 |       0.0210 |       0.0459 |       0.0133 |       0.1036 |       0.0472 |       0.0574 |       0.0863 |       0.1152 |       0.0575 |       0.0600 |       0.0875 |       0.1119 |       0.0599 |       0.0615 |       0.0954 |       0.1196 |
dl2.inv_rate                                0.0000 |       0.0000 |       0.0000 |       0.0000 |       0.0000 |       0.0000 |       0.0000 |       0.0000 |       0.0000 |       0.0000 |       0.0000 |       0.0000 |       0.0000 |       0.0000 |       0.0000 |       0.0000 |       0.0000 |       0.0000 |       0.0000 |       0.0000 |       0.0000 |       0.0000 |       0.0000 |       0.0000 |       0.0000 |       0.0000 |       0.0000 |       0.0000 |       0.0000 |       0.0000 |       0.0000 |       0.0000 |       0.0000 |       0.0000 |       0.0000 |       0.0000 |       0.0000 |       0.0000 |       0.0000 |       0.0000 |       0.0000 |       0.0000 |       0.0000 |       0.0000 |
itlb.accesses                               860247 |       860247 |       860247 |       860247 |      1749956 |      1749956 |      1749956 |      1749956 |      3960518 |      3960518 |      3960518 |      3960518 |      8062773 |      8062773 |      8062773 |      8062773 |     17979458 |     17979458 |     17979458 |     17979458 |     36566885 |     36566885 |     36566885 |     36566885 |     77441616 |     77441616 |     77441616 |     77441616 |    223370541 |    223370541 |    223370541 |    223370541 |    473222859 |    473222859 |    473222859 |    473222859 |   1035624936 |   1035624936 |   1035624936 |   1035624936 |   2186591559 |   2186591559 |   2186591559 |   2186591559 |
itlb.hits                                   860233 |       860233 |       860233 |       860233 |      1749942 |      1749942 |      1749942 |      1749942 |      3960504 |      3960504 |      3960504 |      3960504 |      8062759 |      8062759 |      8062759 |      8062759 |     17979444 |     17979444 |     17979444 |     17979444 |     36566871 |     36566871 |     36566871 |     36566871 |     77441602 |     77441602 |     77441602 |     77441602 |    223370527 |    223370527 |    223370527 |    223370527 |    473222845 |    473222845 |    473222845 |    473222845 |   1035624922 |   1035624922 |   1035624922 |   1035624922 |   2186591545 |   2186591545 |   2186591545 |   2186591545 |
itlb.misses                                     14 |           14 |           14 |           14 |           14 |           14 |           14 |           14 |           14 |           14 |           14 |           14 |           14 |           14 |           14 |           14 |           14 |           14 |           14 |           14 |           14 |           14 |           14 |           14 |           14 |           14 |           14 |           14 |           14 |           14 |           14 |           14 |           14 |           14 |           14 |           14 |           14 |           14 |           14 |           14 |           14 |           14 |           14 |           14 |
itlb.replacements                                0 |            0 |            0 |            0 |            0 |            0 |            0 |            0 |            0 |            0 |            0 |            0 |            0 |            0 |            0 |            0 |            0 |            0 |            0 |            0 |            0 |            0 |            0 |            0 |            0 |            0 |            0 |            0 |            0 |            0 |            0 |            0 |            0 |            0 |            0 |            0 |            0 |            0 |            0 |            0 |            0 |            0 |            0 |            0 |
itlb.writebacks                                  0 |            0 |            0 |            0 |            0 |            0 |            0 |            0 |            0 |            0 |            0 |            0 |            0 |            0 |            0 |            0 |            0 |            0 |            0 |            0 |            0 |            0 |            0 |            0 |            0 |            0 |            0 |            0 |            0 |            0 |            0 |            0 |            0 |            0 |            0 |            0 |            0 |            0 |            0 |            0 |            0 |            0 |            0 |            0 |
itlb.invalidations                               0 |            0 |            0 |            0 |            0 |            0 |            0 |            0 |            0 |            0 |            0 |            0 |            0 |            0 |            0 |            0 |            0 |            0 |            0 |            0 |            0 |            0 |            0 |            0 |            0 |            0 |            0 |            0 |            0 |            0 |            0 |            0 |            0 |            0 |            0 |            0 |            0 |            0 |            0 |            0 |            0 |            0 |            0 |            0 |
itlb.miss_rate                              0.0000 |       0.0000 |       0.0000 |       0.0000 |       0.0000 |       0.0000 |       0.0000 |       0.0000 |       0.0000 |       0.0000 |       0.0000 |       0.0000 |       0.0000 |       0.0000 |       0.0000 |       0.0000 |       0.0000 |       0.0000 |       0.0000 |       0.0000 |       0.0000 |       0.0000 |       0.0000 |       0.0000 |       0.0000 |       0.0000 |       0.0000 |       0.0000 |       0.0000 |       0.0000 |       0.0000 |       0.0000 |       0.0000 |       0.0000 |       0.0000 |       0.0000 |       0.0000 |       0.0000 |       0.0000 |       0.0000 |       0.0000 |       0.0000 |       0.0000 |       0.0000 |
itlb.repl_rate                              0.0000 |       0.0000 |       0.0000 |       0.0000 |       0.0000 |       0.0000 |       0.0000 |       0.0000 |       0.0000 |       0.0000 |       0.0000 |       0.0000 |       0.0000 |       0.0000 |       0.0000 |       0.0000 |       0.0000 |       0.0000 |       0.0000 |       0.0000 |       0.0000 |       0.0000 |       0.0000 |       0.0000 |       0.0000 |       0.0000 |       0.0000 |       0.0000 |       0.0000 |       0.0000 |       0.0000 |       0.0000 |       0.0000 |       0.0000 |       0.0000 |       0.0000 |       0.0000 |       0.0000 |       0.0000 |       0.0000 |       0.0000 |       0.0000 |       0.0000 |       0.0000 |
itlb.wb_rate                                0.0000 |       0.0000 |       0.0000 |       0.0000 |       0.0000 |       0.0000 |       0.0000 |       0.0000 |       0.0000 |       0.0000 |       0.0000 |       0.0000 |       0.0000 |       0.0000 |       0.0000 |       0.0000 |       0.0000 |       0.0000 |       0.0000 |       0.0000 |       0.0000 |       0.0000 |       0.0000 |       0.0000 |       0.0000 |       0.0000 |       0.0000 |       0.0000 |       0.0000 |       0.0000 |       0.0000 |       0.0000 |       0.0000 |       0.0000 |       0.0000 |       0.0000 |       0.0000 |       0.0000 |       0.0000 |       0.0000 |       0.0000 |       0.0000 |       0.0000 |       0.0000 |
itlb.inv_rate                               0.0000 |       0.0000 |       0.0000 |       0.0000 |       0.0000 |       0.0000 |       0.0000 |       0.0000 |       0.0000 |       0.0000 |       0.0000 |       0.0000 |       0.0000 |       0.0000 |       0.0000 |       0.0000 |       0.0000 |       0.0000 |       0.0000 |       0.0000 |       0.0000 |       0.0000 |       0.0000 |       0.0000 |       0.0000 |       0.0000 |       0.0000 |       0.0000 |       0.0000 |       0.0000 |       0.0000 |       0.0000 |       0.0000 |       0.0000 |       0.0000 |       0.0000 |       0.0000 |       0.0000 |       0.0000 |       0.0000 |       0.0000 |       0.0000 |       0.0000 |       0.0000 |
dtlb.accesses                               245500 |       245500 |       245500 |       245500 |       504673 |       504673 |       504673 |       504673 |      1117325 |      1117325 |      1117325 |      1117325 |      2302434 |      2302434 |      2302434 |      2302434 |      5046352 |      5046352 |      5046352 |      5046352 |     10378746 |     10378746 |     10378746 |     10378746 |     21930085 |     21930085 |     21930085 |     21930085 |     63036562 |     63036562 |     63036562 |     63036562 |    134358522 |    134358522 |    134358522 |    134358522 |    291554495 |    291554495 |    291554495 |    291554495 |    621067884 |    621067884 |    621067884 |    621067884 |
dtlb.hits                                   245484 |       245484 |       245484 |       245484 |       504649 |       504649 |       504649 |       504649 |      1117285 |      1117285 |      1117285 |      1117285 |      2302362 |      2302362 |      2302362 |      2302362 |      5046150 |      5046150 |      5046150 |      5046150 |     10376320 |     10376320 |     10376320 |     10376320 |     21924671 |     21924671 |     21924671 |     21924671 |     63024834 |     63024834 |     63024834 |     63024834 |    134334814 |    134334814 |    134334814 |    134334814 |    291491558 |    291491558 |    291491558 |    291491558 |    620597744 |    620597744 |    620597744 |    620597744 |
dtlb.misses                                     16 |           16 |           16 |           16 |           24 |           24 |           24 |           24 |           40 |           40 |           40 |           40 |           72 |           72 |           72 |           72 |          202 |          202 |          202 |          202 |         2426 |         2426 |         2426 |         2426 |         5414 |         5414 |         5414 |         5414 |        11728 |        11728 |        11728 |        11728 |        23708 |        23708 |        23708 |        23708 |        62937 |        62937 |        62937 |        62937 |       470140 |       470140 |       470140 |       470140 |
dtlb.replacements                                0 |            0 |            0 |            0 |            0 |            0 |            0 |            0 |            0 |            0 |            0 |            0 |            0 |            0 |            0 |            0 |           74 |           74 |           74 |           74 |         2298 |         2298 |         2298 |         2298 |         5286 |         5286 |         5286 |         5286 |        11600 |        11600 |        11600 |        11600 |        23580 |        23580 |        23580 |        23580 |        62809 |        62809 |        62809 |        62809 |       470012 |       470012 |       470012 |       470012 |
dtlb.writebacks                                  0 |            0 |            0 |            0 |            0 |            0 |            0 |            0 |            0 |            0 |            0 |            0 |            0 |            0 |            0 |            0 |           50 |           50 |           50 |           50 |         1335 |         1335 |         1335 |         1335 |         3030 |         3030 |         3030 |         3030 |         6579 |         6579 |         6579 |         6579 |        13203 |        13203 |        13203 |        13203 |        26452 |        26452 |        26452 |        26452 |        52937 |        52937 |        52937 |        52937 |
dtlb.invalidations                               0 |            0 |            0 |            0 |            0 |            0 |            0 |            0 |            0 |            0 |            0 |            0 |            0 |            0 |            0 |            0 |            0 |            0 |            0 |            0 |            0 |            0 |            0 |            0 |            0 |            0 |            0 |            0 |            0 |            0 |            0 |            0 |            0 |            0 |            0 |            0 |            0 |            0 |            0 |            0 |            0 |            0 |            0 |            0 |
dtlb.miss_rate                              0.0001 |       0.0001 |       0.0001 |       0.0001 |       0.0000 |       0.0000 |       0.0000 |       0.0000 |       0.0000 |       0.0000 |       0.0000 |       0.0000 |       0.0000 |       0.0000 |       0.0000 |       0.0000 |       0.0000 |       0.0000 |       0.0000 |       0.0000 |       0.0002 |       0.0002 |       0.0002 |       0.0002 |       0.0002 |       0.0002 |       0.0002 |       0.0002 |       0.0002 |       0.0002 |       0.0002 |       0.0002 |       0.0002 |       0.0002 |       0.0002 |       0.0002 |       0.0002 |       0.0002 |       0.0002 |       0.0002 |       0.0008 |       0.0008 |       0.0008 |       0.0008 |
dtlb.repl_rate                              0.0000 |       0.0000 |       0.0000 |       0.0000 |       0.0000 |       0.0000 |       0.0000 |       0.0000 |       0.0000 |       0.0000 |       0.0000 |       0.0000 |       0.0000 |       0.0000 |       0.0000 |       0.0000 |       0.0000 |       0.0000 |       0.0000 |       0.0000 |       0.0002 |       0.0002 |       0.0002 |       0.0002 |       0.0002 |       0.0002 |       0.0002 |       0.0002 |       0.0002 |       0.0002 |       0.0002 |       0.0002 |       0.0002 |       0.0002 |       0.0002 |       0.0002 |       0.0002 |       0.0002 |       0.0002 |       0.0002 |       0.0008 |       0.0008 |       0.0008 |       0.0008 |
dtlb.wb_rate                                0.0000 |       0.0000 |       0.0000 |       0.0000 |       0.0000 |       0.0000 |       0.0000 |       0.0000 |       0.0000 |       0.0000 |       0.0000 |       0.0000 |       0.0000 |       0.0000 |       0.0000 |       0.0000 |       0.0000 |       0.0000 |       0.0000 |       0.0000 |       0.0001 |       0.0001 |       0.0001 |       0.0001 |       0.0001 |       0.0001 |       0.0001 |       0.0001 |       0.0001 |       0.0001 |       0.0001 |       0.0001 |       0.0001 |       0.0001 |       0.0001 |       0.0001 |       0.0001 |       0.0001 |       0.0001 |       0.0001 |       0.0001 |       0.0001 |       0.0001 |       0.0001 |
dtlb.inv_rate                               0.0000 |       0.0000 |       0.0000 |       0.0000 |       0.0000 |       0.0000 |       0.0000 |       0.0000 |       0.0000 |       0.0000 |       0.0000 |       0.0000 |       0.0000 |       0.0000 |       0.0000 |       0.0000 |       0.0000 |       0.0000 |       0.0000 |       0.0000 |       0.0000 |       0.0000 |       0.0000 |       0.0000 |       0.0000 |       0.0000 |       0.0000 |       0.0000 |       0.0000 |       0.0000 |       0.0000 |       0.0000 |       0.0000 |       0.0000 |       0.0000 |       0.0000 |       0.0000 |       0.0000 |       0.0000 |       0.0000 |       0.0000 |       0.0000 |       0.0000 |       0.0000 |
ld_text_base                            0x00400000 |   0x00400000 |   0x00400000 |   0x00400000 |   0x00400000 |   0x00400000 |   0x00400000 |   0x00400000 |   0x00400000 |   0x00400000 |   0x00400000 |   0x00400000 |   0x00400000 |   0x00400000 |   0x00400000 |   0x00400000 |   0x00400000 |   0x00400000 |   0x00400000 |   0x00400000 |   0x00400000 |   0x00400000 |   0x00400000 |   0x00400000 |   0x00400000 |   0x00400000 |   0x00400000 |   0x00400000 |   0x00400000 |   0x00400000 |   0x00400000 |   0x00400000 |   0x00400000 |   0x00400000 |   0x00400000 |   0x00400000 |   0x00400000 |   0x00400000 |   0x00400000 |   0x00400000 |   0x00400000 |   0x00400000 |   0x00400000 |   0x00400000 |
ld_text_size                                 94704 |        94704 |        94704 |        94704 |        94736 |        94736 |        94736 |        94736 |        94752 |        94752 |        94752 |        94752 |        94768 |        94768 |        94768 |        94768 |        94768 |        94768 |        94768 |        94768 |        94768 |        94768 |        94768 |        94768 |        94768 |        94768 |        94768 |        94768 |        94768 |        94768 |        94768 |        94768 |        94768 |        94768 |        94768 |        94768 |        94768 |        94768 |        94768 |        94768 |        94768 |        94768 |        94768 |        94768 |
ld_data_base                            0x10000000 |   0x10000000 |   0x10000000 |   0x10000000 |   0x10000000 |   0x10000000 |   0x10000000 |   0x10000000 |   0x10000000 |   0x10000000 |   0x10000000 |   0x10000000 |   0x10000000 |   0x10000000 |   0x10000000 |   0x10000000 |   0x10000000 |   0x10000000 |   0x10000000 |   0x10000000 |   0x10000000 |   0x10000000 |   0x10000000 |   0x10000000 |   0x10000000 |   0x10000000 |   0x10000000 |   0x10000000 |   0x10000000 |   0x10000000 |   0x10000000 |   0x10000000 |   0x10000000 |   0x10000000 |   0x10000000 |   0x10000000 |   0x10000000 |   0x10000000 |   0x10000000 |   0x10000000 |   0x10000000 |   0x10000000 |   0x10000000 |   0x10000000 |
ld_data_size                                  8192 |         8192 |         8192 |         8192 |         8192 |         8192 |         8192 |         8192 |         8192 |         8192 |         8192 |         8192 |         8192 |         8192 |         8192 |         8192 |         8192 |         8192 |         8192 |         8192 |         8192 |         8192 |         8192 |         8192 |         8192 |         8192 |         8192 |         8192 |         8192 |         8192 |         8192 |         8192 |         8192 |         8192 |         8192 |         8192 |         8192 |         8192 |         8192 |         8192 |         8192 |         8192 |         8192 |         8192 |
ld_stack_base                           0x7fffc000 |   0x7fffc000 |   0x7fffc000 |   0x7fffc000 |   0x7fffc000 |   0x7fffc000 |   0x7fffc000 |   0x7fffc000 |   0x7fffc000 |   0x7fffc000 |   0x7fffc000 |   0x7fffc000 |   0x7fffc000 |   0x7fffc000 |   0x7fffc000 |   0x7fffc000 |   0x7fffc000 |   0x7fffc000 |   0x7fffc000 |   0x7fffc000 |   0x7fffc000 |   0x7fffc000 |   0x7fffc000 |   0x7fffc000 |   0x7fffc000 |   0x7fffc000 |   0x7fffc000 |   0x7fffc000 |   0x7fffc000 |   0x7fffc000 |   0x7fffc000 |   0x7fffc000 |   0x7fffc000 |   0x7fffc000 |   0x7fffc000 |   0x7fffc000 |   0x7fffc000 |   0x7fffc000 |   0x7fffc000 |   0x7fffc000 |   0x7fffc000 |   0x7fffc000 |   0x7fffc000 |   0x7fffc000 |
ld_stack_size                                16384 |        16384 |        16384 |        16384 |        16384 |        16384 |        16384 |        16384 |        16384 |        16384 |        16384 |        16384 |        16384 |        16384 |        16384 |        16384 |        16384 |        16384 |        16384 |        16384 |        16384 |        16384 |        16384 |        16384 |        16384 |        16384 |        16384 |        16384 |        16384 |        16384 |        16384 |        16384 |        16384 |        16384 |        16384 |        16384 |        16384 |        16384 |        16384 |        16384 |        16384 |        16384 |        16384 |        16384 |
ld_prog_entry                           0x00400140 |   0x00400140 |   0x00400140 |   0x00400140 |   0x00400140 |   0x00400140 |   0x00400140 |   0x00400140 |   0x00400140 |   0x00400140 |   0x00400140 |   0x00400140 |   0x00400140 |   0x00400140 |   0x00400140 |   0x00400140 |   0x00400140 |   0x00400140 |   0x00400140 |   0x00400140 |   0x00400140 |   0x00400140 |   0x00400140 |   0x00400140 |   0x00400140 |   0x00400140 |   0x00400140 |   0x00400140 |   0x00400140 |   0x00400140 |   0x00400140 |   0x00400140 |   0x00400140 |   0x00400140 |   0x00400140 |   0x00400140 |   0x00400140 |   0x00400140 |   0x00400140 |   0x00400140 |   0x00400140 |   0x00400140 |   0x00400140 |   0x00400140 |
ld_environ_base                         0x7fff8000 |   0x7fff8000 |   0x7fff8000 |   0x7fff8000 |   0x7fff8000 |   0x7fff8000 |   0x7fff8000 |   0x7fff8000 |   0x7fff8000 |   0x7fff8000 |   0x7fff8000 |   0x7fff8000 |   0x7fff8000 |   0x7fff8000 |   0x7fff8000 |   0x7fff8000 |   0x7fff8000 |   0x7fff8000 |   0x7fff8000 |   0x7fff8000 |   0x7fff8000 |   0x7fff8000 |   0x7fff8000 |   0x7fff8000 |   0x7fff8000 |   0x7fff8000 |   0x7fff8000 |   0x7fff8000 |   0x7fff8000 |   0x7fff8000 |   0x7fff8000 |   0x7fff8000 |   0x7fff8000 |   0x7fff8000 |   0x7fff8000 |   0x7fff8000 |   0x7fff8000 |   0x7fff8000 |   0x7fff8000 |   0x7fff8000 |   0x7fff8000 |   0x7fff8000 |   0x7fff8000 |   0x7fff8000 |
ld_target_big_endian                             0 |            0 |            0 |            0 |            0 |            0 |            0 |            0 |            0 |            0 |            0 |            0 |            0 |            0 |            0 |            0 |            0 |            0 |            0 |            0 |            0 |            0 |            0 |            0 |            0 |            0 |            0 |            0 |            0 |            0 |            0 |            0 |            0 |            0 |            0 |            0 |            0 |            0 |            0 |            0 |            0 |            0 |            0 |            0 |
mem.page_count                                  40 |           40 |           40 |           40 |           48 |           48 |           48 |           48 |           64 |           64 |           64 |           64 |           96 |           96 |           96 |           96 |          160 |          160 |          160 |          160 |          288 |          288 |          288 |          288 |          544 |          544 |          544 |          544 |         1062 |         1062 |         1062 |         1062 |         2086 |         2086 |         2086 |         2086 |         4140 |         4140 |         4140 |         4140 |         8248 |         8248 |         8248 |         8248 |
mem.page_mem                                  160k |         160k |         160k |         160k |         192k |         192k |         192k |         192k |         256k |         256k |         256k |         256k |         384k |         384k |         384k |         384k |         640k |         640k |         640k |         640k |        1152k |        1152k |        1152k |        1152k |        2176k |        2176k |        2176k |        2176k |        4248k |        4248k |        4248k |        4248k |        8344k |        8344k |        8344k |        8344k |       16560k |       16560k |       16560k |       16560k |       32992k |       32992k |       32992k |       32992k |
mem.ptab_misses                                 40 |           40 |           40 |           40 |           48 |           48 |           48 |           48 |           64 |           64 |           64 |           64 |           96 |           96 |           96 |           96 |          160 |          160 |          160 |          160 |          288 |          288 |          288 |          288 |          544 |          544 |          544 |          544 |         1067 |         1067 |         1067 |         1067 |        79629 |        79629 |        79629 |        79629 |        84849 |        84849 |        84849 |        84849 |        85793 |        85793 |        85793 |        85793 |
mem.ptab_accesses                          4514848 |      4514848 |      4514848 |      4514848 |      8592222 |      8592222 |      8592222 |      8592222 |     18659870 |     18659870 |     18659870 |     18659870 |     37439204 |     37439204 |     37439204 |     37439204 |     82593780 |     82593780 |     82593780 |     82593780 |    167608276 |    167608276 |    167608276 |    167608276 |    354209878 |    354209878 |    354209878 |    354209878 |   1020138532 |   1020138532 |   1020138532 |   1020138532 |   2162191724 |   2162191724 |   2162191724 |   2162191724 |   4726191978 |   4726191978 |   4726191978 |   4726191978 |   9989085248 |   9989085248 |   9989085248 |   9989085248 |
mem.ptab_miss_rate                          0.0000 |       0.0000 |       0.0000 |       0.0000 |       0.0000 |       0.0000 |       0.0000 |       0.0000 |       0.0000 |       0.0000 |       0.0000 |       0.0000 |       0.0000 |       0.0000 |       0.0000 |       0.0000 |       0.0000 |       0.0000 |       0.0000 |       0.0000 |       0.0000 |       0.0000 |       0.0000 |       0.0000 |       0.0000 |       0.0000 |       0.0000 |       0.0000 |       0.0000 |       0.0000 |       0.0000 |       0.0000 |       0.0000 |       0.0000 |       0.0000 |       0.0000 |       0.0000 |       0.0000 |       0.0000 |       0.0000 |       0.0000 |       0.0000 |       0.0000 |       0.0000 |
-------------------------------------------------------------------------------------------------
sim-bpred                                     4096 |         4096 |         4096 |         4096 |         4096 |         4096 |         4096 |         8192 |         8192 |         8192 |         8192 |         8192 |         8192 |         8192 |        16384 |        16384 |        16384 |        16384 |        16384 |        16384 |        16384 |        32768 |        32768 |        32768 |        32768 |        32768 |        32768 |        32768 |        65536 |        65536 |        65536 |        65536 |        65536 |        65536 |        65536 |       131072 |       131072 |       131072 |       131072 |       131072 |       131072 |       131072 |       262144 |       262144 |       262144 |       262144 |       262144 |       262144 |       262144 |       524288 |       524288 |       524288 |       524288 |       524288 |       524288 |       524288 |      1048576 |      1048576 |      1048576 |      1048576 |      1048576 |      1048576 |      1048576 |      2097152 |      2097152 |      2097152 |      2097152 |      2097152 |      2097152 |      2097152 |      4194304 |      4194304 |      4194304 |      4194304 |      4194304 |      4194304 |      4194304 |
-bpred bimod -bpred:bimod 512
-bpred bimod -bpred:bimod 1024
-bpred bimod -bpred:bimod 2048
-bpred 2lev -bpred:2lev 1 512 10 1
-bpred 2lev -bpred:2lev 1 1024 10 1
-bpred 2lev -bpred:2lev 1 2048 10 1
-bpred 2lev -bpred:2lev 1 4096 10 1
-------------------------------------------------------------------------------------------------
sim_num_insn                                860247 |       860247 |       860247 |       860247 |       860247 |       860247 |       860247 |      1749956 |      1749956 |      1749956 |      1749956 |      1749956 |      1749956 |      1749956 |      3960518 |      3960518 |      3960518 |      3960518 |      3960518 |      3960518 |      3960518 |      8062773 |      8062773 |      8062773 |      8062773 |      8062773 |      8062773 |      8062773 |     17979458 |     17979458 |     17979458 |     17979458 |     17979458 |     17979458 |     17979458 |     36566885 |     36566885 |     36566885 |     36566885 |     36566885 |     36566885 |     36566885 |     77441616 |     77441616 |     77441616 |     77441616 |     77441616 |     77441616 |     77441616 |    223370541 |    223370541 |    223370541 |    223370541 |    223370541 |    223370541 |    223370541 |    473222859 |    473222859 |    473222859 |    473222859 |    473222859 |    473222859 |    473222859 |   1035624936 |   1035624936 |   1035624936 |   1035624936 |   1035624936 |   1035624936 |   1035624936 |   2186591559 |   2186591559 |   2186591559 |   2186591559 |   2186591559 |   2186591559 |   2186591559 |
sim_num_refs                                229034 |       229034 |       229034 |       229034 |       229034 |       229034 |       229034 |       471823 |       471823 |       471823 |       471823 |       471823 |       471823 |       471823 |      1051707 |      1051707 |      1051707 |      1051707 |      1051707 |      1051707 |      1051707 |      2171280 |      2171280 |      2171280 |      2171280 |      2171280 |      2171280 |      2171280 |      4784126 |      4784126 |      4784126 |      4784126 |      4784126 |      4784126 |      4784126 |      9854376 |      9854376 |      9854376 |      9854376 |      9854376 |      9854376 |      9854376 |     20881427 |     20881427 |     20881427 |     20881427 |     20881427 |     20881427 |     20881427 |     60939328 |     60939328 |     60939328 |     60939328 |     60939328 |     60939328 |     60939328 |    130164136 |    130164136 |    130164136 |    130164136 |    130164136 |    130164136 |    130164136 |    283165805 |    283165805 |    283165805 |    283165805 |    283165805 |    283165805 |    283165805 |    604290586 |    604290586 |    604290586 |    604290586 |    604290586 |    604290586 |    604290586 |
sim_elapsed_time                                 1 |            1 |            1 |            1 |            1 |            1 |            1 |            1 |            1 |            1 |            1 |            1 |            1 |            1 |            1 |            1 |            1 |            1 |            1 |            1 |            1 |            1 |            1 |            1 |            1 |            1 |            1 |            1 |            2 |            2 |            2 |            2 |            2 |            2 |            2 |            4 |            4 |            5 |            4 |            4 |            4 |            4 |            9 |            8 |            9 |            9 |            9 |            8 |            9 |           25 |           26 |           25 |           26 |           25 |           26 |           25 |           55 |           54 |           55 |           55 |           55 |           55 |           54 |          119 |          119 |          118 |          120 |          120 |          119 |          120 |          253 |          251 |          252 |          255 |          256 |          254 |          254 |
sim_inst_rate                          860247.0000 |  860247.0000 |  860247.0000 |  860247.0000 |  860247.0000 |  860247.0000 |  860247.0000 | 1749956.0000 | 1749956.0000 | 1749956.0000 | 1749956.0000 | 1749956.0000 | 1749956.0000 | 1749956.0000 | 3960518.0000 | 3960518.0000 | 3960518.0000 | 3960518.0000 | 3960518.0000 | 3960518.0000 | 3960518.0000 | 8062773.0000 | 8062773.0000 | 8062773.0000 | 8062773.0000 | 8062773.0000 | 8062773.0000 | 8062773.0000 | 8989729.0000 | 8989729.0000 | 8989729.0000 | 8989729.0000 | 8989729.0000 | 8989729.0000 | 8989729.0000 | 9141721.2500 | 9141721.2500 | 7313377.0000 | 9141721.2500 | 9141721.2500 | 9141721.2500 | 9141721.2500 | 8604624.0000 | 9680202.0000 | 8604624.0000 | 8604624.0000 | 8604624.0000 | 9680202.0000 | 8604624.0000 | 8934821.6400 | 8591174.6538 | 8934821.6400 | 8591174.6538 | 8934821.6400 | 8591174.6538 | 8934821.6400 | 8604051.9818 | 8763386.2778 | 8604051.9818 | 8604051.9818 | 8604051.9818 | 8604051.9818 | 8763386.2778 | 8702730.5546 | 8702730.5546 | 8776482.5085 | 8630207.8000 | 8630207.8000 | 8702730.5546 | 8630207.8000 | 8642654.3834 | 8711520.1554 | 8676950.6310 | 8574868.8588 | 8541373.2773 | 8608628.1850 | 8608628.1850 |
sim_num_branches                            112996 |       112996 |       112996 |       112996 |       112996 |       112996 |       112996 |       235685 |       235685 |       235685 |       235685 |       235685 |       235685 |       235685 |       514878 |       514878 |       514878 |       514878 |       514878 |       514878 |       514878 |      1072427 |      1072427 |      1072427 |      1072427 |      1072427 |      1072427 |      1072427 |      2319236 |      2319236 |      2319236 |      2319236 |      2319236 |      2319236 |      2319236 |      4812474 |      4812474 |      4812474 |      4812474 |      4812474 |      4812474 |      4812474 |     10146634 |     10146634 |     10146634 |     10146634 |     10146634 |     10146634 |     10146634 |     30675883 |     30675883 |     30675883 |     30675883 |     30675883 |     30675883 |     30675883 |     67186433 |     67186433 |     67186433 |     67186433 |     67186433 |     67186433 |     67186433 |    145952047 |    145952047 |    145952047 |    145952047 |    145952047 |    145952047 |    145952047 |    314542612 |    314542612 |    314542612 |    314542612 |    314542612 |    314542612 |    314542612 |
sim_IPB                                     7.6131 |       7.6131 |       7.6131 |       7.6131 |       7.6131 |       7.6131 |       7.6131 |       7.4250 |       7.4250 |       7.4250 |       7.4250 |       7.4250 |       7.4250 |       7.4250 |       7.6921 |       7.6921 |       7.6921 |       7.6921 |       7.6921 |       7.6921 |       7.6921 |       7.5182 |       7.5182 |       7.5182 |       7.5182 |       7.5182 |       7.5182 |       7.5182 |       7.7523 |       7.7523 |       7.7523 |       7.7523 |       7.7523 |       7.7523 |       7.7523 |       7.5984 |       7.5984 |       7.5984 |       7.5984 |       7.5984 |       7.5984 |       7.5984 |       7.6322 |       7.6322 |       7.6322 |       7.6322 |       7.6322 |       7.6322 |       7.6322 |       7.2816 |       7.2816 |       7.2816 |       7.2816 |       7.2816 |       7.2816 |       7.2816 |       7.0434 |       7.0434 |       7.0434 |       7.0434 |       7.0434 |       7.0434 |       7.0434 |       7.0957 |       7.0957 |       7.0957 |       7.0957 |       7.0957 |       7.0957 |       7.0957 |       6.9517 |       6.9517 |       6.9517 |       6.9517 |       6.9517 |       6.9517 |       6.9517 |
bpred_bimod.lookups                         112996 |       112996 |       112996 |xxxxxxxxxxxxx |xxxxxxxxxxxxx |xxxxxxxxxxxxx |xxxxxxxxxxxxx |       235685 |       235685 |       235685 |xxxxxxxxxxxxx |xxxxxxxxxxxxx |xxxxxxxxxxxxx |xxxxxxxxxxxxx |       514878 |       514878 |       514878 |xxxxxxxxxxxxx |xxxxxxxxxxxxx |xxxxxxxxxxxxx |xxxxxxxxxxxxx |      1072427 |      1072427 |      1072427 |xxxxxxxxxxxxx |xxxxxxxxxxxxx |xxxxxxxxxxxxx |xxxxxxxxxxxxx |      2319236 |      2319236 |      2319236 |xxxxxxxxxxxxx |xxxxxxxxxxxxx |xxxxxxxxxxxxx |xxxxxxxxxxxxx |      4812474 |      4812474 |      4812474 |xxxxxxxxxxxxx |xxxxxxxxxxxxx |xxxxxxxxxxxxx |xxxxxxxxxxxxx |     10146634 |     10146634 |     10146634 |xxxxxxxxxxxxx |xxxxxxxxxxxxx |xxxxxxxxxxxxx |xxxxxxxxxxxxx |     30675883 |     30675883 |     30675883 |xxxxxxxxxxxxx |xxxxxxxxxxxxx |xxxxxxxxxxxxx |xxxxxxxxxxxxx |     67186433 |     67186433 |     67186433 |xxxxxxxxxxxxx |xxxxxxxxxxxxx |xxxxxxxxxxxxx |xxxxxxxxxxxxx |    145952047 |    145952047 |    145952047 |xxxxxxxxxxxxx |xxxxxxxxxxxxx |xxxxxxxxxxxxx |xxxxxxxxxxxxx |    314542612 |    314542612 |    314542612 |
bpred_bimod.updates                         112996 |       112996 |       112996 |xxxxxxxxxxxxx |xxxxxxxxxxxxx |xxxxxxxxxxxxx |xxxxxxxxxxxxx |       235685 |       235685 |       235685 |xxxxxxxxxxxxx |xxxxxxxxxxxxx |xxxxxxxxxxxxx |xxxxxxxxxxxxx |       514878 |       514878 |       514878 |xxxxxxxxxxxxx |xxxxxxxxxxxxx |xxxxxxxxxxxxx |xxxxxxxxxxxxx |      1072427 |      1072427 |      1072427 |xxxxxxxxxxxxx |xxxxxxxxxxxxx |xxxxxxxxxxxxx |xxxxxxxxxxxxx |      2319236 |      2319236 |      2319236 |xxxxxxxxxxxxx |xxxxxxxxxxxxx |xxxxxxxxxxxxx |xxxxxxxxxxxxx |      4812474 |      4812474 |      4812474 |xxxxxxxxxxxxx |xxxxxxxxxxxxx |xxxxxxxxxxxxx |xxxxxxxxxxxxx |     10146634 |     10146634 |     10146634 |xxxxxxxxxxxxx |xxxxxxxxxxxxx |xxxxxxxxxxxxx |xxxxxxxxxxxxx |     30675883 |     30675883 |     30675883 |xxxxxxxxxxxxx |xxxxxxxxxxxxx |xxxxxxxxxxxxx |xxxxxxxxxxxxx |     67186433 |     67186433 |     67186433 |xxxxxxxxxxxxx |xxxxxxxxxxxxx |xxxxxxxxxxxxx |xxxxxxxxxxxxx |    145952047 |    145952047 |    145952047 |xxxxxxxxxxxxx |xxxxxxxxxxxxx |xxxxxxxxxxxxx |xxxxxxxxxxxxx |    314542612 |    314542612 |    314542612 |
bpred_bimod.addr_hits                        87347 |        87355 |        87360 |xxxxxxxxxxxxx |xxxxxxxxxxxxx |xxxxxxxxxxxxx |xxxxxxxxxxxxx |       183871 |       183877 |       183880 |xxxxxxxxxxxxx |xxxxxxxxxxxxx |xxxxxxxxxxxxx |xxxxxxxxxxxxx |       396505 |       396526 |       396528 |xxxxxxxxxxxxx |xxxxxxxxxxxxx |xxxxxxxxxxxxx |xxxxxxxxxxxxx |       833661 |       833664 |       833668 |xxxxxxxxxxxxx |xxxxxxxxxxxxx |xxxxxxxxxxxxx |xxxxxxxxxxxxx |      1781235 |      1781313 |      1781317 |xxxxxxxxxxxxx |xxxxxxxxxxxxx |xxxxxxxxxxxxx |xxxxxxxxxxxxx |      3727764 |      3727805 |      3727809 |xxxxxxxxxxxxx |xxxxxxxxxxxxx |xxxxxxxxxxxxx |xxxxxxxxxxxxx |      7843822 |      7843880 |      7843942 |xxxxxxxxxxxxx |xxxxxxxxxxxxx |xxxxxxxxxxxxx |xxxxxxxxxxxxx |     24443846 |     24444442 |     24444444 |xxxxxxxxxxxxx |xxxxxxxxxxxxx |xxxxxxxxxxxxx |xxxxxxxxxxxxx |     54430696 |     54431011 |     54431020 |xxxxxxxxxxxxx |xxxxxxxxxxxxx |xxxxxxxxxxxxx |xxxxxxxxxxxxx |    116877369 |    116879558 |    116879558 |xxxxxxxxxxxxx |xxxxxxxxxxxxx |xxxxxxxxxxxxx |xxxxxxxxxxxxx |    252087242 |    252088661 |    252088662 |
bpred_bimod.dir_hits                         87497 |        87503 |        87506 |xxxxxxxxxxxxx |xxxxxxxxxxxxx |xxxxxxxxxxxxx |xxxxxxxxxxxxx |       184018 |       184022 |       184025 |xxxxxxxxxxxxx |xxxxxxxxxxxxx |xxxxxxxxxxxxx |xxxxxxxxxxxxx |       396655 |       396671 |       396673 |xxxxxxxxxxxxx |xxxxxxxxxxxxx |xxxxxxxxxxxxx |xxxxxxxxxxxxx |       833805 |       833809 |       833813 |xxxxxxxxxxxxx |xxxxxxxxxxxxx |xxxxxxxxxxxxx |xxxxxxxxxxxxx |      1781382 |      1781459 |      1781462 |xxxxxxxxxxxxx |xxxxxxxxxxxxx |xxxxxxxxxxxxx |xxxxxxxxxxxxx |      3727909 |      3727951 |      3727955 |xxxxxxxxxxxxx |xxxxxxxxxxxxx |xxxxxxxxxxxxx |xxxxxxxxxxxxx |      7843969 |      7844029 |      7844092 |xxxxxxxxxxxxx |xxxxxxxxxxxxx |xxxxxxxxxxxxx |xxxxxxxxxxxxx |     24444068 |     24444662 |     24444662 |xxxxxxxxxxxxx |xxxxxxxxxxxxx |xxxxxxxxxxxxx |xxxxxxxxxxxxx |     54430922 |     54431236 |     54431242 |xxxxxxxxxxxxx |xxxxxxxxxxxxx |xxxxxxxxxxxxx |xxxxxxxxxxxxx |    116877598 |    116879786 |    116879784 |xxxxxxxxxxxxx |xxxxxxxxxxxxx |xxxxxxxxxxxxx |xxxxxxxxxxxxx |    252087473 |    252088892 |    252088891 |
bpred_bimod.misses                           25499 |        25493 |        25490 |xxxxxxxxxxxxx |xxxxxxxxxxxxx |xxxxxxxxxxxxx |xxxxxxxxxxxxx |        51667 |        51663 |        51660 |xxxxxxxxxxxxx |xxxxxxxxxxxxx |xxxxxxxxxxxxx |xxxxxxxxxxxxx |       118223 |       118207 |       118205 |xxxxxxxxxxxxx |xxxxxxxxxxxxx |xxxxxxxxxxxxx |xxxxxxxxxxxxx |       238622 |       238618 |       238614 |xxxxxxxxxxxxx |xxxxxxxxxxxxx |xxxxxxxxxxxxx |xxxxxxxxxxxxx |       537854 |       537777 |       537774 |xxxxxxxxxxxxx |xxxxxxxxxxxxx |xxxxxxxxxxxxx |xxxxxxxxxxxxx |      1084565 |      1084523 |      1084519 |xxxxxxxxxxxxx |xxxxxxxxxxxxx |xxxxxxxxxxxxx |xxxxxxxxxxxxx |      2302665 |      2302605 |      2302542 |xxxxxxxxxxxxx |xxxxxxxxxxxxx |xxxxxxxxxxxxx |xxxxxxxxxxxxx |      6231815 |      6231221 |      6231221 |xxxxxxxxxxxxx |xxxxxxxxxxxxx |xxxxxxxxxxxxx |xxxxxxxxxxxxx |     12755511 |     12755197 |     12755191 |xxxxxxxxxxxxx |xxxxxxxxxxxxx |xxxxxxxxxxxxx |xxxxxxxxxxxxx |     29074449 |     29072261 |     29072263 |xxxxxxxxxxxxx |xxxxxxxxxxxxx |xxxxxxxxxxxxx |xxxxxxxxxxxxx |     62455139 |     62453720 |     62453721 |
bpred_bimod.jr_hits                             79 |           79 |           79 |xxxxxxxxxxxxx |xxxxxxxxxxxxx |xxxxxxxxxxxxx |xxxxxxxxxxxxx |           87 |           87 |           87 |xxxxxxxxxxxxx |xxxxxxxxxxxxx |xxxxxxxxxxxxx |xxxxxxxxxxxxx |          103 |          103 |          103 |xxxxxxxxxxxxx |xxxxxxxxxxxxx |xxxxxxxxxxxxx |xxxxxxxxxxxxx |          135 |          135 |          135 |xxxxxxxxxxxxx |xxxxxxxxxxxxx |xxxxxxxxxxxxx |xxxxxxxxxxxxx |          199 |          199 |          199 |xxxxxxxxxxxxx |xxxxxxxxxxxxx |xxxxxxxxxxxxx |xxxxxxxxxxxxx |          327 |          327 |          327 |xxxxxxxxxxxxx |xxxxxxxxxxxxx |xxxxxxxxxxxxx |xxxxxxxxxxxxx |          583 |          583 |          583 |xxxxxxxxxxxxx |xxxxxxxxxxxxx |xxxxxxxxxxxxx |xxxxxxxxxxxxx |       525413 |       525413 |       525413 |xxxxxxxxxxxxx |xxxxxxxxxxxxx |xxxxxxxxxxxxx |xxxxxxxxxxxxx |      1050727 |      1050727 |      1050727 |xxxxxxxxxxxxx |xxxxxxxxxxxxx |xxxxxxxxxxxxx |xxxxxxxxxxxxx |      2101355 |      2101355 |      2101355 |xxxxxxxxxxxxx |xxxxxxxxxxxxx |xxxxxxxxxxxxx |xxxxxxxxxxxxx |      4202611 |      4202611 |      4202611 |
bpred_bimod.jr_seen                             80 |           80 |           80 |xxxxxxxxxxxxx |xxxxxxxxxxxxx |xxxxxxxxxxxxx |xxxxxxxxxxxxx |           88 |           88 |           88 |xxxxxxxxxxxxx |xxxxxxxxxxxxx |xxxxxxxxxxxxx |xxxxxxxxxxxxx |          104 |          104 |          104 |xxxxxxxxxxxxx |xxxxxxxxxxxxx |xxxxxxxxxxxxx |xxxxxxxxxxxxx |          136 |          136 |          136 |xxxxxxxxxxxxx |xxxxxxxxxxxxx |xxxxxxxxxxxxx |xxxxxxxxxxxxx |          200 |          200 |          200 |xxxxxxxxxxxxx |xxxxxxxxxxxxx |xxxxxxxxxxxxx |xxxxxxxxxxxxx |          328 |          328 |          328 |xxxxxxxxxxxxx |xxxxxxxxxxxxx |xxxxxxxxxxxxx |xxxxxxxxxxxxx |          584 |          584 |          584 |xxxxxxxxxxxxx |xxxxxxxxxxxxx |xxxxxxxxxxxxx |xxxxxxxxxxxxx |       525414 |       525414 |       525414 |xxxxxxxxxxxxx |xxxxxxxxxxxxx |xxxxxxxxxxxxx |xxxxxxxxxxxxx |      1050728 |      1050728 |      1050728 |xxxxxxxxxxxxx |xxxxxxxxxxxxx |xxxxxxxxxxxxx |xxxxxxxxxxxxx |      2101356 |      2101356 |      2101356 |xxxxxxxxxxxxx |xxxxxxxxxxxxx |xxxxxxxxxxxxx |xxxxxxxxxxxxx |      4202612 |      4202612 |      4202612 |
bpred_bimod.jr_non_ras_hits.PP                   0 |            0 |            0 |xxxxxxxxxxxxx |xxxxxxxxxxxxx |xxxxxxxxxxxxx |xxxxxxxxxxxxx |            0 |            0 |            0 |xxxxxxxxxxxxx |xxxxxxxxxxxxx |xxxxxxxxxxxxx |xxxxxxxxxxxxx |            0 |            0 |            0 |xxxxxxxxxxxxx |xxxxxxxxxxxxx |xxxxxxxxxxxxx |xxxxxxxxxxxxx |            0 |            0 |            0 |xxxxxxxxxxxxx |xxxxxxxxxxxxx |xxxxxxxxxxxxx |xxxxxxxxxxxxx |            0 |            0 |            0 |xxxxxxxxxxxxx |xxxxxxxxxxxxx |xxxxxxxxxxxxx |xxxxxxxxxxxxx |            0 |            0 |            0 |xxxxxxxxxxxxx |xxxxxxxxxxxxx |xxxxxxxxxxxxx |xxxxxxxxxxxxx |            0 |            0 |            0 |xxxxxxxxxxxxx |xxxxxxxxxxxxx |xxxxxxxxxxxxx |xxxxxxxxxxxxx |            0 |            0 |            0 |xxxxxxxxxxxxx |xxxxxxxxxxxxx |xxxxxxxxxxxxx |xxxxxxxxxxxxx |            0 |            0 |            0 |xxxxxxxxxxxxx |xxxxxxxxxxxxx |xxxxxxxxxxxxx |xxxxxxxxxxxxx |            0 |            0 |            0 |xxxxxxxxxxxxx |xxxxxxxxxxxxx |xxxxxxxxxxxxx |xxxxxxxxxxxxx |            0 |            0 |            0 |
bpred_bimod.jr_non_ras_seen.PP                   0 |            0 |            0 |xxxxxxxxxxxxx |xxxxxxxxxxxxx |xxxxxxxxxxxxx |xxxxxxxxxxxxx |            0 |            0 |            0 |xxxxxxxxxxxxx |xxxxxxxxxxxxx |xxxxxxxxxxxxx |xxxxxxxxxxxxx |            0 |            0 |            0 |xxxxxxxxxxxxx |xxxxxxxxxxxxx |xxxxxxxxxxxxx |xxxxxxxxxxxxx |            0 |            0 |            0 |xxxxxxxxxxxxx |xxxxxxxxxxxxx |xxxxxxxxxxxxx |xxxxxxxxxxxxx |            0 |            0 |            0 |xxxxxxxxxxxxx |xxxxxxxxxxxxx |xxxxxxxxxxxxx |xxxxxxxxxxxxx |            0 |            0 |            0 |xxxxxxxxxxxxx |xxxxxxxxxxxxx |xxxxxxxxxxxxx |xxxxxxxxxxxxx |            0 |            0 |            0 |xxxxxxxxxxxxx |xxxxxxxxxxxxx |xxxxxxxxxxxxx |xxxxxxxxxxxxx |            1 |            1 |            1 |xxxxxxxxxxxxx |xxxxxxxxxxxxx |xxxxxxxxxxxxx |xxxxxxxxxxxxx |            1 |            1 |            1 |xxxxxxxxxxxxx |xxxxxxxxxxxxx |xxxxxxxxxxxxx |xxxxxxxxxxxxx |            1 |            1 |            1 |xxxxxxxxxxxxx |xxxxxxxxxxxxx |xxxxxxxxxxxxx |xxxxxxxxxxxxx |            1 |            1 |            1 |
bpred_bimod.bpred_addr_rate                 0.7730 |       0.7731 |       0.7731 |xxxxxxxxxxxxx |xxxxxxxxxxxxx |xxxxxxxxxxxxx |xxxxxxxxxxxxx |       0.7802 |       0.7802 |       0.7802 |xxxxxxxxxxxxx |xxxxxxxxxxxxx |xxxxxxxxxxxxx |xxxxxxxxxxxxx |       0.7701 |       0.7701 |       0.7701 |xxxxxxxxxxxxx |xxxxxxxxxxxxx |xxxxxxxxxxxxx |xxxxxxxxxxxxx |       0.7774 |       0.7774 |       0.7774 |xxxxxxxxxxxxx |xxxxxxxxxxxxx |xxxxxxxxxxxxx |xxxxxxxxxxxxx |       0.7680 |       0.7681 |       0.7681 |xxxxxxxxxxxxx |xxxxxxxxxxxxx |xxxxxxxxxxxxx |xxxxxxxxxxxxx |       0.7746 |       0.7746 |       0.7746 |xxxxxxxxxxxxx |xxxxxxxxxxxxx |xxxxxxxxxxxxx |xxxxxxxxxxxxx |       0.7730 |       0.7731 |       0.7731 |xxxxxxxxxxxxx |xxxxxxxxxxxxx |xxxxxxxxxxxxx |xxxxxxxxxxxxx |       0.7968 |       0.7969 |       0.7969 |xxxxxxxxxxxxx |xxxxxxxxxxxxx |xxxxxxxxxxxxx |xxxxxxxxxxxxx |       0.8101 |       0.8101 |       0.8101 |xxxxxxxxxxxxx |xxxxxxxxxxxxx |xxxxxxxxxxxxx |xxxxxxxxxxxxx |       0.8008 |       0.8008 |       0.8008 |xxxxxxxxxxxxx |xxxxxxxxxxxxx |xxxxxxxxxxxxx |xxxxxxxxxxxxx |       0.8014 |       0.8014 |       0.8014 |
bpred_bimod.bpred_dir_rate                  0.7743 |       0.7744 |       0.7744 |xxxxxxxxxxxxx |xxxxxxxxxxxxx |xxxxxxxxxxxxx |xxxxxxxxxxxxx |       0.7808 |       0.7808 |       0.7808 |xxxxxxxxxxxxx |xxxxxxxxxxxxx |xxxxxxxxxxxxx |xxxxxxxxxxxxx |       0.7704 |       0.7704 |       0.7704 |xxxxxxxxxxxxx |xxxxxxxxxxxxx |xxxxxxxxxxxxx |xxxxxxxxxxxxx |       0.7775 |       0.7775 |       0.7775 |xxxxxxxxxxxxx |xxxxxxxxxxxxx |xxxxxxxxxxxxx |xxxxxxxxxxxxx |       0.7681 |       0.7681 |       0.7681 |xxxxxxxxxxxxx |xxxxxxxxxxxxx |xxxxxxxxxxxxx |xxxxxxxxxxxxx |       0.7746 |       0.7746 |       0.7746 |xxxxxxxxxxxxx |xxxxxxxxxxxxx |xxxxxxxxxxxxx |xxxxxxxxxxxxx |       0.7731 |       0.7731 |       0.7731 |xxxxxxxxxxxxx |xxxxxxxxxxxxx |xxxxxxxxxxxxx |xxxxxxxxxxxxx |       0.7968 |       0.7969 |       0.7969 |xxxxxxxxxxxxx |xxxxxxxxxxxxx |xxxxxxxxxxxxx |xxxxxxxxxxxxx |       0.8101 |       0.8102 |       0.8102 |xxxxxxxxxxxxx |xxxxxxxxxxxxx |xxxxxxxxxxxxx |xxxxxxxxxxxxx |       0.8008 |       0.8008 |       0.8008 |xxxxxxxxxxxxx |xxxxxxxxxxxxx |xxxxxxxxxxxxx |xxxxxxxxxxxxx |       0.8014 |       0.8014 |       0.8014 |
bpred_bimod.bpred_jr_rate                   0.9875 |       0.9875 |       0.9875 |xxxxxxxxxxxxx |xxxxxxxxxxxxx |xxxxxxxxxxxxx |xxxxxxxxxxxxx |       0.9886 |       0.9886 |       0.9886 |xxxxxxxxxxxxx |xxxxxxxxxxxxx |xxxxxxxxxxxxx |xxxxxxxxxxxxx |       0.9904 |       0.9904 |       0.9904 |xxxxxxxxxxxxx |xxxxxxxxxxxxx |xxxxxxxxxxxxx |xxxxxxxxxxxxx |       0.9926 |       0.9926 |       0.9926 |xxxxxxxxxxxxx |xxxxxxxxxxxxx |xxxxxxxxxxxxx |xxxxxxxxxxxxx |       0.9950 |       0.9950 |       0.9950 |xxxxxxxxxxxxx |xxxxxxxxxxxxx |xxxxxxxxxxxxx |xxxxxxxxxxxxx |       0.9970 |       0.9970 |       0.9970 |xxxxxxxxxxxxx |xxxxxxxxxxxxx |xxxxxxxxxxxxx |xxxxxxxxxxxxx |       0.9983 |       0.9983 |       0.9983 |xxxxxxxxxxxxx |xxxxxxxxxxxxx |xxxxxxxxxxxxx |xxxxxxxxxxxxx |       1.0000 |       1.0000 |       1.0000 |xxxxxxxxxxxxx |xxxxxxxxxxxxx |xxxxxxxxxxxxx |xxxxxxxxxxxxx |       1.0000 |       1.0000 |       1.0000 |xxxxxxxxxxxxx |xxxxxxxxxxxxx |xxxxxxxxxxxxx |xxxxxxxxxxxxx |       1.0000 |       1.0000 |       1.0000 |xxxxxxxxxxxxx |xxxxxxxxxxxxx |xxxxxxxxxxxxx |xxxxxxxxxxxxx |       1.0000 |       1.0000 |       1.0000 |
bpred_bimod.bpred_jr_non_ras_rate.PP       <error: |      <error: |      <error: |xxxxxxxxxxxxx |xxxxxxxxxxxxx |xxxxxxxxxxxxx |xxxxxxxxxxxxx |      <error: |      <error: |      <error: |xxxxxxxxxxxxx |xxxxxxxxxxxxx |xxxxxxxxxxxxx |xxxxxxxxxxxxx |      <error: |      <error: |      <error: |xxxxxxxxxxxxx |xxxxxxxxxxxxx |xxxxxxxxxxxxx |xxxxxxxxxxxxx |      <error: |      <error: |      <error: |xxxxxxxxxxxxx |xxxxxxxxxxxxx |xxxxxxxxxxxxx |xxxxxxxxxxxxx |      <error: |      <error: |      <error: |xxxxxxxxxxxxx |xxxxxxxxxxxxx |xxxxxxxxxxxxx |xxxxxxxxxxxxx |      <error: |      <error: |      <error: |xxxxxxxxxxxxx |xxxxxxxxxxxxx |xxxxxxxxxxxxx |xxxxxxxxxxxxx |      <error: |      <error: |      <error: |xxxxxxxxxxxxx |xxxxxxxxxxxxx |xxxxxxxxxxxxx |xxxxxxxxxxxxx |       0.0000 |       0.0000 |       0.0000 |xxxxxxxxxxxxx |xxxxxxxxxxxxx |xxxxxxxxxxxxx |xxxxxxxxxxxxx |       0.0000 |       0.0000 |       0.0000 |xxxxxxxxxxxxx |xxxxxxxxxxxxx |xxxxxxxxxxxxx |xxxxxxxxxxxxx |       0.0000 |       0.0000 |       0.0000 |xxxxxxxxxxxxx |xxxxxxxxxxxxx |xxxxxxxxxxxxx |xxxxxxxxxxxxx |       0.0000 |       0.0000 |       0.0000 |
bpred_bimod.retstack_pushes                     82 |           82 |           82 |xxxxxxxxxxxxx |xxxxxxxxxxxxx |xxxxxxxxxxxxx |xxxxxxxxxxxxx |           90 |           90 |           90 |xxxxxxxxxxxxx |xxxxxxxxxxxxx |xxxxxxxxxxxxx |xxxxxxxxxxxxx |          106 |          106 |          106 |xxxxxxxxxxxxx |xxxxxxxxxxxxx |xxxxxxxxxxxxx |xxxxxxxxxxxxx |          138 |          138 |          138 |xxxxxxxxxxxxx |xxxxxxxxxxxxx |xxxxxxxxxxxxx |xxxxxxxxxxxxx |          202 |          202 |          202 |xxxxxxxxxxxxx |xxxxxxxxxxxxx |xxxxxxxxxxxxx |xxxxxxxxxxxxx |          330 |          330 |          330 |xxxxxxxxxxxxx |xxxxxxxxxxxxx |xxxxxxxxxxxxx |xxxxxxxxxxxxx |          586 |          586 |          586 |xxxxxxxxxxxxx |xxxxxxxxxxxxx |xxxxxxxxxxxxx |xxxxxxxxxxxxx |       525415 |       525415 |       525415 |xxxxxxxxxxxxx |xxxxxxxxxxxxx |xxxxxxxxxxxxx |xxxxxxxxxxxxx |      1050729 |      1050729 |      1050729 |xxxxxxxxxxxxx |xxxxxxxxxxxxx |xxxxxxxxxxxxx |xxxxxxxxxxxxx |      2101357 |      2101357 |      2101357 |xxxxxxxxxxxxx |xxxxxxxxxxxxx |xxxxxxxxxxxxx |xxxxxxxxxxxxx |      4202613 |      4202613 |      4202613 |
bpred_bimod.retstack_pops                       80 |           80 |           80 |xxxxxxxxxxxxx |xxxxxxxxxxxxx |xxxxxxxxxxxxx |xxxxxxxxxxxxx |           88 |           88 |           88 |xxxxxxxxxxxxx |xxxxxxxxxxxxx |xxxxxxxxxxxxx |xxxxxxxxxxxxx |          104 |          104 |          104 |xxxxxxxxxxxxx |xxxxxxxxxxxxx |xxxxxxxxxxxxx |xxxxxxxxxxxxx |          136 |          136 |          136 |xxxxxxxxxxxxx |xxxxxxxxxxxxx |xxxxxxxxxxxxx |xxxxxxxxxxxxx |          200 |          200 |          200 |xxxxxxxxxxxxx |xxxxxxxxxxxxx |xxxxxxxxxxxxx |xxxxxxxxxxxxx |          328 |          328 |          328 |xxxxxxxxxxxxx |xxxxxxxxxxxxx |xxxxxxxxxxxxx |xxxxxxxxxxxxx |          584 |          584 |          584 |xxxxxxxxxxxxx |xxxxxxxxxxxxx |xxxxxxxxxxxxx |xxxxxxxxxxxxx |       525413 |       525413 |       525413 |xxxxxxxxxxxxx |xxxxxxxxxxxxx |xxxxxxxxxxxxx |xxxxxxxxxxxxx |      1050727 |      1050727 |      1050727 |xxxxxxxxxxxxx |xxxxxxxxxxxxx |xxxxxxxxxxxxx |xxxxxxxxxxxxx |      2101355 |      2101355 |      2101355 |xxxxxxxxxxxxx |xxxxxxxxxxxxx |xxxxxxxxxxxxx |xxxxxxxxxxxxx |      4202611 |      4202611 |      4202611 |
bpred_bimod.used_ras.PP                         80 |           80 |           80 |xxxxxxxxxxxxx |xxxxxxxxxxxxx |xxxxxxxxxxxxx |xxxxxxxxxxxxx |           88 |           88 |           88 |xxxxxxxxxxxxx |xxxxxxxxxxxxx |xxxxxxxxxxxxx |xxxxxxxxxxxxx |          104 |          104 |          104 |xxxxxxxxxxxxx |xxxxxxxxxxxxx |xxxxxxxxxxxxx |xxxxxxxxxxxxx |          136 |          136 |          136 |xxxxxxxxxxxxx |xxxxxxxxxxxxx |xxxxxxxxxxxxx |xxxxxxxxxxxxx |          200 |          200 |          200 |xxxxxxxxxxxxx |xxxxxxxxxxxxx |xxxxxxxxxxxxx |xxxxxxxxxxxxx |          328 |          328 |          328 |xxxxxxxxxxxxx |xxxxxxxxxxxxx |xxxxxxxxxxxxx |xxxxxxxxxxxxx |          584 |          584 |          584 |xxxxxxxxxxxxx |xxxxxxxxxxxxx |xxxxxxxxxxxxx |xxxxxxxxxxxxx |       525413 |       525413 |       525413 |xxxxxxxxxxxxx |xxxxxxxxxxxxx |xxxxxxxxxxxxx |xxxxxxxxxxxxx |      1050727 |      1050727 |      1050727 |xxxxxxxxxxxxx |xxxxxxxxxxxxx |xxxxxxxxxxxxx |xxxxxxxxxxxxx |      2101355 |      2101355 |      2101355 |xxxxxxxxxxxxx |xxxxxxxxxxxxx |xxxxxxxxxxxxx |xxxxxxxxxxxxx |      4202611 |      4202611 |      4202611 |
bpred_bimod.ras_hits.PP                         79 |           79 |           79 |xxxxxxxxxxxxx |xxxxxxxxxxxxx |xxxxxxxxxxxxx |xxxxxxxxxxxxx |           87 |           87 |           87 |xxxxxxxxxxxxx |xxxxxxxxxxxxx |xxxxxxxxxxxxx |xxxxxxxxxxxxx |          103 |          103 |          103 |xxxxxxxxxxxxx |xxxxxxxxxxxxx |xxxxxxxxxxxxx |xxxxxxxxxxxxx |          135 |          135 |          135 |xxxxxxxxxxxxx |xxxxxxxxxxxxx |xxxxxxxxxxxxx |xxxxxxxxxxxxx |          199 |          199 |          199 |xxxxxxxxxxxxx |xxxxxxxxxxxxx |xxxxxxxxxxxxx |xxxxxxxxxxxxx |          327 |          327 |          327 |xxxxxxxxxxxxx |xxxxxxxxxxxxx |xxxxxxxxxxxxx |xxxxxxxxxxxxx |          583 |          583 |          583 |xxxxxxxxxxxxx |xxxxxxxxxxxxx |xxxxxxxxxxxxx |xxxxxxxxxxxxx |       525413 |       525413 |       525413 |xxxxxxxxxxxxx |xxxxxxxxxxxxx |xxxxxxxxxxxxx |xxxxxxxxxxxxx |      1050727 |      1050727 |      1050727 |xxxxxxxxxxxxx |xxxxxxxxxxxxx |xxxxxxxxxxxxx |xxxxxxxxxxxxx |      2101355 |      2101355 |      2101355 |xxxxxxxxxxxxx |xxxxxxxxxxxxx |xxxxxxxxxxxxx |xxxxxxxxxxxxx |      4202611 |      4202611 |      4202611 |
bpred_bimod.ras_rate.PP                     0.9875 |       0.9875 |       0.9875 |xxxxxxxxxxxxx |xxxxxxxxxxxxx |xxxxxxxxxxxxx |xxxxxxxxxxxxx |       0.9886 |       0.9886 |       0.9886 |xxxxxxxxxxxxx |xxxxxxxxxxxxx |xxxxxxxxxxxxx |xxxxxxxxxxxxx |       0.9904 |       0.9904 |       0.9904 |xxxxxxxxxxxxx |xxxxxxxxxxxxx |xxxxxxxxxxxxx |xxxxxxxxxxxxx |       0.9926 |       0.9926 |       0.9926 |xxxxxxxxxxxxx |xxxxxxxxxxxxx |xxxxxxxxxxxxx |xxxxxxxxxxxxx |       0.9950 |       0.9950 |       0.9950 |xxxxxxxxxxxxx |xxxxxxxxxxxxx |xxxxxxxxxxxxx |xxxxxxxxxxxxx |       0.9970 |       0.9970 |       0.9970 |xxxxxxxxxxxxx |xxxxxxxxxxxxx |xxxxxxxxxxxxx |xxxxxxxxxxxxx |       0.9983 |       0.9983 |       0.9983 |xxxxxxxxxxxxx |xxxxxxxxxxxxx |xxxxxxxxxxxxx |xxxxxxxxxxxxx |       1.0000 |       1.0000 |       1.0000 |xxxxxxxxxxxxx |xxxxxxxxxxxxx |xxxxxxxxxxxxx |xxxxxxxxxxxxx |       1.0000 |       1.0000 |       1.0000 |xxxxxxxxxxxxx |xxxxxxxxxxxxx |xxxxxxxxxxxxx |xxxxxxxxxxxxx |       1.0000 |       1.0000 |       1.0000 |xxxxxxxxxxxxx |xxxxxxxxxxxxx |xxxxxxxxxxxxx |xxxxxxxxxxxxx |       1.0000 |       1.0000 |       1.0000 |
bpred_2lev.lookups                   xxxxxxxxxxxxx |xxxxxxxxxxxxx |xxxxxxxxxxxxx |       112996 |       112996 |       112996 |       112996 |xxxxxxxxxxxxx |xxxxxxxxxxxxx |xxxxxxxxxxxxx |       235685 |       235685 |       235685 |       235685 |xxxxxxxxxxxxx |xxxxxxxxxxxxx |xxxxxxxxxxxxx |       514878 |       514878 |       514878 |       514878 |xxxxxxxxxxxxx |xxxxxxxxxxxxx |xxxxxxxxxxxxx |      1072427 |      1072427 |      1072427 |      1072427 |xxxxxxxxxxxxx |xxxxxxxxxxxxx |xxxxxxxxxxxxx |      2319236 |      2319236 |      2319236 |      2319236 |xxxxxxxxxxxxx |xxxxxxxxxxxxx |xxxxxxxxxxxxx |      4812474 |      4812474 |      4812474 |      4812474 |xxxxxxxxxxxxx |xxxxxxxxxxxxx |xxxxxxxxxxxxx |     10146634 |     10146634 |     10146634 |     10146634 |xxxxxxxxxxxxx |xxxxxxxxxxxxx |xxxxxxxxxxxxx |     30675883 |     30675883 |     30675883 |     30675883 |xxxxxxxxxxxxx |xxxxxxxxxxxxx |xxxxxxxxxxxxx |     67186433 |     67186433 |     67186433 |     67186433 |xxxxxxxxxxxxx |xxxxxxxxxxxxx |xxxxxxxxxxxxx |    145952047 |    145952047 |    145952047 |    145952047 |xxxxxxxxxxxxx |xxxxxxxxxxxxx |xxxxxxxxxxxxx |    314542612 |    314542612 |    314542612 |    314542612 |
[...]
bpred_2lev.used_ras.PP               xxxxxxxxxxxxx |xxxxxxxxxxxxx |xxxxxxxxxxxxx |           80 |           80 |           80 |           80 |xxxxxxxxxxxxx |xxxxxxxxxxxxx |xxxxxxxxxxxxx |           88 |           88 |           88 |           88 |xxxxxxxxxxxxx |xxxxxxxxxxxxx |xxxxxxxxxxxxx |          104 |          104 |          104 |          104 |xxxxxxxxxxxxx |xxxxxxxxxxxxx |xxxxxxxxxxxxx |          136 |          136 |          136 |          136 |xxxxxxxxxxxxx |xxxxxxxxxxxxx |xxxxxxxxxxxxx |          200 |          200 |          200 |          200 |xxxxxxxxxxxxx |xxxxxxxxxxxxx |xxxxxxxxxxxxx |          328 |          328 |          328 |          328 |xxxxxxxxxxxxx |xxxxxxxxxxxxx |xxxxxxxxxxxxx |          584 |          584 |          584 |          584 |xxxxxxxxxxxxx |xxxxxxxxxxxxx |xxxxxxxxxxxxx |       525413 |       525413 |       525413 |       525413 |xxxxxxxxxxxxx |xxxxxxxxxxxxx |xxxxxxxxxxxxx |      1050727 |      1050727 |      1050727 |      1050727 |xxxxxxxxxxxxx |xxxxxxxxxxxxx |xxxxxxxxxxxxx |      2101355 |      2101355 |      2101355 |      2101355 |xxxxxxxxxxxxx |xxxxxxxxxxxxx |xxxxxxxxxxxxx |      4202611 |      4202611 |      4202611 |      4202611 |
bpred_2lev.ras_hits.PP               xxxxxxxxxxxxx |xxxxxxxxxxxxx |xxxxxxxxxxxxx |           79 |           79 |           79 |           79 |xxxxxxxxxxxxx |xxxxxxxxxxxxx |xxxxxxxxxxxxx |           87 |           87 |           87 |           87 |xxxxxxxxxxxxx |xxxxxxxxxxxxx |xxxxxxxxxxxxx |          103 |          103 |          103 |          103 |xxxxxxxxxxxxx |xxxxxxxxxxxxx |xxxxxxxxxxxxx |          135 |          135 |          135 |          135 |xxxxxxxxxxxxx |xxxxxxxxxxxxx |xxxxxxxxxxxxx |          199 |          199 |          199 |          199 |xxxxxxxxxxxxx |xxxxxxxxxxxxx |xxxxxxxxxxxxx |          327 |          327 |          327 |          327 |xxxxxxxxxxxxx |xxxxxxxxxxxxx |xxxxxxxxxxxxx |          583 |          583 |          583 |          583 |xxxxxxxxxxxxx |xxxxxxxxxxxxx |xxxxxxxxxxxxx |       525413 |       525413 |       525413 |       525413 |xxxxxxxxxxxxx |xxxxxxxxxxxxx |xxxxxxxxxxxxx |      1050727 |      1050727 |      1050727 |      1050727 |xxxxxxxxxxxxx |xxxxxxxxxxxxx |xxxxxxxxxxxxx |      2101355 |      2101355 |      2101355 |      2101355 |xxxxxxxxxxxxx |xxxxxxxxxxxxx |xxxxxxxxxxxxx |      4202611 |      4202611 |      4202611 |      4202611 |
bpred_2lev.ras_rate.PP               xxxxxxxxxxxxx |xxxxxxxxxxxxx |xxxxxxxxxxxxx |       0.9875 |       0.9875 |       0.9875 |       0.9875 |xxxxxxxxxxxxx |xxxxxxxxxxxxx |xxxxxxxxxxxxx |       0.9886 |       0.9886 |       0.9886 |       0.9886 |xxxxxxxxxxxxx |xxxxxxxxxxxxx |xxxxxxxxxxxxx |       0.9904 |       0.9904 |       0.9904 |       0.9904 |xxxxxxxxxxxxx |xxxxxxxxxxxxx |xxxxxxxxxxxxx |       0.9926 |       0.9926 |       0.9926 |       0.9926 |xxxxxxxxxxxxx |xxxxxxxxxxxxx |xxxxxxxxxxxxx |       0.9950 |       0.9950 |       0.9950 |       0.9950 |xxxxxxxxxxxxx |xxxxxxxxxxxxx |xxxxxxxxxxxxx |       0.9970 |       0.9970 |       0.9970 |       0.9970 |xxxxxxxxxxxxx |xxxxxxxxxxxxx |xxxxxxxxxxxxx |       0.9983 |       0.9983 |       0.9983 |       0.9983 |xxxxxxxxxxxxx |xxxxxxxxxxxxx |xxxxxxxxxxxxx |       1.0000 |       1.0000 |       1.0000 |       1.0000 |xxxxxxxxxxxxx |xxxxxxxxxxxxx |xxxxxxxxxxxxx |       1.0000 |       1.0000 |       1.0000 |       1.0000 |xxxxxxxxxxxxx |xxxxxxxxxxxxx |xxxxxxxxxxxxx |       1.0000 |       1.0000 |       1.0000 |       1.0000 |xxxxxxxxxxxxx |xxxxxxxxxxxxx |xxxxxxxxxxxxx |       1.0000 |       1.0000 |       1.0000 |       1.0000 |

Command list: 
	sslittle-na-sstrix-gcc -Wall -O3 -funroll-loops -finline-functions  -DRANDOM_SIZE=4096 -DOFFSET=3 -DSORT=double_aligned_multi_mergesort sorts/double_aligned_multi_mergesort1247180435.c simpleMain.c -o double_aligned_multi_mergesort212072577
	sim-cache -cache:dl1 dl1:256:32:1:l -cache:dl2 dl2:131072:32:1:l -cache:il1 il1:256:32:1:l -cache:il2 dl2 double_aligned_multi_mergesort212072577
	sim-cache -cache:dl1 dl1:256:32:1:l -cache:dl2 dl2:65536:32:1:l -cache:il1 il1:256:32:1:l -cache:il2 dl2 double_aligned_multi_mergesort212072577
	sim-cache -cache:dl1 dl1:1:32:256:l -cache:dl2 dl2:1:32:131072:l -cache:il1 il1:1:32:256:l -cache:il2 dl2 double_aligned_multi_mergesort212072577
	sim-cache -cache:dl1 dl1:1:32:256:l -cache:dl2 dl2:1:32:65536:l -cache:il1 il1:1:32:256:l -cache:il2 dl2 double_aligned_multi_mergesort212072577
	sim-bpred -bpred bimod -bpred:bimod 512 double_aligned_multi_mergesort212072577
	sim-bpred -bpred bimod -bpred:bimod 1024 double_aligned_multi_mergesort212072577
	sim-bpred -bpred bimod -bpred:bimod 2048 double_aligned_multi_mergesort212072577
	sim-bpred -bpred 2lev -bpred:2lev 1 512 10 1 double_aligned_multi_mergesort212072577
	sim-bpred -bpred 2lev -bpred:2lev 1 1024 10 1 double_aligned_multi_mergesort212072577
	sim-bpred -bpred 2lev -bpred:2lev 1 2048 10 1 double_aligned_multi_mergesort212072577
	sim-bpred -bpred 2lev -bpred:2lev 1 4096 10 1 double_aligned_multi_mergesort212072577
	sslittle-na-sstrix-gcc -Wall -O3 -funroll-loops -finline-functions  -DRANDOM_SIZE=8192 -DOFFSET=3 -DSORT=double_aligned_multi_mergesort sorts/double_aligned_multi_mergesort1247180435.c simpleMain.c -o double_aligned_multi_mergesort212072577
	sim-cache -cache:dl1 dl1:256:32:1:l -cache:dl2 dl2:131072:32:1:l -cache:il1 il1:256:32:1:l -cache:il2 dl2 double_aligned_multi_mergesort212072577
	sim-cache -cache:dl1 dl1:256:32:1:l -cache:dl2 dl2:65536:32:1:l -cache:il1 il1:256:32:1:l -cache:il2 dl2 double_aligned_multi_mergesort212072577
	sim-cache -cache:dl1 dl1:1:32:256:l -cache:dl2 dl2:1:32:131072:l -cache:il1 il1:1:32:256:l -cache:il2 dl2 double_aligned_multi_mergesort212072577
	sim-cache -cache:dl1 dl1:1:32:256:l -cache:dl2 dl2:1:32:65536:l -cache:il1 il1:1:32:256:l -cache:il2 dl2 double_aligned_multi_mergesort212072577
	sim-bpred -bpred bimod -bpred:bimod 512 double_aligned_multi_mergesort212072577
	sim-bpred -bpred bimod -bpred:bimod 1024 double_aligned_multi_mergesort212072577
	sim-bpred -bpred bimod -bpred:bimod 2048 double_aligned_multi_mergesort212072577
	sim-bpred -bpred 2lev -bpred:2lev 1 512 10 1 double_aligned_multi_mergesort212072577
	sim-bpred -bpred 2lev -bpred:2lev 1 1024 10 1 double_aligned_multi_mergesort212072577
	sim-bpred -bpred 2lev -bpred:2lev 1 2048 10 1 double_aligned_multi_mergesort212072577
	sim-bpred -bpred 2lev -bpred:2lev 1 4096 10 1 double_aligned_multi_mergesort212072577
	sslittle-na-sstrix-gcc -Wall -O3 -funroll-loops -finline-functions  -DRANDOM_SIZE=16384 -DOFFSET=3 -DSORT=double_aligned_multi_mergesort sorts/double_aligned_multi_mergesort1247180435.c simpleMain.c -o double_aligned_multi_mergesort212072577
	sim-cache -cache:dl1 dl1:256:32:1:l -cache:dl2 dl2:131072:32:1:l -cache:il1 il1:256:32:1:l -cache:il2 dl2 double_aligned_multi_mergesort212072577
	sim-cache -cache:dl1 dl1:256:32:1:l -cache:dl2 dl2:65536:32:1:l -cache:il1 il1:256:32:1:l -cache:il2 dl2 double_aligned_multi_mergesort212072577
	sim-cache -cache:dl1 dl1:1:32:256:l -cache:dl2 dl2:1:32:131072:l -cache:il1 il1:1:32:256:l -cache:il2 dl2 double_aligned_multi_mergesort212072577
	sim-cache -cache:dl1 dl1:1:32:256:l -cache:dl2 dl2:1:32:65536:l -cache:il1 il1:1:32:256:l -cache:il2 dl2 double_aligned_multi_mergesort212072577
	sim-bpred -bpred bimod -bpred:bimod 512 double_aligned_multi_mergesort212072577
	sim-bpred -bpred bimod -bpred:bimod 1024 double_aligned_multi_mergesort212072577
	sim-bpred -bpred bimod -bpred:bimod 2048 double_aligned_multi_mergesort212072577
	sim-bpred -bpred 2lev -bpred:2lev 1 512 10 1 double_aligned_multi_mergesort212072577
	sim-bpred -bpred 2lev -bpred:2lev 1 1024 10 1 double_aligned_multi_mergesort212072577
	sim-bpred -bpred 2lev -bpred:2lev 1 2048 10 1 double_aligned_multi_mergesort212072577
	sim-bpred -bpred 2lev -bpred:2lev 1 4096 10 1 double_aligned_multi_mergesort212072577
	sslittle-na-sstrix-gcc -Wall -O3 -funroll-loops -finline-functions  -DRANDOM_SIZE=32768 -DOFFSET=3 -DSORT=double_aligned_multi_mergesort sorts/double_aligned_multi_mergesort1247180435.c simpleMain.c -o double_aligned_multi_mergesort212072577
	sim-cache -cache:dl1 dl1:256:32:1:l -cache:dl2 dl2:131072:32:1:l -cache:il1 il1:256:32:1:l -cache:il2 dl2 double_aligned_multi_mergesort212072577
	sim-cache -cache:dl1 dl1:256:32:1:l -cache:dl2 dl2:65536:32:1:l -cache:il1 il1:256:32:1:l -cache:il2 dl2 double_aligned_multi_mergesort212072577
	sim-cache -cache:dl1 dl1:1:32:256:l -cache:dl2 dl2:1:32:131072:l -cache:il1 il1:1:32:256:l -cache:il2 dl2 double_aligned_multi_mergesort212072577
	sim-cache -cache:dl1 dl1:1:32:256:l -cache:dl2 dl2:1:32:65536:l -cache:il1 il1:1:32:256:l -cache:il2 dl2 double_aligned_multi_mergesort212072577
	sim-bpred -bpred bimod -bpred:bimod 512 double_aligned_multi_mergesort212072577
	sim-bpred -bpred bimod -bpred:bimod 1024 double_aligned_multi_mergesort212072577
	sim-bpred -bpred bimod -bpred:bimod 2048 double_aligned_multi_mergesort212072577
	sim-bpred -bpred 2lev -bpred:2lev 1 512 10 1 double_aligned_multi_mergesort212072577
	sim-bpred -bpred 2lev -bpred:2lev 1 1024 10 1 double_aligned_multi_mergesort212072577
	sim-bpred -bpred 2lev -bpred:2lev 1 2048 10 1 double_aligned_multi_mergesort212072577
	sim-bpred -bpred 2lev -bpred:2lev 1 4096 10 1 double_aligned_multi_mergesort212072577
	sslittle-na-sstrix-gcc -Wall -O3 -funroll-loops -finline-functions  -DRANDOM_SIZE=65536 -DOFFSET=3 -DSORT=double_aligned_multi_mergesort sorts/double_aligned_multi_mergesort1247180435.c simpleMain.c -o double_aligned_multi_mergesort212072577
	sim-cache -cache:dl1 dl1:256:32:1:l -cache:dl2 dl2:131072:32:1:l -cache:il1 il1:256:32:1:l -cache:il2 dl2 double_aligned_multi_mergesort212072577
	sim-cache -cache:dl1 dl1:256:32:1:l -cache:dl2 dl2:65536:32:1:l -cache:il1 il1:256:32:1:l -cache:il2 dl2 double_aligned_multi_mergesort212072577
	sim-cache -cache:dl1 dl1:1:32:256:l -cache:dl2 dl2:1:32:131072:l -cache:il1 il1:1:32:256:l -cache:il2 dl2 double_aligned_multi_mergesort212072577
	sim-cache -cache:dl1 dl1:1:32:256:l -cache:dl2 dl2:1:32:65536:l -cache:il1 il1:1:32:256:l -cache:il2 dl2 double_aligned_multi_mergesort212072577
	sim-bpred -bpred bimod -bpred:bimod 512 double_aligned_multi_mergesort212072577
	sim-bpred -bpred bimod -bpred:bimod 1024 double_aligned_multi_mergesort212072577
	sim-bpred -bpred bimod -bpred:bimod 2048 double_aligned_multi_mergesort212072577
	sim-bpred -bpred 2lev -bpred:2lev 1 512 10 1 double_aligned_multi_mergesort212072577
	sim-bpred -bpred 2lev -bpred:2lev 1 1024 10 1 double_aligned_multi_mergesort212072577
	sim-bpred -bpred 2lev -bpred:2lev 1 2048 10 1 double_aligned_multi_mergesort212072577
	sim-bpred -bpred 2lev -bpred:2lev 1 4096 10 1 double_aligned_multi_mergesort212072577
	sslittle-na-sstrix-gcc -Wall -O3 -funroll-loops -finline-functions  -DRANDOM_SIZE=131072 -DOFFSET=3 -DSORT=double_aligned_multi_mergesort sorts/double_aligned_multi_mergesort1247180435.c simpleMain.c -o double_aligned_multi_mergesort212072577
	sim-cache -cache:dl1 dl1:256:32:1:l -cache:dl2 dl2:131072:32:1:l -cache:il1 il1:256:32:1:l -cache:il2 dl2 double_aligned_multi_mergesort212072577
	sim-cache -cache:dl1 dl1:256:32:1:l -cache:dl2 dl2:65536:32:1:l -cache:il1 il1:256:32:1:l -cache:il2 dl2 double_aligned_multi_mergesort212072577
	sim-cache -cache:dl1 dl1:1:32:256:l -cache:dl2 dl2:1:32:131072:l -cache:il1 il1:1:32:256:l -cache:il2 dl2 double_aligned_multi_mergesort212072577
	sim-cache -cache:dl1 dl1:1:32:256:l -cache:dl2 dl2:1:32:65536:l -cache:il1 il1:1:32:256:l -cache:il2 dl2 double_aligned_multi_mergesort212072577
	sim-bpred -bpred bimod -bpred:bimod 512 double_aligned_multi_mergesort212072577
	sim-bpred -bpred bimod -bpred:bimod 1024 double_aligned_multi_mergesort212072577
	sim-bpred -bpred bimod -bpred:bimod 2048 double_aligned_multi_mergesort212072577
	sim-bpred -bpred 2lev -bpred:2lev 1 512 10 1 double_aligned_multi_mergesort212072577
	sim-bpred -bpred 2lev -bpred:2lev 1 1024 10 1 double_aligned_multi_mergesort212072577
	sim-bpred -bpred 2lev -bpred:2lev 1 2048 10 1 double_aligned_multi_mergesort212072577
	sim-bpred -bpred 2lev -bpred:2lev 1 4096 10 1 double_aligned_multi_mergesort212072577
	sslittle-na-sstrix-gcc -Wall -O3 -funroll-loops -finline-functions  -DRANDOM_SIZE=262144 -DOFFSET=3 -DSORT=double_aligned_multi_mergesort sorts/double_aligned_multi_mergesort1247180435.c simpleMain.c -o double_aligned_multi_mergesort212072577
	sim-cache -cache:dl1 dl1:256:32:1:l -cache:dl2 dl2:131072:32:1:l -cache:il1 il1:256:32:1:l -cache:il2 dl2 double_aligned_multi_mergesort212072577
	sim-cache -cache:dl1 dl1:256:32:1:l -cache:dl2 dl2:65536:32:1:l -cache:il1 il1:256:32:1:l -cache:il2 dl2 double_aligned_multi_mergesort212072577
	sim-cache -cache:dl1 dl1:1:32:256:l -cache:dl2 dl2:1:32:131072:l -cache:il1 il1:1:32:256:l -cache:il2 dl2 double_aligned_multi_mergesort212072577
	sim-cache -cache:dl1 dl1:1:32:256:l -cache:dl2 dl2:1:32:65536:l -cache:il1 il1:1:32:256:l -cache:il2 dl2 double_aligned_multi_mergesort212072577
	sim-bpred -bpred bimod -bpred:bimod 512 double_aligned_multi_mergesort212072577
	sim-bpred -bpred bimod -bpred:bimod 1024 double_aligned_multi_mergesort212072577
	sim-bpred -bpred bimod -bpred:bimod 2048 double_aligned_multi_mergesort212072577
	sim-bpred -bpred 2lev -bpred:2lev 1 512 10 1 double_aligned_multi_mergesort212072577
	sim-bpred -bpred 2lev -bpred:2lev 1 1024 10 1 double_aligned_multi_mergesort212072577
	sim-bpred -bpred 2lev -bpred:2lev 1 2048 10 1 double_aligned_multi_mergesort212072577
	sim-bpred -bpred 2lev -bpred:2lev 1 4096 10 1 double_aligned_multi_mergesort212072577
	sslittle-na-sstrix-gcc -Wall -O3 -funroll-loops -finline-functions  -DRANDOM_SIZE=524288 -DOFFSET=3 -DSORT=double_aligned_multi_mergesort sorts/double_aligned_multi_mergesort1247180435.c simpleMain.c -o double_aligned_multi_mergesort212072577
	sim-cache -cache:dl1 dl1:256:32:1:l -cache:dl2 dl2:131072:32:1:l -cache:il1 il1:256:32:1:l -cache:il2 dl2 double_aligned_multi_mergesort212072577
	sim-cache -cache:dl1 dl1:256:32:1:l -cache:dl2 dl2:65536:32:1:l -cache:il1 il1:256:32:1:l -cache:il2 dl2 double_aligned_multi_mergesort212072577
	sim-cache -cache:dl1 dl1:1:32:256:l -cache:dl2 dl2:1:32:131072:l -cache:il1 il1:1:32:256:l -cache:il2 dl2 double_aligned_multi_mergesort212072577
	sim-cache -cache:dl1 dl1:1:32:256:l -cache:dl2 dl2:1:32:65536:l -cache:il1 il1:1:32:256:l -cache:il2 dl2 double_aligned_multi_mergesort212072577
	sim-bpred -bpred bimod -bpred:bimod 512 double_aligned_multi_mergesort212072577
	sim-bpred -bpred bimod -bpred:bimod 1024 double_aligned_multi_mergesort212072577
	sim-bpred -bpred bimod -bpred:bimod 2048 double_aligned_multi_mergesort212072577
	sim-bpred -bpred 2lev -bpred:2lev 1 512 10 1 double_aligned_multi_mergesort212072577
	sim-bpred -bpred 2lev -bpred:2lev 1 1024 10 1 double_aligned_multi_mergesort212072577
	sim-bpred -bpred 2lev -bpred:2lev 1 2048 10 1 double_aligned_multi_mergesort212072577
	sim-bpred -bpred 2lev -bpred:2lev 1 4096 10 1 double_aligned_multi_mergesort212072577
	sslittle-na-sstrix-gcc -Wall -O3 -funroll-loops -finline-functions  -DRANDOM_SIZE=1048576 -DOFFSET=3 -DSORT=double_aligned_multi_mergesort sorts/double_aligned_multi_mergesort1247180435.c simpleMain.c -o double_aligned_multi_mergesort212072577
	sim-cache -cache:dl1 dl1:256:32:1:l -cache:dl2 dl2:131072:32:1:l -cache:il1 il1:256:32:1:l -cache:il2 dl2 double_aligned_multi_mergesort212072577
	sim-cache -cache:dl1 dl1:256:32:1:l -cache:dl2 dl2:65536:32:1:l -cache:il1 il1:256:32:1:l -cache:il2 dl2 double_aligned_multi_mergesort212072577
	sim-cache -cache:dl1 dl1:1:32:256:l -cache:dl2 dl2:1:32:131072:l -cache:il1 il1:1:32:256:l -cache:il2 dl2 double_aligned_multi_mergesort212072577
	sim-cache -cache:dl1 dl1:1:32:256:l -cache:dl2 dl2:1:32:65536:l -cache:il1 il1:1:32:256:l -cache:il2 dl2 double_aligned_multi_mergesort212072577
	sim-bpred -bpred bimod -bpred:bimod 512 double_aligned_multi_mergesort212072577
	sim-bpred -bpred bimod -bpred:bimod 1024 double_aligned_multi_mergesort212072577
	sim-bpred -bpred bimod -bpred:bimod 2048 double_aligned_multi_mergesort212072577
	sim-bpred -bpred 2lev -bpred:2lev 1 512 10 1 double_aligned_multi_mergesort212072577
	sim-bpred -bpred 2lev -bpred:2lev 1 1024 10 1 double_aligned_multi_mergesort212072577
	sim-bpred -bpred 2lev -bpred:2lev 1 2048 10 1 double_aligned_multi_mergesort212072577
	sim-bpred -bpred 2lev -bpred:2lev 1 4096 10 1 double_aligned_multi_mergesort212072577
	sslittle-na-sstrix-gcc -Wall -O3 -funroll-loops -finline-functions  -DRANDOM_SIZE=2097152 -DOFFSET=3 -DSORT=double_aligned_multi_mergesort sorts/double_aligned_multi_mergesort1247180435.c simpleMain.c -o double_aligned_multi_mergesort212072577
	sim-cache -cache:dl1 dl1:256:32:1:l -cache:dl2 dl2:131072:32:1:l -cache:il1 il1:256:32:1:l -cache:il2 dl2 double_aligned_multi_mergesort212072577
	sim-cache -cache:dl1 dl1:256:32:1:l -cache:dl2 dl2:65536:32:1:l -cache:il1 il1:256:32:1:l -cache:il2 dl2 double_aligned_multi_mergesort212072577
	sim-cache -cache:dl1 dl1:1:32:256:l -cache:dl2 dl2:1:32:131072:l -cache:il1 il1:1:32:256:l -cache:il2 dl2 double_aligned_multi_mergesort212072577
	sim-cache -cache:dl1 dl1:1:32:256:l -cache:dl2 dl2:1:32:65536:l -cache:il1 il1:1:32:256:l -cache:il2 dl2 double_aligned_multi_mergesort212072577
	sim-bpred -bpred bimod -bpred:bimod 512 double_aligned_multi_mergesort212072577
	sim-bpred -bpred bimod -bpred:bimod 1024 double_aligned_multi_mergesort212072577
	sim-bpred -bpred bimod -bpred:bimod 2048 double_aligned_multi_mergesort212072577
	sim-bpred -bpred 2lev -bpred:2lev 1 512 10 1 double_aligned_multi_mergesort212072577
	sim-bpred -bpred 2lev -bpred:2lev 1 1024 10 1 double_aligned_multi_mergesort212072577
	sim-bpred -bpred 2lev -bpred:2lev 1 2048 10 1 double_aligned_multi_mergesort212072577
	sim-bpred -bpred 2lev -bpred:2lev 1 4096 10 1 double_aligned_multi_mergesort212072577
	sslittle-na-sstrix-gcc -Wall -O3 -funroll-loops -finline-functions  -DRANDOM_SIZE=4194304 -DOFFSET=3 -DSORT=double_aligned_multi_mergesort sorts/double_aligned_multi_mergesort1247180435.c simpleMain.c -o double_aligned_multi_mergesort212072577
	sim-cache -cache:dl1 dl1:256:32:1:l -cache:dl2 dl2:131072:32:1:l -cache:il1 il1:256:32:1:l -cache:il2 dl2 double_aligned_multi_mergesort212072577
	sim-cache -cache:dl1 dl1:256:32:1:l -cache:dl2 dl2:65536:32:1:l -cache:il1 il1:256:32:1:l -cache:il2 dl2 double_aligned_multi_mergesort212072577
	sim-cache -cache:dl1 dl1:1:32:256:l -cache:dl2 dl2:1:32:131072:l -cache:il1 il1:1:32:256:l -cache:il2 dl2 double_aligned_multi_mergesort212072577
	sim-cache -cache:dl1 dl1:1:32:256:l -cache:dl2 dl2:1:32:65536:l -cache:il1 il1:1:32:256:l -cache:il2 dl2 double_aligned_multi_mergesort212072577
	sim-bpred -bpred bimod -bpred:bimod 512 double_aligned_multi_mergesort212072577
	sim-bpred -bpred bimod -bpred:bimod 1024 double_aligned_multi_mergesort212072577
	sim-bpred -bpred bimod -bpred:bimod 2048 double_aligned_multi_mergesort212072577
	sim-bpred -bpred 2lev -bpred:2lev 1 512 10 1 double_aligned_multi_mergesort212072577
	sim-bpred -bpred 2lev -bpred:2lev 1 1024 10 1 double_aligned_multi_mergesort212072577
	sim-bpred -bpred 2lev -bpred:2lev 1 2048 10 1 double_aligned_multi_mergesort212072577
	sim-bpred -bpred 2lev -bpred:2lev 1 4096 10 1 double_aligned_multi_mergesort212072577
