Tue Jun 14 10:45:07 2005
Run as: "./simple -c random.org0 -o 0 double_multi_mergesort"
-------------------------------------------------------------------------------------------------
sim-cache                                     4096 |         4096 |         4096 |         4096 |         8192 |         8192 |         8192 |         8192 |        16384 |        16384 |        16384 |        16384 |        32768 |        32768 |        32768 |        32768 |        65536 |        65536 |        65536 |        65536 |       131072 |       131072 |       131072 |       131072 |       262144 |       262144 |       262144 |       262144 |       524288 |       524288 |       524288 |       524288 |      1048576 |      1048576 |      1048576 |      1048576 |      2097152 |      2097152 |      2097152 |      2097152 |      4194304 |      4194304 |      4194304 |      4194304 |
-cache:dl1 dl1:256:32:1:l -cache:dl2 dl2:131072:32:1:l -cache:il1 il1:256:32:1:l -cache:il2 dl2
-cache:dl1 dl1:256:32:1:l -cache:dl2 dl2:65536:32:1:l -cache:il1 il1:256:32:1:l -cache:il2 dl2
-cache:dl1 dl1:1:32:256:l -cache:dl2 dl2:1:32:131072:l -cache:il1 il1:1:32:256:l -cache:il2 dl2
-cache:dl1 dl1:1:32:256:l -cache:dl2 dl2:1:32:65536:l -cache:il1 il1:1:32:256:l -cache:il2 dl2
-------------------------------------------------------------------------------------------------
sim_num_insn                                860538 |       860538 |       860538 |       860538 |      1751750 |      1751750 |      1751750 |      1751750 |      3960466 |      3960466 |      3960466 |      3960466 |      8061901 |      8061901 |      8061901 |      8061901 |     17987001 |     17987001 |     17987001 |     17987001 |     36561488 |     36561488 |     36561488 |     36561488 |     77450048 |     77450048 |     77450048 |     77450048 |    223350463 |    223350463 |    223350463 |    223350463 |    473157374 |    473157374 |    473157374 |    473157374 |   1035722385 |   1035722385 |   1035722385 |   1035722385 |   2186794743 |   2186794743 |   2186794743 |   2186794743 |
sim_num_refs                                229064 |       229064 |       229064 |       229064 |       472154 |       472154 |       472154 |       472154 |      1051779 |      1051779 |      1051779 |      1051779 |      2170582 |      2170582 |      2170582 |      2170582 |      4785787 |      4785787 |      4785787 |      4785787 |      9852784 |      9852784 |      9852784 |      9852784 |     20882761 |     20882761 |     20882761 |     20882761 |     60934001 |     60934001 |     60934001 |     60934001 |    130147610 |    130147610 |    130147610 |    130147610 |    283190624 |    283190624 |    283190624 |    283190624 |    604338783 |    604338783 |    604338783 |    604338783 |
sim_elapsed_time                                 1 |            1 |           11 |            5 |            1 |            1 |           16 |            8 |            1 |            1 |           27 |           14 |            2 |            2 |           48 |           24 |            5 |            5 |           89 |           45 |            9 |           10 |          164 |           76 |           21 |           20 |          282 |          108 |           60 |           60 |          405 |          149 |          127 |          127 |          477 |          221 |          278 |          278 |          638 |          384 |          588 |          587 |          974 |          716 |
sim_inst_rate                          860538.0000 |  860538.0000 |   78230.7273 |  172107.6000 | 1751750.0000 | 1751750.0000 |  109484.3750 |  218968.7500 | 3960466.0000 | 3960466.0000 |  146683.9259 |  282890.4286 | 4030950.5000 | 4030950.5000 |  167956.2708 |  335912.5417 | 3597400.2000 | 3597400.2000 |  202101.1348 |  399711.1333 | 4062387.5556 | 3656148.8000 |  222935.9024 |  481072.2105 | 3688097.5238 | 3872502.4000 |  274645.5603 |  717130.0741 | 3722507.7167 | 3722507.7167 |  551482.6247 | 1498996.3960 | 3725648.6142 | 3725648.6142 |  991944.1803 | 2140983.5928 | 3725620.0899 | 3725620.0899 | 1623389.3182 | 2697193.7109 | 3719038.6786 | 3725374.3492 | 2245169.1407 | 3054182.6020 |
il1.accesses                                860538 |       860538 |       860538 |       860538 |      1751750 |      1751750 |      1751750 |      1751750 |      3960466 |      3960466 |      3960466 |      3960466 |      8061901 |      8061901 |      8061901 |      8061901 |     17987001 |     17987001 |     17987001 |     17987001 |     36561488 |     36561488 |     36561488 |     36561488 |     77450048 |     77450048 |     77450048 |     77450048 |    223350463 |    223350463 |    223350463 |    223350463 |    473157374 |    473157374 |    473157374 |    473157374 |   1035722385 |   1035722385 |   1035722385 |   1035722385 |   2186794743 |   2186794743 |   2186794743 |   2186794743 |
il1.hits                                    859863 |       859863 |       859967 |       859967 |      1751026 |      1751026 |      1751154 |      1751154 |      3959707 |      3959707 |      3959884 |      3959884 |      8061033 |      8061033 |      8061304 |      8061304 |     17985964 |     17985964 |     17986422 |     17986422 |     36560044 |     36560044 |     36560891 |     36560891 |     77448346 |     77448346 |     77449454 |     77449454 |    222038755 |    222038755 |    223349585 |    223349585 |    470534889 |    470534889 |    473156449 |    473156449 |   1030478474 |   1030478474 |   1035721478 |   1035721478 |   2176307924 |   2176307924 |   2186793818 |   2186793818 |
il1.misses                                     675 |          675 |          571 |          571 |          724 |          724 |          596 |          596 |          759 |          759 |          582 |          582 |          868 |          868 |          597 |          597 |         1037 |         1037 |          579 |          579 |         1444 |         1444 |          597 |          597 |         1702 |         1702 |          594 |          594 |      1311708 |      1311708 |          878 |          878 |      2622485 |      2622485 |          925 |          925 |      5243911 |      5243911 |          907 |          907 |     10486819 |     10486819 |          925 |          925 |
il1.replacements                               442 |          442 |          315 |          315 |          490 |          490 |          340 |          340 |          524 |          524 |          326 |          326 |          633 |          633 |          341 |          341 |          802 |          802 |          323 |          323 |         1209 |         1209 |          341 |          341 |         1466 |         1466 |          338 |          338 |      1311452 |      1311452 |          622 |          622 |      2622229 |      2622229 |          669 |          669 |      5243655 |      5243655 |          651 |          651 |     10486563 |     10486563 |          669 |          669 |
il1.writebacks                                   0 |            0 |            0 |            0 |            0 |            0 |            0 |            0 |            0 |            0 |            0 |            0 |            0 |            0 |            0 |            0 |            0 |            0 |            0 |            0 |            0 |            0 |            0 |            0 |            0 |            0 |            0 |            0 |            0 |            0 |            0 |            0 |            0 |            0 |            0 |            0 |            0 |            0 |            0 |            0 |            0 |            0 |            0 |            0 |
il1.invalidations                                0 |            0 |            0 |            0 |            0 |            0 |            0 |            0 |            0 |            0 |            0 |            0 |            0 |            0 |            0 |            0 |            0 |            0 |            0 |            0 |            0 |            0 |            0 |            0 |            0 |            0 |            0 |            0 |            0 |            0 |            0 |            0 |            0 |            0 |            0 |            0 |            0 |            0 |            0 |            0 |            0 |            0 |            0 |            0 |
il1.miss_rate                               0.0008 |       0.0008 |       0.0007 |       0.0007 |       0.0004 |       0.0004 |       0.0003 |       0.0003 |       0.0002 |       0.0002 |       0.0001 |       0.0001 |       0.0001 |       0.0001 |       0.0001 |       0.0001 |       0.0001 |       0.0001 |       0.0000 |       0.0000 |       0.0000 |       0.0000 |       0.0000 |       0.0000 |       0.0000 |       0.0000 |       0.0000 |       0.0000 |       0.0059 |       0.0059 |       0.0000 |       0.0000 |       0.0055 |       0.0055 |       0.0000 |       0.0000 |       0.0051 |       0.0051 |       0.0000 |       0.0000 |       0.0048 |       0.0048 |       0.0000 |       0.0000 |
il1.repl_rate                               0.0005 |       0.0005 |       0.0004 |       0.0004 |       0.0003 |       0.0003 |       0.0002 |       0.0002 |       0.0001 |       0.0001 |       0.0001 |       0.0001 |       0.0001 |       0.0001 |       0.0000 |       0.0000 |       0.0000 |       0.0000 |       0.0000 |       0.0000 |       0.0000 |       0.0000 |       0.0000 |       0.0000 |       0.0000 |       0.0000 |       0.0000 |       0.0000 |       0.0059 |       0.0059 |       0.0000 |       0.0000 |       0.0055 |       0.0055 |       0.0000 |       0.0000 |       0.0051 |       0.0051 |       0.0000 |       0.0000 |       0.0048 |       0.0048 |       0.0000 |       0.0000 |
il1.wb_rate                                 0.0000 |       0.0000 |       0.0000 |       0.0000 |       0.0000 |       0.0000 |       0.0000 |       0.0000 |       0.0000 |       0.0000 |       0.0000 |       0.0000 |       0.0000 |       0.0000 |       0.0000 |       0.0000 |       0.0000 |       0.0000 |       0.0000 |       0.0000 |       0.0000 |       0.0000 |       0.0000 |       0.0000 |       0.0000 |       0.0000 |       0.0000 |       0.0000 |       0.0000 |       0.0000 |       0.0000 |       0.0000 |       0.0000 |       0.0000 |       0.0000 |       0.0000 |       0.0000 |       0.0000 |       0.0000 |       0.0000 |       0.0000 |       0.0000 |       0.0000 |       0.0000 |
il1.inv_rate                                0.0000 |       0.0000 |       0.0000 |       0.0000 |       0.0000 |       0.0000 |       0.0000 |       0.0000 |       0.0000 |       0.0000 |       0.0000 |       0.0000 |       0.0000 |       0.0000 |       0.0000 |       0.0000 |       0.0000 |       0.0000 |       0.0000 |       0.0000 |       0.0000 |       0.0000 |       0.0000 |       0.0000 |       0.0000 |       0.0000 |       0.0000 |       0.0000 |       0.0000 |       0.0000 |       0.0000 |       0.0000 |       0.0000 |       0.0000 |       0.0000 |       0.0000 |       0.0000 |       0.0000 |       0.0000 |       0.0000 |       0.0000 |       0.0000 |       0.0000 |       0.0000 |
dl1.accesses                                245522 |       245522 |       245522 |       245522 |       504996 |       504996 |       504996 |       504996 |      1117389 |      1117389 |      1117389 |      1117389 |      2301728 |      2301728 |      2301728 |      2301728 |      5048005 |      5048005 |      5048005 |      5048005 |     10377146 |     10377146 |     10377146 |     10377146 |     21931411 |     21931411 |     21931411 |     21931411 |     63031227 |     63031227 |     63031227 |     63031227 |    134341988 |    134341988 |    134341988 |    134341988 |    291579306 |    291579306 |    291579306 |    291579306 |    621116073 |    621116073 |    621116073 |    621116073 |
dl1.hits                                    240131 |       240131 |       238591 |       238591 |       492478 |       492478 |       490812 |       490812 |      1088237 |      1088237 |      1082857 |      1082857 |      2234857 |      2234857 |      2230003 |      2230003 |      4896332 |      4896332 |      4878402 |      4878402 |     10038174 |     10038174 |     10026017 |     10026017 |     21181613 |     21181613 |     21164081 |     21164081 |     61226070 |     61226070 |     61282920 |     61282920 |    130725513 |    130725513 |    131009603 |    131009603 |    284330637 |    284330637 |    284591362 |    284591362 |    606571900 |    606571900 |    607788224 |    607788224 |
dl1.misses                                    5391 |         5391 |         6931 |         6931 |        12518 |        12518 |        14184 |        14184 |        29152 |        29152 |        34532 |        34532 |        66871 |        66871 |        71725 |        71725 |       151673 |       151673 |       169603 |       169603 |       338972 |       338972 |       351129 |       351129 |       749798 |       749798 |       767330 |       767330 |      1805157 |      1805157 |      1748307 |      1748307 |      3616475 |      3616475 |      3332385 |      3332385 |      7248669 |      7248669 |      6987944 |      6987944 |     14544173 |     14544173 |     13327849 |     13327849 |
dl1.replacements                              5135 |         5135 |         6675 |         6675 |        12262 |        12262 |        13928 |        13928 |        28896 |        28896 |        34276 |        34276 |        66615 |        66615 |        71469 |        71469 |       151417 |       151417 |       169347 |       169347 |       338716 |       338716 |       350873 |       350873 |       749542 |       749542 |       767074 |       767074 |      1804901 |      1804901 |      1748051 |      1748051 |      3616219 |      3616219 |      3332129 |      3332129 |      7248413 |      7248413 |      6987688 |      6987688 |     14543917 |     14543917 |     13327593 |     13327593 |
dl1.writebacks                                3498 |         3498 |         5040 |         5040 |         7752 |         7752 |         9763 |         9763 |        17390 |        17390 |        23338 |        23338 |        38827 |        38827 |        46321 |        46321 |        85980 |        85980 |       108903 |       108903 |       188857 |       188857 |       217216 |       217216 |       411785 |       411785 |       466882 |       466882 |      1045527 |      1045527 |      1067175 |      1067175 |      2095691 |      2095691 |      1999347 |      1999347 |      4211899 |      4211899 |      4265657 |      4265657 |      8458808 |      8458808 |      7997695 |      7997695 |
dl1.invalidations                                0 |            0 |            0 |            0 |            0 |            0 |            0 |            0 |            0 |            0 |            0 |            0 |            0 |            0 |            0 |            0 |            0 |            0 |            0 |            0 |            0 |            0 |            0 |            0 |            0 |            0 |            0 |            0 |            0 |            0 |            0 |            0 |            0 |            0 |            0 |            0 |            0 |            0 |            0 |            0 |            0 |            0 |            0 |            0 |
dl1.miss_rate                               0.0220 |       0.0220 |       0.0282 |       0.0282 |       0.0248 |       0.0248 |       0.0281 |       0.0281 |       0.0261 |       0.0261 |       0.0309 |       0.0309 |       0.0291 |       0.0291 |       0.0312 |       0.0312 |       0.0300 |       0.0300 |       0.0336 |       0.0336 |       0.0327 |       0.0327 |       0.0338 |       0.0338 |       0.0342 |       0.0342 |       0.0350 |       0.0350 |       0.0286 |       0.0286 |       0.0277 |       0.0277 |       0.0269 |       0.0269 |       0.0248 |       0.0248 |       0.0249 |       0.0249 |       0.0240 |       0.0240 |       0.0234 |       0.0234 |       0.0215 |       0.0215 |
dl1.repl_rate                               0.0209 |       0.0209 |       0.0272 |       0.0272 |       0.0243 |       0.0243 |       0.0276 |       0.0276 |       0.0259 |       0.0259 |       0.0307 |       0.0307 |       0.0289 |       0.0289 |       0.0311 |       0.0311 |       0.0300 |       0.0300 |       0.0335 |       0.0335 |       0.0326 |       0.0326 |       0.0338 |       0.0338 |       0.0342 |       0.0342 |       0.0350 |       0.0350 |       0.0286 |       0.0286 |       0.0277 |       0.0277 |       0.0269 |       0.0269 |       0.0248 |       0.0248 |       0.0249 |       0.0249 |       0.0240 |       0.0240 |       0.0234 |       0.0234 |       0.0215 |       0.0215 |
dl1.wb_rate                                 0.0142 |       0.0142 |       0.0205 |       0.0205 |       0.0154 |       0.0154 |       0.0193 |       0.0193 |       0.0156 |       0.0156 |       0.0209 |       0.0209 |       0.0169 |       0.0169 |       0.0201 |       0.0201 |       0.0170 |       0.0170 |       0.0216 |       0.0216 |       0.0182 |       0.0182 |       0.0209 |       0.0209 |       0.0188 |       0.0188 |       0.0213 |       0.0213 |       0.0166 |       0.0166 |       0.0169 |       0.0169 |       0.0156 |       0.0156 |       0.0149 |       0.0149 |       0.0144 |       0.0144 |       0.0146 |       0.0146 |       0.0136 |       0.0136 |       0.0129 |       0.0129 |
dl1.inv_rate                                0.0000 |       0.0000 |       0.0000 |       0.0000 |       0.0000 |       0.0000 |       0.0000 |       0.0000 |       0.0000 |       0.0000 |       0.0000 |       0.0000 |       0.0000 |       0.0000 |       0.0000 |       0.0000 |       0.0000 |       0.0000 |       0.0000 |       0.0000 |       0.0000 |       0.0000 |       0.0000 |       0.0000 |       0.0000 |       0.0000 |       0.0000 |       0.0000 |       0.0000 |       0.0000 |       0.0000 |       0.0000 |       0.0000 |       0.0000 |       0.0000 |       0.0000 |       0.0000 |       0.0000 |       0.0000 |       0.0000 |       0.0000 |       0.0000 |       0.0000 |       0.0000 |
dl2.accesses                                  9564 |         9564 |        12542 |        12542 |        20994 |        20994 |        24543 |        24543 |        47301 |        47301 |        58452 |        58452 |       106566 |       106566 |       118643 |       118643 |       238690 |       238690 |       279085 |       279085 |       529273 |       529273 |       568942 |       568942 |      1163285 |      1163285 |      1234806 |      1234806 |      4162392 |      4162392 |      2816360 |      2816360 |      8334651 |      8334651 |      5332657 |      5332657 |     16704479 |     16704479 |     11254508 |     11254508 |     33489800 |     33489800 |     21326469 |     21326469 |
dl2.hits                                      7533 |         7533 |        10583 |        10583 |        17899 |        17899 |        21541 |        21541 |        42186 |        42186 |        53412 |        53412 |        97325 |        97325 |       109495 |       109495 |       221292 |       221292 |       261762 |       261762 |       495457 |       495457 |       535219 |       535219 |      1096713 |      1094132 |      1168319 |      1131682 |      3974773 |      3869853 |      2647119 |      2424844 |      7741139 |      7672598 |      4685480 |      4553075 |     15373528 |     15372968 |      9945087 |      9698847 |     30826880 |     30825829 |     18702482 |     18217286 |
dl2.misses                                    2031 |         2031 |         1959 |         1959 |         3095 |         3095 |         3002 |         3002 |         5115 |         5115 |         5040 |         5040 |         9241 |         9241 |         9148 |         9148 |        17398 |        17398 |        17323 |        17323 |        33816 |        33816 |        33723 |        33723 |        66572 |        69153 |        66487 |       103124 |       187619 |       292539 |       169241 |       391516 |       593512 |       662053 |       647177 |       779582 |      1330951 |      1331511 |      1309421 |      1555661 |      2662920 |      2663971 |      2623987 |      3109183 |
dl2.replacements                               232 |          232 |            0 |            0 |          269 |          269 |            0 |            0 |          235 |          235 |            0 |            0 |          270 |          270 |            0 |            0 |          236 |          236 |            0 |            0 |          270 |          270 |            0 |            0 |          254 |         3733 |            0 |        37588 |        87743 |       227003 |        38169 |       325980 |       462440 |       596517 |       516105 |       714046 |      1199879 |      1265975 |      1178349 |      1490125 |      2531848 |      2598435 |      2492915 |      3043647 |
dl2.writebacks                                 105 |          105 |            0 |            0 |          108 |          108 |            0 |            0 |          108 |          108 |            0 |            0 |          109 |          109 |            0 |            0 |          109 |          109 |            0 |            0 |          109 |          109 |            0 |            0 |           99 |         2225 |            0 |        37140 |        87482 |       190801 |        37349 |       292132 |       393668 |       478212 |       460429 |       614535 |       959963 |      1001802 |       985374 |      1259398 |      2004929 |      2058979 |      2035343 |      2550452 |
dl2.invalidations                                0 |            0 |            0 |            0 |            0 |            0 |            0 |            0 |            0 |            0 |            0 |            0 |            0 |            0 |            0 |            0 |            0 |            0 |            0 |            0 |            0 |            0 |            0 |            0 |            0 |            0 |            0 |            0 |            0 |            0 |            0 |            0 |            0 |            0 |            0 |            0 |            0 |            0 |            0 |            0 |            0 |            0 |            0 |            0 |
dl2.miss_rate                               0.2124 |       0.2124 |       0.1562 |       0.1562 |       0.1474 |       0.1474 |       0.1223 |       0.1223 |       0.1081 |       0.1081 |       0.0862 |       0.0862 |       0.0867 |       0.0867 |       0.0771 |       0.0771 |       0.0729 |       0.0729 |       0.0621 |       0.0621 |       0.0639 |       0.0639 |       0.0593 |       0.0593 |       0.0572 |       0.0594 |       0.0538 |       0.0835 |       0.0451 |       0.0703 |       0.0601 |       0.1390 |       0.0712 |       0.0794 |       0.1214 |       0.1462 |       0.0797 |       0.0797 |       0.1163 |       0.1382 |       0.0795 |       0.0795 |       0.1230 |       0.1458 |
dl2.repl_rate                               0.0243 |       0.0243 |       0.0000 |       0.0000 |       0.0128 |       0.0128 |       0.0000 |       0.0000 |       0.0050 |       0.0050 |       0.0000 |       0.0000 |       0.0025 |       0.0025 |       0.0000 |       0.0000 |       0.0010 |       0.0010 |       0.0000 |       0.0000 |       0.0005 |       0.0005 |       0.0000 |       0.0000 |       0.0002 |       0.0032 |       0.0000 |       0.0304 |       0.0211 |       0.0545 |       0.0136 |       0.1157 |       0.0555 |       0.0716 |       0.0968 |       0.1339 |       0.0718 |       0.0758 |       0.1047 |       0.1324 |       0.0756 |       0.0776 |       0.1169 |       0.1427 |
dl2.wb_rate                                 0.0110 |       0.0110 |       0.0000 |       0.0000 |       0.0051 |       0.0051 |       0.0000 |       0.0000 |       0.0023 |       0.0023 |       0.0000 |       0.0000 |       0.0010 |       0.0010 |       0.0000 |       0.0000 |       0.0005 |       0.0005 |       0.0000 |       0.0000 |       0.0002 |       0.0002 |       0.0000 |       0.0000 |       0.0001 |       0.0019 |       0.0000 |       0.0301 |       0.0210 |       0.0458 |       0.0133 |       0.1037 |       0.0472 |       0.0574 |       0.0863 |       0.1152 |       0.0575 |       0.0600 |       0.0876 |       0.1119 |       0.0599 |       0.0615 |       0.0954 |       0.1196 |
dl2.inv_rate                                0.0000 |       0.0000 |       0.0000 |       0.0000 |       0.0000 |       0.0000 |       0.0000 |       0.0000 |       0.0000 |       0.0000 |       0.0000 |       0.0000 |       0.0000 |       0.0000 |       0.0000 |       0.0000 |       0.0000 |       0.0000 |       0.0000 |       0.0000 |       0.0000 |       0.0000 |       0.0000 |       0.0000 |       0.0000 |       0.0000 |       0.0000 |       0.0000 |       0.0000 |       0.0000 |       0.0000 |       0.0000 |       0.0000 |       0.0000 |       0.0000 |       0.0000 |       0.0000 |       0.0000 |       0.0000 |       0.0000 |       0.0000 |       0.0000 |       0.0000 |       0.0000 |
itlb.accesses                               860538 |       860538 |       860538 |       860538 |      1751750 |      1751750 |      1751750 |      1751750 |      3960466 |      3960466 |      3960466 |      3960466 |      8061901 |      8061901 |      8061901 |      8061901 |     17987001 |     17987001 |     17987001 |     17987001 |     36561488 |     36561488 |     36561488 |     36561488 |     77450048 |     77450048 |     77450048 |     77450048 |    223350463 |    223350463 |    223350463 |    223350463 |    473157374 |    473157374 |    473157374 |    473157374 |   1035722385 |   1035722385 |   1035722385 |   1035722385 |   2186794743 |   2186794743 |   2186794743 |   2186794743 |
itlb.hits                                   860524 |       860524 |       860524 |       860524 |      1751736 |      1751736 |      1751736 |      1751736 |      3960452 |      3960452 |      3960452 |      3960452 |      8061887 |      8061887 |      8061887 |      8061887 |     17986987 |     17986987 |     17986987 |     17986987 |     36561474 |     36561474 |     36561474 |     36561474 |     77450034 |     77450034 |     77450034 |     77450034 |    223350449 |    223350449 |    223350449 |    223350449 |    473157360 |    473157360 |    473157360 |    473157360 |   1035722371 |   1035722371 |   1035722371 |   1035722371 |   2186794729 |   2186794729 |   2186794729 |   2186794729 |
itlb.misses                                     14 |           14 |           14 |           14 |           14 |           14 |           14 |           14 |           14 |           14 |           14 |           14 |           14 |           14 |           14 |           14 |           14 |           14 |           14 |           14 |           14 |           14 |           14 |           14 |           14 |           14 |           14 |           14 |           14 |           14 |           14 |           14 |           14 |           14 |           14 |           14 |           14 |           14 |           14 |           14 |           14 |           14 |           14 |           14 |
itlb.replacements                                0 |            0 |            0 |            0 |            0 |            0 |            0 |            0 |            0 |            0 |            0 |            0 |            0 |            0 |            0 |            0 |            0 |            0 |            0 |            0 |            0 |            0 |            0 |            0 |            0 |            0 |            0 |            0 |            0 |            0 |            0 |            0 |            0 |            0 |            0 |            0 |            0 |            0 |            0 |            0 |            0 |            0 |            0 |            0 |
itlb.writebacks                                  0 |            0 |            0 |            0 |            0 |            0 |            0 |            0 |            0 |            0 |            0 |            0 |            0 |            0 |            0 |            0 |            0 |            0 |            0 |            0 |            0 |            0 |            0 |            0 |            0 |            0 |            0 |            0 |            0 |            0 |            0 |            0 |            0 |            0 |            0 |            0 |            0 |            0 |            0 |            0 |            0 |            0 |            0 |            0 |
itlb.invalidations                               0 |            0 |            0 |            0 |            0 |            0 |            0 |            0 |            0 |            0 |            0 |            0 |            0 |            0 |            0 |            0 |            0 |            0 |            0 |            0 |            0 |            0 |            0 |            0 |            0 |            0 |            0 |            0 |            0 |            0 |            0 |            0 |            0 |            0 |            0 |            0 |            0 |            0 |            0 |            0 |            0 |            0 |            0 |            0 |
itlb.miss_rate                              0.0000 |       0.0000 |       0.0000 |       0.0000 |       0.0000 |       0.0000 |       0.0000 |       0.0000 |       0.0000 |       0.0000 |       0.0000 |       0.0000 |       0.0000 |       0.0000 |       0.0000 |       0.0000 |       0.0000 |       0.0000 |       0.0000 |       0.0000 |       0.0000 |       0.0000 |       0.0000 |       0.0000 |       0.0000 |       0.0000 |       0.0000 |       0.0000 |       0.0000 |       0.0000 |       0.0000 |       0.0000 |       0.0000 |       0.0000 |       0.0000 |       0.0000 |       0.0000 |       0.0000 |       0.0000 |       0.0000 |       0.0000 |       0.0000 |       0.0000 |       0.0000 |
itlb.repl_rate                              0.0000 |       0.0000 |       0.0000 |       0.0000 |       0.0000 |       0.0000 |       0.0000 |       0.0000 |       0.0000 |       0.0000 |       0.0000 |       0.0000 |       0.0000 |       0.0000 |       0.0000 |       0.0000 |       0.0000 |       0.0000 |       0.0000 |       0.0000 |       0.0000 |       0.0000 |       0.0000 |       0.0000 |       0.0000 |       0.0000 |       0.0000 |       0.0000 |       0.0000 |       0.0000 |       0.0000 |       0.0000 |       0.0000 |       0.0000 |       0.0000 |       0.0000 |       0.0000 |       0.0000 |       0.0000 |       0.0000 |       0.0000 |       0.0000 |       0.0000 |       0.0000 |
itlb.wb_rate                                0.0000 |       0.0000 |       0.0000 |       0.0000 |       0.0000 |       0.0000 |       0.0000 |       0.0000 |       0.0000 |       0.0000 |       0.0000 |       0.0000 |       0.0000 |       0.0000 |       0.0000 |       0.0000 |       0.0000 |       0.0000 |       0.0000 |       0.0000 |       0.0000 |       0.0000 |       0.0000 |       0.0000 |       0.0000 |       0.0000 |       0.0000 |       0.0000 |       0.0000 |       0.0000 |       0.0000 |       0.0000 |       0.0000 |       0.0000 |       0.0000 |       0.0000 |       0.0000 |       0.0000 |       0.0000 |       0.0000 |       0.0000 |       0.0000 |       0.0000 |       0.0000 |
itlb.inv_rate                               0.0000 |       0.0000 |       0.0000 |       0.0000 |       0.0000 |       0.0000 |       0.0000 |       0.0000 |       0.0000 |       0.0000 |       0.0000 |       0.0000 |       0.0000 |       0.0000 |       0.0000 |       0.0000 |       0.0000 |       0.0000 |       0.0000 |       0.0000 |       0.0000 |       0.0000 |       0.0000 |       0.0000 |       0.0000 |       0.0000 |       0.0000 |       0.0000 |       0.0000 |       0.0000 |       0.0000 |       0.0000 |       0.0000 |       0.0000 |       0.0000 |       0.0000 |       0.0000 |       0.0000 |       0.0000 |       0.0000 |       0.0000 |       0.0000 |       0.0000 |       0.0000 |
dtlb.accesses                               245522 |       245522 |       245522 |       245522 |       504996 |       504996 |       504996 |       504996 |      1117389 |      1117389 |      1117389 |      1117389 |      2301728 |      2301728 |      2301728 |      2301728 |      5048005 |      5048005 |      5048005 |      5048005 |     10377146 |     10377146 |     10377146 |     10377146 |     21931411 |     21931411 |     21931411 |     21931411 |     63031227 |     63031227 |     63031227 |     63031227 |    134341988 |    134341988 |    134341988 |    134341988 |    291579306 |    291579306 |    291579306 |    291579306 |    621116073 |    621116073 |    621116073 |    621116073 |
dtlb.hits                                   245506 |       245506 |       245506 |       245506 |       504972 |       504972 |       504972 |       504972 |      1117349 |      1117349 |      1117349 |      1117349 |      2301656 |      2301656 |      2301656 |      2301656 |      5047804 |      5047804 |      5047804 |      5047804 |     10374721 |     10374721 |     10374721 |     10374721 |     21925998 |     21925998 |     21925998 |     21925998 |     63019500 |     63019500 |     63019500 |     63019500 |    134318451 |    134318451 |    134318451 |    134318451 |    291514404 |    291514404 |    291514404 |    291514404 |    620648614 |    620648614 |    620648614 |    620648614 |
dtlb.misses                                     16 |           16 |           16 |           16 |           24 |           24 |           24 |           24 |           40 |           40 |           40 |           40 |           72 |           72 |           72 |           72 |          201 |          201 |          201 |          201 |         2425 |         2425 |         2425 |         2425 |         5413 |         5413 |         5413 |         5413 |        11727 |        11727 |        11727 |        11727 |        23537 |        23537 |        23537 |        23537 |        64902 |        64902 |        64902 |        64902 |       467459 |       467459 |       467459 |       467459 |
dtlb.replacements                                0 |            0 |            0 |            0 |            0 |            0 |            0 |            0 |            0 |            0 |            0 |            0 |            0 |            0 |            0 |            0 |           73 |           73 |           73 |           73 |         2297 |         2297 |         2297 |         2297 |         5285 |         5285 |         5285 |         5285 |        11599 |        11599 |        11599 |        11599 |        23409 |        23409 |        23409 |        23409 |        64774 |        64774 |        64774 |        64774 |       467331 |       467331 |       467331 |       467331 |
dtlb.writebacks                                  0 |            0 |            0 |            0 |            0 |            0 |            0 |            0 |            0 |            0 |            0 |            0 |            0 |            0 |            0 |            0 |           50 |           50 |           50 |           50 |         1335 |         1335 |         1335 |         1335 |         3030 |         3030 |         3030 |         3030 |         6579 |         6579 |         6579 |         6579 |        13203 |        13203 |        13203 |        13203 |        26451 |        26451 |        26451 |        26451 |        52937 |        52937 |        52937 |        52937 |
dtlb.invalidations                               0 |            0 |            0 |            0 |            0 |            0 |            0 |            0 |            0 |            0 |            0 |            0 |            0 |            0 |            0 |            0 |            0 |            0 |            0 |            0 |            0 |            0 |            0 |            0 |            0 |            0 |            0 |            0 |            0 |            0 |            0 |            0 |            0 |            0 |            0 |            0 |            0 |            0 |            0 |            0 |            0 |            0 |            0 |            0 |
dtlb.miss_rate                              0.0001 |       0.0001 |       0.0001 |       0.0001 |       0.0000 |       0.0000 |       0.0000 |       0.0000 |       0.0000 |       0.0000 |       0.0000 |       0.0000 |       0.0000 |       0.0000 |       0.0000 |       0.0000 |       0.0000 |       0.0000 |       0.0000 |       0.0000 |       0.0002 |       0.0002 |       0.0002 |       0.0002 |       0.0002 |       0.0002 |       0.0002 |       0.0002 |       0.0002 |       0.0002 |       0.0002 |       0.0002 |       0.0002 |       0.0002 |       0.0002 |       0.0002 |       0.0002 |       0.0002 |       0.0002 |       0.0002 |       0.0008 |       0.0008 |       0.0008 |       0.0008 |
dtlb.repl_rate                              0.0000 |       0.0000 |       0.0000 |       0.0000 |       0.0000 |       0.0000 |       0.0000 |       0.0000 |       0.0000 |       0.0000 |       0.0000 |       0.0000 |       0.0000 |       0.0000 |       0.0000 |       0.0000 |       0.0000 |       0.0000 |       0.0000 |       0.0000 |       0.0002 |       0.0002 |       0.0002 |       0.0002 |       0.0002 |       0.0002 |       0.0002 |       0.0002 |       0.0002 |       0.0002 |       0.0002 |       0.0002 |       0.0002 |       0.0002 |       0.0002 |       0.0002 |       0.0002 |       0.0002 |       0.0002 |       0.0002 |       0.0008 |       0.0008 |       0.0008 |       0.0008 |
dtlb.wb_rate                                0.0000 |       0.0000 |       0.0000 |       0.0000 |       0.0000 |       0.0000 |       0.0000 |       0.0000 |       0.0000 |       0.0000 |       0.0000 |       0.0000 |       0.0000 |       0.0000 |       0.0000 |       0.0000 |       0.0000 |       0.0000 |       0.0000 |       0.0000 |       0.0001 |       0.0001 |       0.0001 |       0.0001 |       0.0001 |       0.0001 |       0.0001 |       0.0001 |       0.0001 |       0.0001 |       0.0001 |       0.0001 |       0.0001 |       0.0001 |       0.0001 |       0.0001 |       0.0001 |       0.0001 |       0.0001 |       0.0001 |       0.0001 |       0.0001 |       0.0001 |       0.0001 |
dtlb.inv_rate                               0.0000 |       0.0000 |       0.0000 |       0.0000 |       0.0000 |       0.0000 |       0.0000 |       0.0000 |       0.0000 |       0.0000 |       0.0000 |       0.0000 |       0.0000 |       0.0000 |       0.0000 |       0.0000 |       0.0000 |       0.0000 |       0.0000 |       0.0000 |       0.0000 |       0.0000 |       0.0000 |       0.0000 |       0.0000 |       0.0000 |       0.0000 |       0.0000 |       0.0000 |       0.0000 |       0.0000 |       0.0000 |       0.0000 |       0.0000 |       0.0000 |       0.0000 |       0.0000 |       0.0000 |       0.0000 |       0.0000 |       0.0000 |       0.0000 |       0.0000 |       0.0000 |
ld_text_base                            0x00400000 |   0x00400000 |   0x00400000 |   0x00400000 |   0x00400000 |   0x00400000 |   0x00400000 |   0x00400000 |   0x00400000 |   0x00400000 |   0x00400000 |   0x00400000 |   0x00400000 |   0x00400000 |   0x00400000 |   0x00400000 |   0x00400000 |   0x00400000 |   0x00400000 |   0x00400000 |   0x00400000 |   0x00400000 |   0x00400000 |   0x00400000 |   0x00400000 |   0x00400000 |   0x00400000 |   0x00400000 |   0x00400000 |   0x00400000 |   0x00400000 |   0x00400000 |   0x00400000 |   0x00400000 |   0x00400000 |   0x00400000 |   0x00400000 |   0x00400000 |   0x00400000 |   0x00400000 |   0x00400000 |   0x00400000 |   0x00400000 |   0x00400000 |
ld_text_size                                 94688 |        94688 |        94688 |        94688 |        94720 |        94720 |        94720 |        94720 |        94736 |        94736 |        94736 |        94736 |        94752 |        94752 |        94752 |        94752 |        94752 |        94752 |        94752 |        94752 |        94752 |        94752 |        94752 |        94752 |        94752 |        94752 |        94752 |        94752 |        94752 |        94752 |        94752 |        94752 |        94752 |        94752 |        94752 |        94752 |        94752 |        94752 |        94752 |        94752 |        94752 |        94752 |        94752 |        94752 |
ld_data_base                            0x10000000 |   0x10000000 |   0x10000000 |   0x10000000 |   0x10000000 |   0x10000000 |   0x10000000 |   0x10000000 |   0x10000000 |   0x10000000 |   0x10000000 |   0x10000000 |   0x10000000 |   0x10000000 |   0x10000000 |   0x10000000 |   0x10000000 |   0x10000000 |   0x10000000 |   0x10000000 |   0x10000000 |   0x10000000 |   0x10000000 |   0x10000000 |   0x10000000 |   0x10000000 |   0x10000000 |   0x10000000 |   0x10000000 |   0x10000000 |   0x10000000 |   0x10000000 |   0x10000000 |   0x10000000 |   0x10000000 |   0x10000000 |   0x10000000 |   0x10000000 |   0x10000000 |   0x10000000 |   0x10000000 |   0x10000000 |   0x10000000 |   0x10000000 |
ld_data_size                                  8192 |         8192 |         8192 |         8192 |         8192 |         8192 |         8192 |         8192 |         8192 |         8192 |         8192 |         8192 |         8192 |         8192 |         8192 |         8192 |         8192 |         8192 |         8192 |         8192 |         8192 |         8192 |         8192 |         8192 |         8192 |         8192 |         8192 |         8192 |         8192 |         8192 |         8192 |         8192 |         8192 |         8192 |         8192 |         8192 |         8192 |         8192 |         8192 |         8192 |         8192 |         8192 |         8192 |         8192 |
ld_stack_base                           0x7fffc000 |   0x7fffc000 |   0x7fffc000 |   0x7fffc000 |   0x7fffc000 |   0x7fffc000 |   0x7fffc000 |   0x7fffc000 |   0x7fffc000 |   0x7fffc000 |   0x7fffc000 |   0x7fffc000 |   0x7fffc000 |   0x7fffc000 |   0x7fffc000 |   0x7fffc000 |   0x7fffc000 |   0x7fffc000 |   0x7fffc000 |   0x7fffc000 |   0x7fffc000 |   0x7fffc000 |   0x7fffc000 |   0x7fffc000 |   0x7fffc000 |   0x7fffc000 |   0x7fffc000 |   0x7fffc000 |   0x7fffc000 |   0x7fffc000 |   0x7fffc000 |   0x7fffc000 |   0x7fffc000 |   0x7fffc000 |   0x7fffc000 |   0x7fffc000 |   0x7fffc000 |   0x7fffc000 |   0x7fffc000 |   0x7fffc000 |   0x7fffc000 |   0x7fffc000 |   0x7fffc000 |   0x7fffc000 |
ld_stack_size                                16384 |        16384 |        16384 |        16384 |        16384 |        16384 |        16384 |        16384 |        16384 |        16384 |        16384 |        16384 |        16384 |        16384 |        16384 |        16384 |        16384 |        16384 |        16384 |        16384 |        16384 |        16384 |        16384 |        16384 |        16384 |        16384 |        16384 |        16384 |        16384 |        16384 |        16384 |        16384 |        16384 |        16384 |        16384 |        16384 |        16384 |        16384 |        16384 |        16384 |        16384 |        16384 |        16384 |        16384 |
ld_prog_entry                           0x00400140 |   0x00400140 |   0x00400140 |   0x00400140 |   0x00400140 |   0x00400140 |   0x00400140 |   0x00400140 |   0x00400140 |   0x00400140 |   0x00400140 |   0x00400140 |   0x00400140 |   0x00400140 |   0x00400140 |   0x00400140 |   0x00400140 |   0x00400140 |   0x00400140 |   0x00400140 |   0x00400140 |   0x00400140 |   0x00400140 |   0x00400140 |   0x00400140 |   0x00400140 |   0x00400140 |   0x00400140 |   0x00400140 |   0x00400140 |   0x00400140 |   0x00400140 |   0x00400140 |   0x00400140 |   0x00400140 |   0x00400140 |   0x00400140 |   0x00400140 |   0x00400140 |   0x00400140 |   0x00400140 |   0x00400140 |   0x00400140 |   0x00400140 |
ld_environ_base                         0x7fff8000 |   0x7fff8000 |   0x7fff8000 |   0x7fff8000 |   0x7fff8000 |   0x7fff8000 |   0x7fff8000 |   0x7fff8000 |   0x7fff8000 |   0x7fff8000 |   0x7fff8000 |   0x7fff8000 |   0x7fff8000 |   0x7fff8000 |   0x7fff8000 |   0x7fff8000 |   0x7fff8000 |   0x7fff8000 |   0x7fff8000 |   0x7fff8000 |   0x7fff8000 |   0x7fff8000 |   0x7fff8000 |   0x7fff8000 |   0x7fff8000 |   0x7fff8000 |   0x7fff8000 |   0x7fff8000 |   0x7fff8000 |   0x7fff8000 |   0x7fff8000 |   0x7fff8000 |   0x7fff8000 |   0x7fff8000 |   0x7fff8000 |   0x7fff8000 |   0x7fff8000 |   0x7fff8000 |   0x7fff8000 |   0x7fff8000 |   0x7fff8000 |   0x7fff8000 |   0x7fff8000 |   0x7fff8000 |
ld_target_big_endian                             0 |            0 |            0 |            0 |            0 |            0 |            0 |            0 |            0 |            0 |            0 |            0 |            0 |            0 |            0 |            0 |            0 |            0 |            0 |            0 |            0 |            0 |            0 |            0 |            0 |            0 |            0 |            0 |            0 |            0 |            0 |            0 |            0 |            0 |            0 |            0 |            0 |            0 |            0 |            0 |            0 |            0 |            0 |            0 |
mem.page_count                                  40 |           40 |           40 |           40 |           48 |           48 |           48 |           48 |           64 |           64 |           64 |           64 |           96 |           96 |           96 |           96 |          160 |          160 |          160 |          160 |          288 |          288 |          288 |          288 |          544 |          544 |          544 |          544 |         1062 |         1062 |         1062 |         1062 |         2086 |         2086 |         2086 |         2086 |         4140 |         4140 |         4140 |         4140 |         8248 |         8248 |         8248 |         8248 |
mem.page_mem                                  160k |         160k |         160k |         160k |         192k |         192k |         192k |         192k |         256k |         256k |         256k |         256k |         384k |         384k |         384k |         384k |         640k |         640k |         640k |         640k |        1152k |        1152k |        1152k |        1152k |        2176k |        2176k |        2176k |        2176k |        4248k |        4248k |        4248k |        4248k |        8344k |        8344k |        8344k |        8344k |       16560k |       16560k |       16560k |       16560k |       32992k |       32992k |       32992k |       32992k |
mem.ptab_misses                                 40 |           40 |           40 |           40 |           48 |           48 |           48 |           48 |           64 |           64 |           64 |           64 |           96 |           96 |           96 |           96 |          160 |          160 |          160 |          160 |          288 |          288 |          288 |          288 |          544 |          544 |          544 |          544 |         1067 |         1067 |         1067 |         1067 |        79705 |        79705 |        79705 |        79705 |        84635 |        84635 |        84635 |        84635 |        85869 |        85869 |        85869 |        85869 |
mem.ptab_accesses                          4515982 |      4515982 |      4515982 |      4515982 |      8599970 |      8599970 |      8599970 |      8599970 |     18659716 |     18659716 |     18659716 |     18659716 |     37434230 |     37434230 |     37434230 |     37434230 |     82627184 |     82627184 |     82627184 |     82627184 |    167583414 |    167583414 |    167583414 |    167583414 |    354246184 |    354246184 |    354246184 |    354246184 |   1020047476 |   1020047476 |   1020047476 |   1020047476 |   2161896642 |   2161896642 |   2161896642 |   2161896642 |   4726631322 |   4726631322 |   4726631322 |   4726631322 |   9989994288 |   9989994288 |   9989994288 |   9989994288 |
mem.ptab_miss_rate                          0.0000 |       0.0000 |       0.0000 |       0.0000 |       0.0000 |       0.0000 |       0.0000 |       0.0000 |       0.0000 |       0.0000 |       0.0000 |       0.0000 |       0.0000 |       0.0000 |       0.0000 |       0.0000 |       0.0000 |       0.0000 |       0.0000 |       0.0000 |       0.0000 |       0.0000 |       0.0000 |       0.0000 |       0.0000 |       0.0000 |       0.0000 |       0.0000 |       0.0000 |       0.0000 |       0.0000 |       0.0000 |       0.0000 |       0.0000 |       0.0000 |       0.0000 |       0.0000 |       0.0000 |       0.0000 |       0.0000 |       0.0000 |       0.0000 |       0.0000 |       0.0000 |
-------------------------------------------------------------------------------------------------
sim-bpred                                     4096 |         4096 |         4096 |         4096 |         4096 |         4096 |         4096 |         8192 |         8192 |         8192 |         8192 |         8192 |         8192 |         8192 |        16384 |        16384 |        16384 |        16384 |        16384 |        16384 |        16384 |        32768 |        32768 |        32768 |        32768 |        32768 |        32768 |        32768 |        65536 |        65536 |        65536 |        65536 |        65536 |        65536 |        65536 |       131072 |       131072 |       131072 |       131072 |       131072 |       131072 |       131072 |       262144 |       262144 |       262144 |       262144 |       262144 |       262144 |       262144 |       524288 |       524288 |       524288 |       524288 |       524288 |       524288 |       524288 |      1048576 |      1048576 |      1048576 |      1048576 |      1048576 |      1048576 |      1048576 |      2097152 |      2097152 |      2097152 |      2097152 |      2097152 |      2097152 |      2097152 |      4194304 |      4194304 |      4194304 |      4194304 |      4194304 |      4194304 |      4194304 |
-bpred bimod -bpred:bimod 512
-bpred bimod -bpred:bimod 1024
-bpred bimod -bpred:bimod 2048
-bpred 2lev -bpred:2lev 1 512 10 1
-bpred 2lev -bpred:2lev 1 1024 10 1
-bpred 2lev -bpred:2lev 1 2048 10 1
-bpred 2lev -bpred:2lev 1 4096 10 1
-------------------------------------------------------------------------------------------------
sim_num_insn                                860538 |       860538 |       860538 |       860538 |       860538 |       860538 |       860538 |      1751750 |      1751750 |      1751750 |      1751750 |      1751750 |      1751750 |      1751750 |      3960466 |      3960466 |      3960466 |      3960466 |      3960466 |      3960466 |      3960466 |      8061901 |      8061901 |      8061901 |      8061901 |      8061901 |      8061901 |      8061901 |     17987001 |     17987001 |     17987001 |     17987001 |     17987001 |     17987001 |     17987001 |     36561488 |     36561488 |     36561488 |     36561488 |     36561488 |     36561488 |     36561488 |     77450048 |     77450048 |     77450048 |     77450048 |     77450048 |     77450048 |     77450048 |    223350463 |    223350463 |    223350463 |    223350463 |    223350463 |    223350463 |    223350463 |    473157374 |    473157374 |    473157374 |    473157374 |    473157374 |    473157374 |    473157374 |   1035722385 |   1035722385 |   1035722385 |   1035722385 |   1035722385 |   1035722385 |   1035722385 |   2186794743 |   2186794743 |   2186794743 |   2186794743 |   2186794743 |   2186794743 |   2186794743 |
sim_num_refs                                229064 |       229064 |       229064 |       229064 |       229064 |       229064 |       229064 |       472154 |       472154 |       472154 |       472154 |       472154 |       472154 |       472154 |      1051779 |      1051779 |      1051779 |      1051779 |      1051779 |      1051779 |      1051779 |      2170582 |      2170582 |      2170582 |      2170582 |      2170582 |      2170582 |      2170582 |      4785787 |      4785787 |      4785787 |      4785787 |      4785787 |      4785787 |      4785787 |      9852784 |      9852784 |      9852784 |      9852784 |      9852784 |      9852784 |      9852784 |     20882761 |     20882761 |     20882761 |     20882761 |     20882761 |     20882761 |     20882761 |     60934001 |     60934001 |     60934001 |     60934001 |     60934001 |     60934001 |     60934001 |    130147610 |    130147610 |    130147610 |    130147610 |    130147610 |    130147610 |    130147610 |    283190624 |    283190624 |    283190624 |    283190624 |    283190624 |    283190624 |    283190624 |    604338783 |    604338783 |    604338783 |    604338783 |    604338783 |    604338783 |    604338783 |
sim_elapsed_time                                 1 |            1 |            1 |            1 |            1 |            1 |            1 |            1 |            1 |            1 |            1 |            1 |            1 |            1 |            1 |            1 |            1 |            1 |            1 |            1 |            1 |            1 |            1 |            1 |            1 |            1 |            1 |            1 |            2 |            2 |            2 |            2 |            2 |            2 |            2 |            4 |            4 |            5 |            4 |            4 |            4 |            4 |            8 |            9 |            9 |            9 |            9 |            9 |            8 |           26 |           26 |           25 |           26 |           26 |           26 |           26 |           55 |           55 |           55 |           55 |           56 |           56 |           56 |          120 |          120 |          120 |          122 |          122 |          122 |          122 |          253 |          255 |          253 |          257 |          259 |          258 |          259 |
sim_inst_rate                          860538.0000 |  860538.0000 |  860538.0000 |  860538.0000 |  860538.0000 |  860538.0000 |  860538.0000 | 1751750.0000 | 1751750.0000 | 1751750.0000 | 1751750.0000 | 1751750.0000 | 1751750.0000 | 1751750.0000 | 3960466.0000 | 3960466.0000 | 3960466.0000 | 3960466.0000 | 3960466.0000 | 3960466.0000 | 3960466.0000 | 8061901.0000 | 8061901.0000 | 8061901.0000 | 8061901.0000 | 8061901.0000 | 8061901.0000 | 8061901.0000 | 8993500.5000 | 8993500.5000 | 8993500.5000 | 8993500.5000 | 8993500.5000 | 8993500.5000 | 8993500.5000 | 9140372.0000 | 9140372.0000 | 7312297.6000 | 9140372.0000 | 9140372.0000 | 9140372.0000 | 9140372.0000 | 9681256.0000 | 8605560.8889 | 8605560.8889 | 8605560.8889 | 8605560.8889 | 8605560.8889 | 9681256.0000 | 8590402.4231 | 8590402.4231 | 8934018.5200 | 8590402.4231 | 8590402.4231 | 8590402.4231 | 8590402.4231 | 8602861.3455 | 8602861.3455 | 8602861.3455 | 8602861.3455 | 8449238.8214 | 8449238.8214 | 8449238.8214 | 8631019.8750 | 8631019.8750 | 8631019.8750 | 8489527.7459 | 8489527.7459 | 8489527.7459 | 8489527.7459 | 8643457.4822 | 8575665.6588 | 8643457.4822 | 8508928.9611 | 8443222.9459 | 8475948.6163 | 8443222.9459 |
sim_num_branches                            112988 |       112988 |       112988 |       112988 |       112988 |       112988 |       112988 |       235886 |       235886 |       235886 |       235886 |       235886 |       235886 |       235886 |       514996 |       514996 |       514996 |       514996 |       514996 |       514996 |       514996 |      1071296 |      1071296 |      1071296 |      1071296 |      1071296 |      1071296 |      1071296 |      2320531 |      2320531 |      2320531 |      2320531 |      2320531 |      2320531 |      2320531 |      4810745 |      4810745 |      4810745 |      4810745 |      4810745 |      4810745 |      4810745 |     10147049 |     10147049 |     10147049 |     10147049 |     10147049 |     10147049 |     10147049 |     30672047 |     30672047 |     30672047 |     30672047 |     30672047 |     30672047 |     30672047 |     67172359 |     67172359 |     67172359 |     67172359 |     67172359 |     67172359 |     67172359 |    145966170 |    145966170 |    145966170 |    145966170 |    145966170 |    145966170 |    145966170 |    314573059 |    314573059 |    314573059 |    314573059 |    314573059 |    314573059 |    314573059 |
sim_IPB                                     7.6162 |       7.6162 |       7.6162 |       7.6162 |       7.6162 |       7.6162 |       7.6162 |       7.4263 |       7.4263 |       7.4263 |       7.4263 |       7.4263 |       7.4263 |       7.4263 |       7.6903 |       7.6903 |       7.6903 |       7.6903 |       7.6903 |       7.6903 |       7.6903 |       7.5254 |       7.5254 |       7.5254 |       7.5254 |       7.5254 |       7.5254 |       7.5254 |       7.7512 |       7.7512 |       7.7512 |       7.7512 |       7.7512 |       7.7512 |       7.7512 |       7.6000 |       7.6000 |       7.6000 |       7.6000 |       7.6000 |       7.6000 |       7.6000 |       7.6328 |       7.6328 |       7.6328 |       7.6328 |       7.6328 |       7.6328 |       7.6328 |       7.2819 |       7.2819 |       7.2819 |       7.2819 |       7.2819 |       7.2819 |       7.2819 |       7.0439 |       7.0439 |       7.0439 |       7.0439 |       7.0439 |       7.0439 |       7.0439 |       7.0956 |       7.0956 |       7.0956 |       7.0956 |       7.0956 |       7.0956 |       7.0956 |       6.9516 |       6.9516 |       6.9516 |       6.9516 |       6.9516 |       6.9516 |       6.9516 |
bpred_bimod.lookups                         112988 |       112988 |       112988 |xxxxxxxxxxxxx |xxxxxxxxxxxxx |xxxxxxxxxxxxx |xxxxxxxxxxxxx |       235886 |       235886 |       235886 |xxxxxxxxxxxxx |xxxxxxxxxxxxx |xxxxxxxxxxxxx |xxxxxxxxxxxxx |       514996 |       514996 |       514996 |xxxxxxxxxxxxx |xxxxxxxxxxxxx |xxxxxxxxxxxxx |xxxxxxxxxxxxx |      1071296 |      1071296 |      1071296 |xxxxxxxxxxxxx |xxxxxxxxxxxxx |xxxxxxxxxxxxx |xxxxxxxxxxxxx |      2320531 |      2320531 |      2320531 |xxxxxxxxxxxxx |xxxxxxxxxxxxx |xxxxxxxxxxxxx |xxxxxxxxxxxxx |      4810745 |      4810745 |      4810745 |xxxxxxxxxxxxx |xxxxxxxxxxxxx |xxxxxxxxxxxxx |xxxxxxxxxxxxx |     10147049 |     10147049 |     10147049 |xxxxxxxxxxxxx |xxxxxxxxxxxxx |xxxxxxxxxxxxx |xxxxxxxxxxxxx |     30672047 |     30672047 |     30672047 |xxxxxxxxxxxxx |xxxxxxxxxxxxx |xxxxxxxxxxxxx |xxxxxxxxxxxxx |     67172359 |     67172359 |     67172359 |xxxxxxxxxxxxx |xxxxxxxxxxxxx |xxxxxxxxxxxxx |xxxxxxxxxxxxx |    145966170 |    145966170 |    145966170 |xxxxxxxxxxxxx |xxxxxxxxxxxxx |xxxxxxxxxxxxx |xxxxxxxxxxxxx |    314573059 |    314573059 |    314573059 |
bpred_bimod.updates                         112988 |       112988 |       112988 |xxxxxxxxxxxxx |xxxxxxxxxxxxx |xxxxxxxxxxxxx |xxxxxxxxxxxxx |       235886 |       235886 |       235886 |xxxxxxxxxxxxx |xxxxxxxxxxxxx |xxxxxxxxxxxxx |xxxxxxxxxxxxx |       514996 |       514996 |       514996 |xxxxxxxxxxxxx |xxxxxxxxxxxxx |xxxxxxxxxxxxx |xxxxxxxxxxxxx |      1071296 |      1071296 |      1071296 |xxxxxxxxxxxxx |xxxxxxxxxxxxx |xxxxxxxxxxxxx |xxxxxxxxxxxxx |      2320531 |      2320531 |      2320531 |xxxxxxxxxxxxx |xxxxxxxxxxxxx |xxxxxxxxxxxxx |xxxxxxxxxxxxx |      4810745 |      4810745 |      4810745 |xxxxxxxxxxxxx |xxxxxxxxxxxxx |xxxxxxxxxxxxx |xxxxxxxxxxxxx |     10147049 |     10147049 |     10147049 |xxxxxxxxxxxxx |xxxxxxxxxxxxx |xxxxxxxxxxxxx |xxxxxxxxxxxxx |     30672047 |     30672047 |     30672047 |xxxxxxxxxxxxx |xxxxxxxxxxxxx |xxxxxxxxxxxxx |xxxxxxxxxxxxx |     67172359 |     67172359 |     67172359 |xxxxxxxxxxxxx |xxxxxxxxxxxxx |xxxxxxxxxxxxx |xxxxxxxxxxxxx |    145966170 |    145966170 |    145966170 |xxxxxxxxxxxxx |xxxxxxxxxxxxx |xxxxxxxxxxxxx |xxxxxxxxxxxxx |    314573059 |    314573059 |    314573059 |
bpred_bimod.addr_hits                        87268 |        87272 |        87274 |xxxxxxxxxxxxx |xxxxxxxxxxxxx |xxxxxxxxxxxxx |xxxxxxxxxxxxx |       184112 |       184118 |       184124 |xxxxxxxxxxxxx |xxxxxxxxxxxxx |xxxxxxxxxxxxx |xxxxxxxxxxxxx |       396711 |       396735 |       396738 |xxxxxxxxxxxxx |xxxxxxxxxxxxx |xxxxxxxxxxxxx |xxxxxxxxxxxxx |       832104 |       832114 |       832117 |xxxxxxxxxxxxx |xxxxxxxxxxxxx |xxxxxxxxxxxxx |xxxxxxxxxxxxx |      1783204 |      1783269 |      1783275 |xxxxxxxxxxxxx |xxxxxxxxxxxxx |xxxxxxxxxxxxx |xxxxxxxxxxxxx |      3725256 |      3725297 |      3725300 |xxxxxxxxxxxxx |xxxxxxxxxxxxx |xxxxxxxxxxxxx |xxxxxxxxxxxxx |      7844265 |      7844351 |      7844415 |xxxxxxxxxxxxx |xxxxxxxxxxxxx |xxxxxxxxxxxxx |xxxxxxxxxxxxx |     24443138 |     24443620 |     24443626 |xxxxxxxxxxxxx |xxxxxxxxxxxxx |xxxxxxxxxxxxx |xxxxxxxxxxxxx |     54410132 |     54410473 |     54410470 |xxxxxxxxxxxxx |xxxxxxxxxxxxx |xxxxxxxxxxxxx |xxxxxxxxxxxxx |    116885119 |    116887162 |    116887177 |xxxxxxxxxxxxx |xxxxxxxxxxxxx |xxxxxxxxxxxxx |xxxxxxxxxxxxx |    252117012 |    252118293 |    252118302 |
bpred_bimod.dir_hits                         87417 |        87418 |        87420 |xxxxxxxxxxxxx |xxxxxxxxxxxxx |xxxxxxxxxxxxx |xxxxxxxxxxxxx |       184266 |       184267 |       184273 |xxxxxxxxxxxxx |xxxxxxxxxxxxx |xxxxxxxxxxxxx |xxxxxxxxxxxxx |       396858 |       396878 |       396881 |xxxxxxxxxxxxx |xxxxxxxxxxxxx |xxxxxxxxxxxxx |xxxxxxxxxxxxx |       832257 |       832263 |       832267 |xxxxxxxxxxxxx |xxxxxxxxxxxxx |xxxxxxxxxxxxx |xxxxxxxxxxxxx |      1783351 |      1783411 |      1783419 |xxxxxxxxxxxxx |xxxxxxxxxxxxx |xxxxxxxxxxxxx |xxxxxxxxxxxxx |      3725410 |      3725447 |      3725451 |xxxxxxxxxxxxx |xxxxxxxxxxxxx |xxxxxxxxxxxxx |xxxxxxxxxxxxx |      7844420 |      7844503 |      7844569 |xxxxxxxxxxxxx |xxxxxxxxxxxxx |xxxxxxxxxxxxx |xxxxxxxxxxxxx |     24443358 |     24443836 |     24443843 |xxxxxxxxxxxxx |xxxxxxxxxxxxx |xxxxxxxxxxxxx |xxxxxxxxxxxxx |     54410360 |     54410700 |     54410697 |xxxxxxxxxxxxx |xxxxxxxxxxxxx |xxxxxxxxxxxxx |xxxxxxxxxxxxx |    116885344 |    116887384 |    116887400 |xxxxxxxxxxxxx |xxxxxxxxxxxxx |xxxxxxxxxxxxx |xxxxxxxxxxxxx |    252117240 |    252118521 |    252118530 |
bpred_bimod.misses                           25571 |        25570 |        25568 |xxxxxxxxxxxxx |xxxxxxxxxxxxx |xxxxxxxxxxxxx |xxxxxxxxxxxxx |        51620 |        51619 |        51613 |xxxxxxxxxxxxx |xxxxxxxxxxxxx |xxxxxxxxxxxxx |xxxxxxxxxxxxx |       118138 |       118118 |       118115 |xxxxxxxxxxxxx |xxxxxxxxxxxxx |xxxxxxxxxxxxx |xxxxxxxxxxxxx |       239039 |       239033 |       239029 |xxxxxxxxxxxxx |xxxxxxxxxxxxx |xxxxxxxxxxxxx |xxxxxxxxxxxxx |       537180 |       537120 |       537112 |xxxxxxxxxxxxx |xxxxxxxxxxxxx |xxxxxxxxxxxxx |xxxxxxxxxxxxx |      1085335 |      1085298 |      1085294 |xxxxxxxxxxxxx |xxxxxxxxxxxxx |xxxxxxxxxxxxx |xxxxxxxxxxxxx |      2302629 |      2302546 |      2302480 |xxxxxxxxxxxxx |xxxxxxxxxxxxx |xxxxxxxxxxxxx |xxxxxxxxxxxxx |      6228689 |      6228211 |      6228204 |xxxxxxxxxxxxx |xxxxxxxxxxxxx |xxxxxxxxxxxxx |xxxxxxxxxxxxx |     12761999 |     12761659 |     12761662 |xxxxxxxxxxxxx |xxxxxxxxxxxxx |xxxxxxxxxxxxx |xxxxxxxxxxxxx |     29080826 |     29078786 |     29078770 |xxxxxxxxxxxxx |xxxxxxxxxxxxx |xxxxxxxxxxxxx |xxxxxxxxxxxxx |     62455819 |     62454538 |     62454529 |
bpred_bimod.jr_hits                             79 |           79 |           79 |xxxxxxxxxxxxx |xxxxxxxxxxxxx |xxxxxxxxxxxxx |xxxxxxxxxxxxx |           87 |           87 |           87 |xxxxxxxxxxxxx |xxxxxxxxxxxxx |xxxxxxxxxxxxx |xxxxxxxxxxxxx |          103 |          103 |          103 |xxxxxxxxxxxxx |xxxxxxxxxxxxx |xxxxxxxxxxxxx |xxxxxxxxxxxxx |          135 |          135 |          135 |xxxxxxxxxxxxx |xxxxxxxxxxxxx |xxxxxxxxxxxxx |xxxxxxxxxxxxx |          199 |          199 |          199 |xxxxxxxxxxxxx |xxxxxxxxxxxxx |xxxxxxxxxxxxx |xxxxxxxxxxxxx |          327 |          327 |          327 |xxxxxxxxxxxxx |xxxxxxxxxxxxx |xxxxxxxxxxxxx |xxxxxxxxxxxxx |          583 |          583 |          583 |xxxxxxxxxxxxx |xxxxxxxxxxxxx |xxxxxxxxxxxxx |xxxxxxxxxxxxx |       525413 |       525413 |       525413 |xxxxxxxxxxxxx |xxxxxxxxxxxxx |xxxxxxxxxxxxx |xxxxxxxxxxxxx |      1050727 |      1050727 |      1050727 |xxxxxxxxxxxxx |xxxxxxxxxxxxx |xxxxxxxxxxxxx |xxxxxxxxxxxxx |      2101355 |      2101355 |      2101355 |xxxxxxxxxxxxx |xxxxxxxxxxxxx |xxxxxxxxxxxxx |xxxxxxxxxxxxx |      4202611 |      4202611 |      4202611 |
bpred_bimod.jr_seen                             80 |           80 |           80 |xxxxxxxxxxxxx |xxxxxxxxxxxxx |xxxxxxxxxxxxx |xxxxxxxxxxxxx |           88 |           88 |           88 |xxxxxxxxxxxxx |xxxxxxxxxxxxx |xxxxxxxxxxxxx |xxxxxxxxxxxxx |          104 |          104 |          104 |xxxxxxxxxxxxx |xxxxxxxxxxxxx |xxxxxxxxxxxxx |xxxxxxxxxxxxx |          136 |          136 |          136 |xxxxxxxxxxxxx |xxxxxxxxxxxxx |xxxxxxxxxxxxx |xxxxxxxxxxxxx |          200 |          200 |          200 |xxxxxxxxxxxxx |xxxxxxxxxxxxx |xxxxxxxxxxxxx |xxxxxxxxxxxxx |          328 |          328 |          328 |xxxxxxxxxxxxx |xxxxxxxxxxxxx |xxxxxxxxxxxxx |xxxxxxxxxxxxx |          584 |          584 |          584 |xxxxxxxxxxxxx |xxxxxxxxxxxxx |xxxxxxxxxxxxx |xxxxxxxxxxxxx |       525414 |       525414 |       525414 |xxxxxxxxxxxxx |xxxxxxxxxxxxx |xxxxxxxxxxxxx |xxxxxxxxxxxxx |      1050728 |      1050728 |      1050728 |xxxxxxxxxxxxx |xxxxxxxxxxxxx |xxxxxxxxxxxxx |xxxxxxxxxxxxx |      2101356 |      2101356 |      2101356 |xxxxxxxxxxxxx |xxxxxxxxxxxxx |xxxxxxxxxxxxx |xxxxxxxxxxxxx |      4202612 |      4202612 |      4202612 |
bpred_bimod.jr_non_ras_hits.PP                   0 |            0 |            0 |xxxxxxxxxxxxx |xxxxxxxxxxxxx |xxxxxxxxxxxxx |xxxxxxxxxxxxx |            0 |            0 |            0 |xxxxxxxxxxxxx |xxxxxxxxxxxxx |xxxxxxxxxxxxx |xxxxxxxxxxxxx |            0 |            0 |            0 |xxxxxxxxxxxxx |xxxxxxxxxxxxx |xxxxxxxxxxxxx |xxxxxxxxxxxxx |            0 |            0 |            0 |xxxxxxxxxxxxx |xxxxxxxxxxxxx |xxxxxxxxxxxxx |xxxxxxxxxxxxx |            0 |            0 |            0 |xxxxxxxxxxxxx |xxxxxxxxxxxxx |xxxxxxxxxxxxx |xxxxxxxxxxxxx |            0 |            0 |            0 |xxxxxxxxxxxxx |xxxxxxxxxxxxx |xxxxxxxxxxxxx |xxxxxxxxxxxxx |            0 |            0 |            0 |xxxxxxxxxxxxx |xxxxxxxxxxxxx |xxxxxxxxxxxxx |xxxxxxxxxxxxx |            0 |            0 |            0 |xxxxxxxxxxxxx |xxxxxxxxxxxxx |xxxxxxxxxxxxx |xxxxxxxxxxxxx |            0 |            0 |            0 |xxxxxxxxxxxxx |xxxxxxxxxxxxx |xxxxxxxxxxxxx |xxxxxxxxxxxxx |            0 |            0 |            0 |xxxxxxxxxxxxx |xxxxxxxxxxxxx |xxxxxxxxxxxxx |xxxxxxxxxxxxx |            0 |            0 |            0 |
bpred_bimod.jr_non_ras_seen.PP                   0 |            0 |            0 |xxxxxxxxxxxxx |xxxxxxxxxxxxx |xxxxxxxxxxxxx |xxxxxxxxxxxxx |            0 |            0 |            0 |xxxxxxxxxxxxx |xxxxxxxxxxxxx |xxxxxxxxxxxxx |xxxxxxxxxxxxx |            0 |            0 |            0 |xxxxxxxxxxxxx |xxxxxxxxxxxxx |xxxxxxxxxxxxx |xxxxxxxxxxxxx |            0 |            0 |            0 |xxxxxxxxxxxxx |xxxxxxxxxxxxx |xxxxxxxxxxxxx |xxxxxxxxxxxxx |            0 |            0 |            0 |xxxxxxxxxxxxx |xxxxxxxxxxxxx |xxxxxxxxxxxxx |xxxxxxxxxxxxx |            0 |            0 |            0 |xxxxxxxxxxxxx |xxxxxxxxxxxxx |xxxxxxxxxxxxx |xxxxxxxxxxxxx |            0 |            0 |            0 |xxxxxxxxxxxxx |xxxxxxxxxxxxx |xxxxxxxxxxxxx |xxxxxxxxxxxxx |            1 |            1 |            1 |xxxxxxxxxxxxx |xxxxxxxxxxxxx |xxxxxxxxxxxxx |xxxxxxxxxxxxx |            1 |            1 |            1 |xxxxxxxxxxxxx |xxxxxxxxxxxxx |xxxxxxxxxxxxx |xxxxxxxxxxxxx |            1 |            1 |            1 |xxxxxxxxxxxxx |xxxxxxxxxxxxx |xxxxxxxxxxxxx |xxxxxxxxxxxxx |            1 |            1 |            1 |
bpred_bimod.bpred_addr_rate                 0.7724 |       0.7724 |       0.7724 |xxxxxxxxxxxxx |xxxxxxxxxxxxx |xxxxxxxxxxxxx |xxxxxxxxxxxxx |       0.7805 |       0.7805 |       0.7806 |xxxxxxxxxxxxx |xxxxxxxxxxxxx |xxxxxxxxxxxxx |xxxxxxxxxxxxx |       0.7703 |       0.7704 |       0.7704 |xxxxxxxxxxxxx |xxxxxxxxxxxxx |xxxxxxxxxxxxx |xxxxxxxxxxxxx |       0.7767 |       0.7767 |       0.7767 |xxxxxxxxxxxxx |xxxxxxxxxxxxx |xxxxxxxxxxxxx |xxxxxxxxxxxxx |       0.7684 |       0.7685 |       0.7685 |xxxxxxxxxxxxx |xxxxxxxxxxxxx |xxxxxxxxxxxxx |xxxxxxxxxxxxx |       0.7744 |       0.7744 |       0.7744 |xxxxxxxxxxxxx |xxxxxxxxxxxxx |xxxxxxxxxxxxx |xxxxxxxxxxxxx |       0.7731 |       0.7731 |       0.7731 |xxxxxxxxxxxxx |xxxxxxxxxxxxx |xxxxxxxxxxxxx |xxxxxxxxxxxxx |       0.7969 |       0.7969 |       0.7969 |xxxxxxxxxxxxx |xxxxxxxxxxxxx |xxxxxxxxxxxxx |xxxxxxxxxxxxx |       0.8100 |       0.8100 |       0.8100 |xxxxxxxxxxxxx |xxxxxxxxxxxxx |xxxxxxxxxxxxx |xxxxxxxxxxxxx |       0.8008 |       0.8008 |       0.8008 |xxxxxxxxxxxxx |xxxxxxxxxxxxx |xxxxxxxxxxxxx |xxxxxxxxxxxxx |       0.8015 |       0.8015 |       0.8015 |
bpred_bimod.bpred_dir_rate                  0.7737 |       0.7737 |       0.7737 |xxxxxxxxxxxxx |xxxxxxxxxxxxx |xxxxxxxxxxxxx |xxxxxxxxxxxxx |       0.7812 |       0.7812 |       0.7812 |xxxxxxxxxxxxx |xxxxxxxxxxxxx |xxxxxxxxxxxxx |xxxxxxxxxxxxx |       0.7706 |       0.7706 |       0.7706 |xxxxxxxxxxxxx |xxxxxxxxxxxxx |xxxxxxxxxxxxx |xxxxxxxxxxxxx |       0.7769 |       0.7769 |       0.7769 |xxxxxxxxxxxxx |xxxxxxxxxxxxx |xxxxxxxxxxxxx |xxxxxxxxxxxxx |       0.7685 |       0.7685 |       0.7685 |xxxxxxxxxxxxx |xxxxxxxxxxxxx |xxxxxxxxxxxxx |xxxxxxxxxxxxx |       0.7744 |       0.7744 |       0.7744 |xxxxxxxxxxxxx |xxxxxxxxxxxxx |xxxxxxxxxxxxx |xxxxxxxxxxxxx |       0.7731 |       0.7731 |       0.7731 |xxxxxxxxxxxxx |xxxxxxxxxxxxx |xxxxxxxxxxxxx |xxxxxxxxxxxxx |       0.7969 |       0.7969 |       0.7969 |xxxxxxxxxxxxx |xxxxxxxxxxxxx |xxxxxxxxxxxxx |xxxxxxxxxxxxx |       0.8100 |       0.8100 |       0.8100 |xxxxxxxxxxxxx |xxxxxxxxxxxxx |xxxxxxxxxxxxx |xxxxxxxxxxxxx |       0.8008 |       0.8008 |       0.8008 |xxxxxxxxxxxxx |xxxxxxxxxxxxx |xxxxxxxxxxxxx |xxxxxxxxxxxxx |       0.8015 |       0.8015 |       0.8015 |
bpred_bimod.bpred_jr_rate                   0.9875 |       0.9875 |       0.9875 |xxxxxxxxxxxxx |xxxxxxxxxxxxx |xxxxxxxxxxxxx |xxxxxxxxxxxxx |       0.9886 |       0.9886 |       0.9886 |xxxxxxxxxxxxx |xxxxxxxxxxxxx |xxxxxxxxxxxxx |xxxxxxxxxxxxx |       0.9904 |       0.9904 |       0.9904 |xxxxxxxxxxxxx |xxxxxxxxxxxxx |xxxxxxxxxxxxx |xxxxxxxxxxxxx |       0.9926 |       0.9926 |       0.9926 |xxxxxxxxxxxxx |xxxxxxxxxxxxx |xxxxxxxxxxxxx |xxxxxxxxxxxxx |       0.9950 |       0.9950 |       0.9950 |xxxxxxxxxxxxx |xxxxxxxxxxxxx |xxxxxxxxxxxxx |xxxxxxxxxxxxx |       0.9970 |       0.9970 |       0.9970 |xxxxxxxxxxxxx |xxxxxxxxxxxxx |xxxxxxxxxxxxx |xxxxxxxxxxxxx |       0.9983 |       0.9983 |       0.9983 |xxxxxxxxxxxxx |xxxxxxxxxxxxx |xxxxxxxxxxxxx |xxxxxxxxxxxxx |       1.0000 |       1.0000 |       1.0000 |xxxxxxxxxxxxx |xxxxxxxxxxxxx |xxxxxxxxxxxxx |xxxxxxxxxxxxx |       1.0000 |       1.0000 |       1.0000 |xxxxxxxxxxxxx |xxxxxxxxxxxxx |xxxxxxxxxxxxx |xxxxxxxxxxxxx |       1.0000 |       1.0000 |       1.0000 |xxxxxxxxxxxxx |xxxxxxxxxxxxx |xxxxxxxxxxxxx |xxxxxxxxxxxxx |       1.0000 |       1.0000 |       1.0000 |
bpred_bimod.bpred_jr_non_ras_rate.PP       <error: |      <error: |      <error: |xxxxxxxxxxxxx |xxxxxxxxxxxxx |xxxxxxxxxxxxx |xxxxxxxxxxxxx |      <error: |      <error: |      <error: |xxxxxxxxxxxxx |xxxxxxxxxxxxx |xxxxxxxxxxxxx |xxxxxxxxxxxxx |      <error: |      <error: |      <error: |xxxxxxxxxxxxx |xxxxxxxxxxxxx |xxxxxxxxxxxxx |xxxxxxxxxxxxx |      <error: |      <error: |      <error: |xxxxxxxxxxxxx |xxxxxxxxxxxxx |xxxxxxxxxxxxx |xxxxxxxxxxxxx |      <error: |      <error: |      <error: |xxxxxxxxxxxxx |xxxxxxxxxxxxx |xxxxxxxxxxxxx |xxxxxxxxxxxxx |      <error: |      <error: |      <error: |xxxxxxxxxxxxx |xxxxxxxxxxxxx |xxxxxxxxxxxxx |xxxxxxxxxxxxx |      <error: |      <error: |      <error: |xxxxxxxxxxxxx |xxxxxxxxxxxxx |xxxxxxxxxxxxx |xxxxxxxxxxxxx |       0.0000 |       0.0000 |       0.0000 |xxxxxxxxxxxxx |xxxxxxxxxxxxx |xxxxxxxxxxxxx |xxxxxxxxxxxxx |       0.0000 |       0.0000 |       0.0000 |xxxxxxxxxxxxx |xxxxxxxxxxxxx |xxxxxxxxxxxxx |xxxxxxxxxxxxx |       0.0000 |       0.0000 |       0.0000 |xxxxxxxxxxxxx |xxxxxxxxxxxxx |xxxxxxxxxxxxx |xxxxxxxxxxxxx |       0.0000 |       0.0000 |       0.0000 |
bpred_bimod.retstack_pushes                     82 |           82 |           82 |xxxxxxxxxxxxx |xxxxxxxxxxxxx |xxxxxxxxxxxxx |xxxxxxxxxxxxx |           90 |           90 |           90 |xxxxxxxxxxxxx |xxxxxxxxxxxxx |xxxxxxxxxxxxx |xxxxxxxxxxxxx |          106 |          106 |          106 |xxxxxxxxxxxxx |xxxxxxxxxxxxx |xxxxxxxxxxxxx |xxxxxxxxxxxxx |          138 |          138 |          138 |xxxxxxxxxxxxx |xxxxxxxxxxxxx |xxxxxxxxxxxxx |xxxxxxxxxxxxx |          202 |          202 |          202 |xxxxxxxxxxxxx |xxxxxxxxxxxxx |xxxxxxxxxxxxx |xxxxxxxxxxxxx |          330 |          330 |          330 |xxxxxxxxxxxxx |xxxxxxxxxxxxx |xxxxxxxxxxxxx |xxxxxxxxxxxxx |          586 |          586 |          586 |xxxxxxxxxxxxx |xxxxxxxxxxxxx |xxxxxxxxxxxxx |xxxxxxxxxxxxx |       525415 |       525415 |       525415 |xxxxxxxxxxxxx |xxxxxxxxxxxxx |xxxxxxxxxxxxx |xxxxxxxxxxxxx |      1050729 |      1050729 |      1050729 |xxxxxxxxxxxxx |xxxxxxxxxxxxx |xxxxxxxxxxxxx |xxxxxxxxxxxxx |      2101357 |      2101357 |      2101357 |xxxxxxxxxxxxx |xxxxxxxxxxxxx |xxxxxxxxxxxxx |xxxxxxxxxxxxx |      4202613 |      4202613 |      4202613 |
bpred_bimod.retstack_pops                       80 |           80 |           80 |xxxxxxxxxxxxx |xxxxxxxxxxxxx |xxxxxxxxxxxxx |xxxxxxxxxxxxx |           88 |           88 |           88 |xxxxxxxxxxxxx |xxxxxxxxxxxxx |xxxxxxxxxxxxx |xxxxxxxxxxxxx |          104 |          104 |          104 |xxxxxxxxxxxxx |xxxxxxxxxxxxx |xxxxxxxxxxxxx |xxxxxxxxxxxxx |          136 |          136 |          136 |xxxxxxxxxxxxx |xxxxxxxxxxxxx |xxxxxxxxxxxxx |xxxxxxxxxxxxx |          200 |          200 |          200 |xxxxxxxxxxxxx |xxxxxxxxxxxxx |xxxxxxxxxxxxx |xxxxxxxxxxxxx |          328 |          328 |          328 |xxxxxxxxxxxxx |xxxxxxxxxxxxx |xxxxxxxxxxxxx |xxxxxxxxxxxxx |          584 |          584 |          584 |xxxxxxxxxxxxx |xxxxxxxxxxxxx |xxxxxxxxxxxxx |xxxxxxxxxxxxx |       525413 |       525413 |       525413 |xxxxxxxxxxxxx |xxxxxxxxxxxxx |xxxxxxxxxxxxx |xxxxxxxxxxxxx |      1050727 |      1050727 |      1050727 |xxxxxxxxxxxxx |xxxxxxxxxxxxx |xxxxxxxxxxxxx |xxxxxxxxxxxxx |      2101355 |      2101355 |      2101355 |xxxxxxxxxxxxx |xxxxxxxxxxxxx |xxxxxxxxxxxxx |xxxxxxxxxxxxx |      4202611 |      4202611 |      4202611 |
bpred_bimod.used_ras.PP                         80 |           80 |           80 |xxxxxxxxxxxxx |xxxxxxxxxxxxx |xxxxxxxxxxxxx |xxxxxxxxxxxxx |           88 |           88 |           88 |xxxxxxxxxxxxx |xxxxxxxxxxxxx |xxxxxxxxxxxxx |xxxxxxxxxxxxx |          104 |          104 |          104 |xxxxxxxxxxxxx |xxxxxxxxxxxxx |xxxxxxxxxxxxx |xxxxxxxxxxxxx |          136 |          136 |          136 |xxxxxxxxxxxxx |xxxxxxxxxxxxx |xxxxxxxxxxxxx |xxxxxxxxxxxxx |          200 |          200 |          200 |xxxxxxxxxxxxx |xxxxxxxxxxxxx |xxxxxxxxxxxxx |xxxxxxxxxxxxx |          328 |          328 |          328 |xxxxxxxxxxxxx |xxxxxxxxxxxxx |xxxxxxxxxxxxx |xxxxxxxxxxxxx |          584 |          584 |          584 |xxxxxxxxxxxxx |xxxxxxxxxxxxx |xxxxxxxxxxxxx |xxxxxxxxxxxxx |       525413 |       525413 |       525413 |xxxxxxxxxxxxx |xxxxxxxxxxxxx |xxxxxxxxxxxxx |xxxxxxxxxxxxx |      1050727 |      1050727 |      1050727 |xxxxxxxxxxxxx |xxxxxxxxxxxxx |xxxxxxxxxxxxx |xxxxxxxxxxxxx |      2101355 |      2101355 |      2101355 |xxxxxxxxxxxxx |xxxxxxxxxxxxx |xxxxxxxxxxxxx |xxxxxxxxxxxxx |      4202611 |      4202611 |      4202611 |
bpred_bimod.ras_hits.PP                         79 |           79 |           79 |xxxxxxxxxxxxx |xxxxxxxxxxxxx |xxxxxxxxxxxxx |xxxxxxxxxxxxx |           87 |           87 |           87 |xxxxxxxxxxxxx |xxxxxxxxxxxxx |xxxxxxxxxxxxx |xxxxxxxxxxxxx |          103 |          103 |          103 |xxxxxxxxxxxxx |xxxxxxxxxxxxx |xxxxxxxxxxxxx |xxxxxxxxxxxxx |          135 |          135 |          135 |xxxxxxxxxxxxx |xxxxxxxxxxxxx |xxxxxxxxxxxxx |xxxxxxxxxxxxx |          199 |          199 |          199 |xxxxxxxxxxxxx |xxxxxxxxxxxxx |xxxxxxxxxxxxx |xxxxxxxxxxxxx |          327 |          327 |          327 |xxxxxxxxxxxxx |xxxxxxxxxxxxx |xxxxxxxxxxxxx |xxxxxxxxxxxxx |          583 |          583 |          583 |xxxxxxxxxxxxx |xxxxxxxxxxxxx |xxxxxxxxxxxxx |xxxxxxxxxxxxx |       525413 |       525413 |       525413 |xxxxxxxxxxxxx |xxxxxxxxxxxxx |xxxxxxxxxxxxx |xxxxxxxxxxxxx |      1050727 |      1050727 |      1050727 |xxxxxxxxxxxxx |xxxxxxxxxxxxx |xxxxxxxxxxxxx |xxxxxxxxxxxxx |      2101355 |      2101355 |      2101355 |xxxxxxxxxxxxx |xxxxxxxxxxxxx |xxxxxxxxxxxxx |xxxxxxxxxxxxx |      4202611 |      4202611 |      4202611 |
bpred_bimod.ras_rate.PP                     0.9875 |       0.9875 |       0.9875 |xxxxxxxxxxxxx |xxxxxxxxxxxxx |xxxxxxxxxxxxx |xxxxxxxxxxxxx |       0.9886 |       0.9886 |       0.9886 |xxxxxxxxxxxxx |xxxxxxxxxxxxx |xxxxxxxxxxxxx |xxxxxxxxxxxxx |       0.9904 |       0.9904 |       0.9904 |xxxxxxxxxxxxx |xxxxxxxxxxxxx |xxxxxxxxxxxxx |xxxxxxxxxxxxx |       0.9926 |       0.9926 |       0.9926 |xxxxxxxxxxxxx |xxxxxxxxxxxxx |xxxxxxxxxxxxx |xxxxxxxxxxxxx |       0.9950 |       0.9950 |       0.9950 |xxxxxxxxxxxxx |xxxxxxxxxxxxx |xxxxxxxxxxxxx |xxxxxxxxxxxxx |       0.9970 |       0.9970 |       0.9970 |xxxxxxxxxxxxx |xxxxxxxxxxxxx |xxxxxxxxxxxxx |xxxxxxxxxxxxx |       0.9983 |       0.9983 |       0.9983 |xxxxxxxxxxxxx |xxxxxxxxxxxxx |xxxxxxxxxxxxx |xxxxxxxxxxxxx |       1.0000 |       1.0000 |       1.0000 |xxxxxxxxxxxxx |xxxxxxxxxxxxx |xxxxxxxxxxxxx |xxxxxxxxxxxxx |       1.0000 |       1.0000 |       1.0000 |xxxxxxxxxxxxx |xxxxxxxxxxxxx |xxxxxxxxxxxxx |xxxxxxxxxxxxx |       1.0000 |       1.0000 |       1.0000 |xxxxxxxxxxxxx |xxxxxxxxxxxxx |xxxxxxxxxxxxx |xxxxxxxxxxxxx |       1.0000 |       1.0000 |       1.0000 |
bpred_2lev.lookups                   xxxxxxxxxxxxx |xxxxxxxxxxxxx |xxxxxxxxxxxxx |       112988 |       112988 |       112988 |       112988 |xxxxxxxxxxxxx |xxxxxxxxxxxxx |xxxxxxxxxxxxx |       235886 |       235886 |       235886 |       235886 |xxxxxxxxxxxxx |xxxxxxxxxxxxx |xxxxxxxxxxxxx |       514996 |       514996 |       514996 |       514996 |xxxxxxxxxxxxx |xxxxxxxxxxxxx |xxxxxxxxxxxxx |      1071296 |      1071296 |      1071296 |      1071296 |xxxxxxxxxxxxx |xxxxxxxxxxxxx |xxxxxxxxxxxxx |      2320531 |      2320531 |      2320531 |      2320531 |xxxxxxxxxxxxx |xxxxxxxxxxxxx |xxxxxxxxxxxxx |      4810745 |      4810745 |      4810745 |      4810745 |xxxxxxxxxxxxx |xxxxxxxxxxxxx |xxxxxxxxxxxxx |     10147049 |     10147049 |     10147049 |     10147049 |xxxxxxxxxxxxx |xxxxxxxxxxxxx |xxxxxxxxxxxxx |     30672047 |     30672047 |     30672047 |     30672047 |xxxxxxxxxxxxx |xxxxxxxxxxxxx |xxxxxxxxxxxxx |     67172359 |     67172359 |     67172359 |     67172359 |xxxxxxxxxxxxx |xxxxxxxxxxxxx |xxxxxxxxxxxxx |    145966170 |    145966170 |    145966170 |    145966170 |xxxxxxxxxxxxx |xxxxxxxxxxxxx |xxxxxxxxxxxxx |    314573059 |    314573059 |    314573059 |    314573059 |
[...]
bpred_2lev.retstack_pops             xxxxxxxxxxxxx |xxxxxxxxxxxxx |xxxxxxxxxxxxx |           80 |           80 |           80 |           80 |xxxxxxxxxxxxx |xxxxxxxxxxxxx |xxxxxxxxxxxxx |           88 |           88 |           88 |           88 |xxxxxxxxxxxxx |xxxxxxxxxxxxx |xxxxxxxxxxxxx |          104 |          104 |          104 |          104 |xxxxxxxxxxxxx |xxxxxxxxxxxxx |xxxxxxxxxxxxx |          136 |          136 |          136 |          136 |xxxxxxxxxxxxx |xxxxxxxxxxxxx |xxxxxxxxxxxxx |          200 |          200 |          200 |          200 |xxxxxxxxxxxxx |xxxxxxxxxxxxx |xxxxxxxxxxxxx |          328 |          328 |          328 |          328 |xxxxxxxxxxxxx |xxxxxxxxxxxxx |xxxxxxxxxxxxx |          584 |          584 |          584 |          584 |xxxxxxxxxxxxx |xxxxxxxxxxxxx |xxxxxxxxxxxxx |       525413 |       525413 |       525413 |       525413 |xxxxxxxxxxxxx |xxxxxxxxxxxxx |xxxxxxxxxxxxx |      1050727 |      1050727 |      1050727 |      1050727 |xxxxxxxxxxxxx |xxxxxxxxxxxxx |xxxxxxxxxxxxx |      2101355 |      2101355 |      2101355 |      2101355 |xxxxxxxxxxxxx |xxxxxxxxxxxxx |xxxxxxxxxxxxx |      4202611 |      4202611 |      4202611 |      4202611 |
bpred_2lev.used_ras.PP               xxxxxxxxxxxxx |xxxxxxxxxxxxx |xxxxxxxxxxxxx |           80 |           80 |           80 |           80 |xxxxxxxxxxxxx |xxxxxxxxxxxxx |xxxxxxxxxxxxx |           88 |           88 |           88 |           88 |xxxxxxxxxxxxx |xxxxxxxxxxxxx |xxxxxxxxxxxxx |          104 |          104 |          104 |          104 |xxxxxxxxxxxxx |xxxxxxxxxxxxx |xxxxxxxxxxxxx |          136 |          136 |          136 |          136 |xxxxxxxxxxxxx |xxxxxxxxxxxxx |xxxxxxxxxxxxx |          200 |          200 |          200 |          200 |xxxxxxxxxxxxx |xxxxxxxxxxxxx |xxxxxxxxxxxxx |          328 |          328 |          328 |          328 |xxxxxxxxxxxxx |xxxxxxxxxxxxx |xxxxxxxxxxxxx |          584 |          584 |          584 |          584 |xxxxxxxxxxxxx |xxxxxxxxxxxxx |xxxxxxxxxxxxx |       525413 |       525413 |       525413 |       525413 |xxxxxxxxxxxxx |xxxxxxxxxxxxx |xxxxxxxxxxxxx |      1050727 |      1050727 |      1050727 |      1050727 |xxxxxxxxxxxxx |xxxxxxxxxxxxx |xxxxxxxxxxxxx |      2101355 |      2101355 |      2101355 |      2101355 |xxxxxxxxxxxxx |xxxxxxxxxxxxx |xxxxxxxxxxxxx |      4202611 |      4202611 |      4202611 |      4202611 |
bpred_2lev.ras_hits.PP               xxxxxxxxxxxxx |xxxxxxxxxxxxx |xxxxxxxxxxxxx |           79 |           79 |           79 |           79 |xxxxxxxxxxxxx |xxxxxxxxxxxxx |xxxxxxxxxxxxx |           87 |           87 |           87 |           87 |xxxxxxxxxxxxx |xxxxxxxxxxxxx |xxxxxxxxxxxxx |          103 |          103 |          103 |          103 |xxxxxxxxxxxxx |xxxxxxxxxxxxx |xxxxxxxxxxxxx |          135 |          135 |          135 |          135 |xxxxxxxxxxxxx |xxxxxxxxxxxxx |xxxxxxxxxxxxx |          199 |          199 |          199 |          199 |xxxxxxxxxxxxx |xxxxxxxxxxxxx |xxxxxxxxxxxxx |          327 |          327 |          327 |          327 |xxxxxxxxxxxxx |xxxxxxxxxxxxx |xxxxxxxxxxxxx |          583 |          583 |          583 |          583 |xxxxxxxxxxxxx |xxxxxxxxxxxxx |xxxxxxxxxxxxx |       525413 |       525413 |       525413 |       525413 |xxxxxxxxxxxxx |xxxxxxxxxxxxx |xxxxxxxxxxxxx |      1050727 |      1050727 |      1050727 |      1050727 |xxxxxxxxxxxxx |xxxxxxxxxxxxx |xxxxxxxxxxxxx |      2101355 |      2101355 |      2101355 |      2101355 |xxxxxxxxxxxxx |xxxxxxxxxxxxx |xxxxxxxxxxxxx |      4202611 |      4202611 |      4202611 |      4202611 |
bpred_2lev.ras_rate.PP               xxxxxxxxxxxxx |xxxxxxxxxxxxx |xxxxxxxxxxxxx |       0.9875 |       0.9875 |       0.9875 |       0.9875 |xxxxxxxxxxxxx |xxxxxxxxxxxxx |xxxxxxxxxxxxx |       0.9886 |       0.9886 |       0.9886 |       0.9886 |xxxxxxxxxxxxx |xxxxxxxxxxxxx |xxxxxxxxxxxxx |       0.9904 |       0.9904 |       0.9904 |       0.9904 |xxxxxxxxxxxxx |xxxxxxxxxxxxx |xxxxxxxxxxxxx |       0.9926 |       0.9926 |       0.9926 |       0.9926 |xxxxxxxxxxxxx |xxxxxxxxxxxxx |xxxxxxxxxxxxx |       0.9950 |       0.9950 |       0.9950 |       0.9950 |xxxxxxxxxxxxx |xxxxxxxxxxxxx |xxxxxxxxxxxxx |       0.9970 |       0.9970 |       0.9970 |       0.9970 |xxxxxxxxxxxxx |xxxxxxxxxxxxx |xxxxxxxxxxxxx |       0.9983 |       0.9983 |       0.9983 |       0.9983 |xxxxxxxxxxxxx |xxxxxxxxxxxxx |xxxxxxxxxxxxx |       1.0000 |       1.0000 |       1.0000 |       1.0000 |xxxxxxxxxxxxx |xxxxxxxxxxxxx |xxxxxxxxxxxxx |       1.0000 |       1.0000 |       1.0000 |       1.0000 |xxxxxxxxxxxxx |xxxxxxxxxxxxx |xxxxxxxxxxxxx |       1.0000 |       1.0000 |       1.0000 |       1.0000 |xxxxxxxxxxxxx |xxxxxxxxxxxxx |xxxxxxxxxxxxx |       1.0000 |       1.0000 |       1.0000 |       1.0000 |

Command list: 
	sslittle-na-sstrix-gcc -Wall -O3 -funroll-loops -finline-functions  -DRANDOM_SIZE=4096 -DOFFSET=0 -DSORT=double_multi_mergesort double_multi_mergesort139545696.c simpleMain.c -o double_multi_mergesort452567553
	sim-cache -cache:dl1 dl1:256:32:1:l -cache:dl2 dl2:131072:32:1:l -cache:il1 il1:256:32:1:l -cache:il2 dl2 double_multi_mergesort452567553
	sim-cache -cache:dl1 dl1:256:32:1:l -cache:dl2 dl2:65536:32:1:l -cache:il1 il1:256:32:1:l -cache:il2 dl2 double_multi_mergesort452567553
	sim-cache -cache:dl1 dl1:1:32:256:l -cache:dl2 dl2:1:32:131072:l -cache:il1 il1:1:32:256:l -cache:il2 dl2 double_multi_mergesort452567553
	sim-cache -cache:dl1 dl1:1:32:256:l -cache:dl2 dl2:1:32:65536:l -cache:il1 il1:1:32:256:l -cache:il2 dl2 double_multi_mergesort452567553
	sim-bpred -bpred bimod -bpred:bimod 512 double_multi_mergesort452567553
	sim-bpred -bpred bimod -bpred:bimod 1024 double_multi_mergesort452567553
	sim-bpred -bpred bimod -bpred:bimod 2048 double_multi_mergesort452567553
	sim-bpred -bpred 2lev -bpred:2lev 1 512 10 1 double_multi_mergesort452567553
	sim-bpred -bpred 2lev -bpred:2lev 1 1024 10 1 double_multi_mergesort452567553
	sim-bpred -bpred 2lev -bpred:2lev 1 2048 10 1 double_multi_mergesort452567553
	sim-bpred -bpred 2lev -bpred:2lev 1 4096 10 1 double_multi_mergesort452567553
	sslittle-na-sstrix-gcc -Wall -O3 -funroll-loops -finline-functions  -DRANDOM_SIZE=8192 -DOFFSET=0 -DSORT=double_multi_mergesort double_multi_mergesort139545696.c simpleMain.c -o double_multi_mergesort452567553
	sim-cache -cache:dl1 dl1:256:32:1:l -cache:dl2 dl2:131072:32:1:l -cache:il1 il1:256:32:1:l -cache:il2 dl2 double_multi_mergesort452567553
	sim-cache -cache:dl1 dl1:256:32:1:l -cache:dl2 dl2:65536:32:1:l -cache:il1 il1:256:32:1:l -cache:il2 dl2 double_multi_mergesort452567553
	sim-cache -cache:dl1 dl1:1:32:256:l -cache:dl2 dl2:1:32:131072:l -cache:il1 il1:1:32:256:l -cache:il2 dl2 double_multi_mergesort452567553
	sim-cache -cache:dl1 dl1:1:32:256:l -cache:dl2 dl2:1:32:65536:l -cache:il1 il1:1:32:256:l -cache:il2 dl2 double_multi_mergesort452567553
	sim-bpred -bpred bimod -bpred:bimod 512 double_multi_mergesort452567553
	sim-bpred -bpred bimod -bpred:bimod 1024 double_multi_mergesort452567553
	sim-bpred -bpred bimod -bpred:bimod 2048 double_multi_mergesort452567553
	sim-bpred -bpred 2lev -bpred:2lev 1 512 10 1 double_multi_mergesort452567553
	sim-bpred -bpred 2lev -bpred:2lev 1 1024 10 1 double_multi_mergesort452567553
	sim-bpred -bpred 2lev -bpred:2lev 1 2048 10 1 double_multi_mergesort452567553
	sim-bpred -bpred 2lev -bpred:2lev 1 4096 10 1 double_multi_mergesort452567553
	sslittle-na-sstrix-gcc -Wall -O3 -funroll-loops -finline-functions  -DRANDOM_SIZE=16384 -DOFFSET=0 -DSORT=double_multi_mergesort double_multi_mergesort139545696.c simpleMain.c -o double_multi_mergesort452567553
	sim-cache -cache:dl1 dl1:256:32:1:l -cache:dl2 dl2:131072:32:1:l -cache:il1 il1:256:32:1:l -cache:il2 dl2 double_multi_mergesort452567553
	sim-cache -cache:dl1 dl1:256:32:1:l -cache:dl2 dl2:65536:32:1:l -cache:il1 il1:256:32:1:l -cache:il2 dl2 double_multi_mergesort452567553
	sim-cache -cache:dl1 dl1:1:32:256:l -cache:dl2 dl2:1:32:131072:l -cache:il1 il1:1:32:256:l -cache:il2 dl2 double_multi_mergesort452567553
	sim-cache -cache:dl1 dl1:1:32:256:l -cache:dl2 dl2:1:32:65536:l -cache:il1 il1:1:32:256:l -cache:il2 dl2 double_multi_mergesort452567553
	sim-bpred -bpred bimod -bpred:bimod 512 double_multi_mergesort452567553
	sim-bpred -bpred bimod -bpred:bimod 1024 double_multi_mergesort452567553
	sim-bpred -bpred bimod -bpred:bimod 2048 double_multi_mergesort452567553
	sim-bpred -bpred 2lev -bpred:2lev 1 512 10 1 double_multi_mergesort452567553
	sim-bpred -bpred 2lev -bpred:2lev 1 1024 10 1 double_multi_mergesort452567553
	sim-bpred -bpred 2lev -bpred:2lev 1 2048 10 1 double_multi_mergesort452567553
	sim-bpred -bpred 2lev -bpred:2lev 1 4096 10 1 double_multi_mergesort452567553
	sslittle-na-sstrix-gcc -Wall -O3 -funroll-loops -finline-functions  -DRANDOM_SIZE=32768 -DOFFSET=0 -DSORT=double_multi_mergesort double_multi_mergesort139545696.c simpleMain.c -o double_multi_mergesort452567553
	sim-cache -cache:dl1 dl1:256:32:1:l -cache:dl2 dl2:131072:32:1:l -cache:il1 il1:256:32:1:l -cache:il2 dl2 double_multi_mergesort452567553
	sim-cache -cache:dl1 dl1:256:32:1:l -cache:dl2 dl2:65536:32:1:l -cache:il1 il1:256:32:1:l -cache:il2 dl2 double_multi_mergesort452567553
	sim-cache -cache:dl1 dl1:1:32:256:l -cache:dl2 dl2:1:32:131072:l -cache:il1 il1:1:32:256:l -cache:il2 dl2 double_multi_mergesort452567553
	sim-cache -cache:dl1 dl1:1:32:256:l -cache:dl2 dl2:1:32:65536:l -cache:il1 il1:1:32:256:l -cache:il2 dl2 double_multi_mergesort452567553
	sim-bpred -bpred bimod -bpred:bimod 512 double_multi_mergesort452567553
	sim-bpred -bpred bimod -bpred:bimod 1024 double_multi_mergesort452567553
	sim-bpred -bpred bimod -bpred:bimod 2048 double_multi_mergesort452567553
	sim-bpred -bpred 2lev -bpred:2lev 1 512 10 1 double_multi_mergesort452567553
	sim-bpred -bpred 2lev -bpred:2lev 1 1024 10 1 double_multi_mergesort452567553
	sim-bpred -bpred 2lev -bpred:2lev 1 2048 10 1 double_multi_mergesort452567553
	sim-bpred -bpred 2lev -bpred:2lev 1 4096 10 1 double_multi_mergesort452567553
	sslittle-na-sstrix-gcc -Wall -O3 -funroll-loops -finline-functions  -DRANDOM_SIZE=65536 -DOFFSET=0 -DSORT=double_multi_mergesort double_multi_mergesort139545696.c simpleMain.c -o double_multi_mergesort452567553
	sim-cache -cache:dl1 dl1:256:32:1:l -cache:dl2 dl2:131072:32:1:l -cache:il1 il1:256:32:1:l -cache:il2 dl2 double_multi_mergesort452567553
	sim-cache -cache:dl1 dl1:256:32:1:l -cache:dl2 dl2:65536:32:1:l -cache:il1 il1:256:32:1:l -cache:il2 dl2 double_multi_mergesort452567553
	sim-cache -cache:dl1 dl1:1:32:256:l -cache:dl2 dl2:1:32:131072:l -cache:il1 il1:1:32:256:l -cache:il2 dl2 double_multi_mergesort452567553
	sim-cache -cache:dl1 dl1:1:32:256:l -cache:dl2 dl2:1:32:65536:l -cache:il1 il1:1:32:256:l -cache:il2 dl2 double_multi_mergesort452567553
	sim-bpred -bpred bimod -bpred:bimod 512 double_multi_mergesort452567553
	sim-bpred -bpred bimod -bpred:bimod 1024 double_multi_mergesort452567553
	sim-bpred -bpred bimod -bpred:bimod 2048 double_multi_mergesort452567553
	sim-bpred -bpred 2lev -bpred:2lev 1 512 10 1 double_multi_mergesort452567553
	sim-bpred -bpred 2lev -bpred:2lev 1 1024 10 1 double_multi_mergesort452567553
	sim-bpred -bpred 2lev -bpred:2lev 1 2048 10 1 double_multi_mergesort452567553
	sim-bpred -bpred 2lev -bpred:2lev 1 4096 10 1 double_multi_mergesort452567553
	sslittle-na-sstrix-gcc -Wall -O3 -funroll-loops -finline-functions  -DRANDOM_SIZE=131072 -DOFFSET=0 -DSORT=double_multi_mergesort double_multi_mergesort139545696.c simpleMain.c -o double_multi_mergesort452567553
	sim-cache -cache:dl1 dl1:256:32:1:l -cache:dl2 dl2:131072:32:1:l -cache:il1 il1:256:32:1:l -cache:il2 dl2 double_multi_mergesort452567553
	sim-cache -cache:dl1 dl1:256:32:1:l -cache:dl2 dl2:65536:32:1:l -cache:il1 il1:256:32:1:l -cache:il2 dl2 double_multi_mergesort452567553
	sim-cache -cache:dl1 dl1:1:32:256:l -cache:dl2 dl2:1:32:131072:l -cache:il1 il1:1:32:256:l -cache:il2 dl2 double_multi_mergesort452567553
	sim-cache -cache:dl1 dl1:1:32:256:l -cache:dl2 dl2:1:32:65536:l -cache:il1 il1:1:32:256:l -cache:il2 dl2 double_multi_mergesort452567553
	sim-bpred -bpred bimod -bpred:bimod 512 double_multi_mergesort452567553
	sim-bpred -bpred bimod -bpred:bimod 1024 double_multi_mergesort452567553
	sim-bpred -bpred bimod -bpred:bimod 2048 double_multi_mergesort452567553
	sim-bpred -bpred 2lev -bpred:2lev 1 512 10 1 double_multi_mergesort452567553
	sim-bpred -bpred 2lev -bpred:2lev 1 1024 10 1 double_multi_mergesort452567553
	sim-bpred -bpred 2lev -bpred:2lev 1 2048 10 1 double_multi_mergesort452567553
	sim-bpred -bpred 2lev -bpred:2lev 1 4096 10 1 double_multi_mergesort452567553
	sslittle-na-sstrix-gcc -Wall -O3 -funroll-loops -finline-functions  -DRANDOM_SIZE=262144 -DOFFSET=0 -DSORT=double_multi_mergesort double_multi_mergesort139545696.c simpleMain.c -o double_multi_mergesort452567553
	sim-cache -cache:dl1 dl1:256:32:1:l -cache:dl2 dl2:131072:32:1:l -cache:il1 il1:256:32:1:l -cache:il2 dl2 double_multi_mergesort452567553
	sim-cache -cache:dl1 dl1:256:32:1:l -cache:dl2 dl2:65536:32:1:l -cache:il1 il1:256:32:1:l -cache:il2 dl2 double_multi_mergesort452567553
	sim-cache -cache:dl1 dl1:1:32:256:l -cache:dl2 dl2:1:32:131072:l -cache:il1 il1:1:32:256:l -cache:il2 dl2 double_multi_mergesort452567553
	sim-cache -cache:dl1 dl1:1:32:256:l -cache:dl2 dl2:1:32:65536:l -cache:il1 il1:1:32:256:l -cache:il2 dl2 double_multi_mergesort452567553
	sim-bpred -bpred bimod -bpred:bimod 512 double_multi_mergesort452567553
	sim-bpred -bpred bimod -bpred:bimod 1024 double_multi_mergesort452567553
	sim-bpred -bpred bimod -bpred:bimod 2048 double_multi_mergesort452567553
	sim-bpred -bpred 2lev -bpred:2lev 1 512 10 1 double_multi_mergesort452567553
	sim-bpred -bpred 2lev -bpred:2lev 1 1024 10 1 double_multi_mergesort452567553
	sim-bpred -bpred 2lev -bpred:2lev 1 2048 10 1 double_multi_mergesort452567553
	sim-bpred -bpred 2lev -bpred:2lev 1 4096 10 1 double_multi_mergesort452567553
	sslittle-na-sstrix-gcc -Wall -O3 -funroll-loops -finline-functions  -DRANDOM_SIZE=524288 -DOFFSET=0 -DSORT=double_multi_mergesort double_multi_mergesort139545696.c simpleMain.c -o double_multi_mergesort452567553
	sim-cache -cache:dl1 dl1:256:32:1:l -cache:dl2 dl2:131072:32:1:l -cache:il1 il1:256:32:1:l -cache:il2 dl2 double_multi_mergesort452567553
	sim-cache -cache:dl1 dl1:256:32:1:l -cache:dl2 dl2:65536:32:1:l -cache:il1 il1:256:32:1:l -cache:il2 dl2 double_multi_mergesort452567553
	sim-cache -cache:dl1 dl1:1:32:256:l -cache:dl2 dl2:1:32:131072:l -cache:il1 il1:1:32:256:l -cache:il2 dl2 double_multi_mergesort452567553
	sim-cache -cache:dl1 dl1:1:32:256:l -cache:dl2 dl2:1:32:65536:l -cache:il1 il1:1:32:256:l -cache:il2 dl2 double_multi_mergesort452567553
	sim-bpred -bpred bimod -bpred:bimod 512 double_multi_mergesort452567553
	sim-bpred -bpred bimod -bpred:bimod 1024 double_multi_mergesort452567553
	sim-bpred -bpred bimod -bpred:bimod 2048 double_multi_mergesort452567553
	sim-bpred -bpred 2lev -bpred:2lev 1 512 10 1 double_multi_mergesort452567553
	sim-bpred -bpred 2lev -bpred:2lev 1 1024 10 1 double_multi_mergesort452567553
	sim-bpred -bpred 2lev -bpred:2lev 1 2048 10 1 double_multi_mergesort452567553
	sim-bpred -bpred 2lev -bpred:2lev 1 4096 10 1 double_multi_mergesort452567553
	sslittle-na-sstrix-gcc -Wall -O3 -funroll-loops -finline-functions  -DRANDOM_SIZE=1048576 -DOFFSET=0 -DSORT=double_multi_mergesort double_multi_mergesort139545696.c simpleMain.c -o double_multi_mergesort452567553
	sim-cache -cache:dl1 dl1:256:32:1:l -cache:dl2 dl2:131072:32:1:l -cache:il1 il1:256:32:1:l -cache:il2 dl2 double_multi_mergesort452567553
	sim-cache -cache:dl1 dl1:256:32:1:l -cache:dl2 dl2:65536:32:1:l -cache:il1 il1:256:32:1:l -cache:il2 dl2 double_multi_mergesort452567553
	sim-cache -cache:dl1 dl1:1:32:256:l -cache:dl2 dl2:1:32:131072:l -cache:il1 il1:1:32:256:l -cache:il2 dl2 double_multi_mergesort452567553
	sim-cache -cache:dl1 dl1:1:32:256:l -cache:dl2 dl2:1:32:65536:l -cache:il1 il1:1:32:256:l -cache:il2 dl2 double_multi_mergesort452567553
	sim-bpred -bpred bimod -bpred:bimod 512 double_multi_mergesort452567553
	sim-bpred -bpred bimod -bpred:bimod 1024 double_multi_mergesort452567553
	sim-bpred -bpred bimod -bpred:bimod 2048 double_multi_mergesort452567553
	sim-bpred -bpred 2lev -bpred:2lev 1 512 10 1 double_multi_mergesort452567553
	sim-bpred -bpred 2lev -bpred:2lev 1 1024 10 1 double_multi_mergesort452567553
	sim-bpred -bpred 2lev -bpred:2lev 1 2048 10 1 double_multi_mergesort452567553
	sim-bpred -bpred 2lev -bpred:2lev 1 4096 10 1 double_multi_mergesort452567553
	sslittle-na-sstrix-gcc -Wall -O3 -funroll-loops -finline-functions  -DRANDOM_SIZE=2097152 -DOFFSET=0 -DSORT=double_multi_mergesort double_multi_mergesort139545696.c simpleMain.c -o double_multi_mergesort452567553
	sim-cache -cache:dl1 dl1:256:32:1:l -cache:dl2 dl2:131072:32:1:l -cache:il1 il1:256:32:1:l -cache:il2 dl2 double_multi_mergesort452567553
	sim-cache -cache:dl1 dl1:256:32:1:l -cache:dl2 dl2:65536:32:1:l -cache:il1 il1:256:32:1:l -cache:il2 dl2 double_multi_mergesort452567553
	sim-cache -cache:dl1 dl1:1:32:256:l -cache:dl2 dl2:1:32:131072:l -cache:il1 il1:1:32:256:l -cache:il2 dl2 double_multi_mergesort452567553
	sim-cache -cache:dl1 dl1:1:32:256:l -cache:dl2 dl2:1:32:65536:l -cache:il1 il1:1:32:256:l -cache:il2 dl2 double_multi_mergesort452567553
	sim-bpred -bpred bimod -bpred:bimod 512 double_multi_mergesort452567553
	sim-bpred -bpred bimod -bpred:bimod 1024 double_multi_mergesort452567553
	sim-bpred -bpred bimod -bpred:bimod 2048 double_multi_mergesort452567553
	sim-bpred -bpred 2lev -bpred:2lev 1 512 10 1 double_multi_mergesort452567553
	sim-bpred -bpred 2lev -bpred:2lev 1 1024 10 1 double_multi_mergesort452567553
	sim-bpred -bpred 2lev -bpred:2lev 1 2048 10 1 double_multi_mergesort452567553
	sim-bpred -bpred 2lev -bpred:2lev 1 4096 10 1 double_multi_mergesort452567553
	sslittle-na-sstrix-gcc -Wall -O3 -funroll-loops -finline-functions  -DRANDOM_SIZE=4194304 -DOFFSET=0 -DSORT=double_multi_mergesort double_multi_mergesort139545696.c simpleMain.c -o double_multi_mergesort452567553
	sim-cache -cache:dl1 dl1:256:32:1:l -cache:dl2 dl2:131072:32:1:l -cache:il1 il1:256:32:1:l -cache:il2 dl2 double_multi_mergesort452567553
	sim-cache -cache:dl1 dl1:256:32:1:l -cache:dl2 dl2:65536:32:1:l -cache:il1 il1:256:32:1:l -cache:il2 dl2 double_multi_mergesort452567553
	sim-cache -cache:dl1 dl1:1:32:256:l -cache:dl2 dl2:1:32:131072:l -cache:il1 il1:1:32:256:l -cache:il2 dl2 double_multi_mergesort452567553
	sim-cache -cache:dl1 dl1:1:32:256:l -cache:dl2 dl2:1:32:65536:l -cache:il1 il1:1:32:256:l -cache:il2 dl2 double_multi_mergesort452567553
	sim-bpred -bpred bimod -bpred:bimod 512 double_multi_mergesort452567553
	sim-bpred -bpred bimod -bpred:bimod 1024 double_multi_mergesort452567553
	sim-bpred -bpred bimod -bpred:bimod 2048 double_multi_mergesort452567553
	sim-bpred -bpred 2lev -bpred:2lev 1 512 10 1 double_multi_mergesort452567553
	sim-bpred -bpred 2lev -bpred:2lev 1 1024 10 1 double_multi_mergesort452567553
	sim-bpred -bpred 2lev -bpred:2lev 1 2048 10 1 double_multi_mergesort452567553
	sim-bpred -bpred 2lev -bpred:2lev 1 4096 10 1 double_multi_mergesort452567553
