Wed Jun 22 10:55:41 2005
Run as: "./do_simple -c random.org1 -o 1 double_aligned_tiled_mergesort"
-------------------------------------------------------------------------------------------------
sim-cache                                     4096 |         4096 |         4096 |         4096 |         8192 |         8192 |         8192 |         8192 |        16384 |        16384 |        16384 |        16384 |        32768 |        32768 |        32768 |        32768 |        65536 |        65536 |        65536 |        65536 |       131072 |       131072 |       131072 |       131072 |       262144 |       262144 |       262144 |       262144 |       524288 |       524288 |       524288 |       524288 |      1048576 |      1048576 |      1048576 |      1048576 |      2097152 |      2097152 |      2097152 |      2097152 |      4194304 |      4194304 |      4194304 |      4194304 |
-cache:dl1 dl1:256:32:1:l -cache:dl2 dl2:131072:32:1:l -cache:il1 il1:256:32:1:l -cache:il2 dl2
-cache:dl1 dl1:256:32:1:l -cache:dl2 dl2:65536:32:1:l -cache:il1 il1:256:32:1:l -cache:il2 dl2
-cache:dl1 dl1:1:32:256:l -cache:dl2 dl2:1:32:131072:l -cache:il1 il1:1:32:256:l -cache:il2 dl2
-cache:dl1 dl1:1:32:256:l -cache:dl2 dl2:1:32:65536:l -cache:il1 il1:1:32:256:l -cache:il2 dl2
-------------------------------------------------------------------------------------------------
sim_num_insn                                858476 |       858476 |       858476 |       858476 |      1751907 |      1751907 |      1751907 |      1751907 |      3960244 |      3960244 |      3960244 |      3960244 |      8067479 |      8067479 |      8067479 |      8067479 |     17982600 |     17982600 |     17982600 |     17982600 |     36563230 |     36563230 |     36563230 |     36563230 |     80551890 |     80551890 |     80551890 |     80551890 |    168418117 |    168418117 |    168418117 |    168418117 |    366490643 |    366490643 |    366490643 |    366490643 |    742848748 |    742848748 |    742848748 |    742848748 |   1604571407 |   1604571407 |   1604571407 |   1604571407 |
sim_num_refs                                228653 |       228653 |       228653 |       228653 |       472291 |       472291 |       472291 |       472291 |      1051632 |      1051632 |      1051632 |      1051632 |      2172079 |      2172079 |      2172079 |      2172079 |      4784708 |      4784708 |      4784708 |      4784708 |      9853418 |      9853418 |      9853418 |      9853418 |     21484306 |     21484306 |     21484306 |     21484306 |     45705409 |     45705409 |     45705409 |     45705409 |     98512604 |     98512604 |     98512604 |     98512604 |    201662611 |    201662611 |    201662611 |    201662611 |    431813928 |    431813928 |    431813928 |    431813928 |
sim_elapsed_time                                 1 |            1 |           10 |            5 |            1 |            1 |           15 |            8 |            1 |            1 |           25 |           13 |            2 |            2 |           45 |           23 |            5 |            4 |           84 |           42 |            9 |           10 |          154 |           71 |           21 |           20 |          265 |          102 |           42 |           42 |          367 |          126 |           92 |           91 |          421 |          180 |          187 |          187 |          524 |          286 |          402 |          403 |          770 |          528 |
sim_inst_rate                          858476.0000 |  858476.0000 |   85847.6000 |  171695.2000 | 1751907.0000 | 1751907.0000 |  116793.8000 |  218988.3750 | 3960244.0000 | 3960244.0000 |  158409.7600 |  304634.1538 | 4033739.5000 | 4033739.5000 |  179277.3111 |  350759.9565 | 3596520.0000 | 4495650.0000 |  214078.5714 |  428157.1429 | 4062581.1111 | 3656323.0000 |  237423.5714 |  514975.0704 | 3835804.2857 | 4027594.5000 |  303969.3962 |  789724.4118 | 4009955.1667 | 4009955.1667 |  458904.9510 | 1336651.7222 | 3983593.9457 | 4027369.7033 |  870524.0926 | 2036059.1278 | 3972453.1979 | 3972453.1979 | 1417650.2824 | 2597373.2448 | 3991471.1617 | 3981566.7667 | 2083858.9701 | 3038960.9981 |
il1.accesses                                858476 |       858476 |       858476 |       858476 |      1751907 |      1751907 |      1751907 |      1751907 |      3960244 |      3960244 |      3960244 |      3960244 |      8067479 |      8067479 |      8067479 |      8067479 |     17982600 |     17982600 |     17982600 |     17982600 |     36563230 |     36563230 |     36563230 |     36563230 |     80551890 |     80551890 |     80551890 |     80551890 |    168418117 |    168418117 |    168418117 |    168418117 |    366490643 |    366490643 |    366490643 |    366490643 |    742848748 |    742848748 |    742848748 |    742848748 |   1604571407 |   1604571407 |   1604571407 |   1604571407 |
il1.hits                                    857807 |       857807 |       857902 |       857902 |      1751217 |      1751217 |      1751309 |      1751309 |      3959571 |      3959571 |      3959671 |      3959671 |      8066789 |      8066789 |      8066881 |      8066881 |     17981926 |     17981926 |     17982022 |     17982022 |     36562538 |     36562538 |     36562631 |     36562631 |     80551218 |     80551218 |     80551314 |     80551314 |    168415838 |    168415838 |    168417444 |    168417444 |    366486838 |    366486838 |    366489988 |    366489988 |    742841825 |    742841825 |    742848075 |    742848075 |   1604558338 |   1604558338 |   1604570752 |   1604570752 |
il1.misses                                     669 |          669 |          574 |          574 |          690 |          690 |          598 |          598 |          673 |          673 |          573 |          573 |          690 |          690 |          598 |          598 |          674 |          674 |          578 |          578 |          692 |          692 |          599 |          599 |          672 |          672 |          576 |          576 |         2279 |         2279 |          673 |          673 |         3805 |         3805 |          655 |          655 |         6923 |         6923 |          673 |          673 |        13069 |        13069 |          655 |          655 |
il1.replacements                               426 |          426 |          318 |          318 |          446 |          446 |          342 |          342 |          432 |          432 |          317 |          317 |          446 |          446 |          342 |          342 |          432 |          432 |          322 |          322 |          448 |          448 |          343 |          343 |          443 |          443 |          320 |          320 |         2054 |         2054 |          417 |          417 |         3582 |         3582 |          399 |          399 |         6698 |         6698 |          417 |          417 |        12846 |        12846 |          399 |          399 |
il1.writebacks                                   0 |            0 |            0 |            0 |            0 |            0 |            0 |            0 |            0 |            0 |            0 |            0 |            0 |            0 |            0 |            0 |            0 |            0 |            0 |            0 |            0 |            0 |            0 |            0 |            0 |            0 |            0 |            0 |            0 |            0 |            0 |            0 |            0 |            0 |            0 |            0 |            0 |            0 |            0 |            0 |            0 |            0 |            0 |            0 |
il1.invalidations                                0 |            0 |            0 |            0 |            0 |            0 |            0 |            0 |            0 |            0 |            0 |            0 |            0 |            0 |            0 |            0 |            0 |            0 |            0 |            0 |            0 |            0 |            0 |            0 |            0 |            0 |            0 |            0 |            0 |            0 |            0 |            0 |            0 |            0 |            0 |            0 |            0 |            0 |            0 |            0 |            0 |            0 |            0 |            0 |
il1.miss_rate                               0.0008 |       0.0008 |       0.0007 |       0.0007 |       0.0004 |       0.0004 |       0.0003 |       0.0003 |       0.0002 |       0.0002 |       0.0001 |       0.0001 |       0.0001 |       0.0001 |       0.0001 |       0.0001 |       0.0000 |       0.0000 |       0.0000 |       0.0000 |       0.0000 |       0.0000 |       0.0000 |       0.0000 |       0.0000 |       0.0000 |       0.0000 |       0.0000 |       0.0000 |       0.0000 |       0.0000 |       0.0000 |       0.0000 |       0.0000 |       0.0000 |       0.0000 |       0.0000 |       0.0000 |       0.0000 |       0.0000 |       0.0000 |       0.0000 |       0.0000 |       0.0000 |
il1.repl_rate                               0.0005 |       0.0005 |       0.0004 |       0.0004 |       0.0003 |       0.0003 |       0.0002 |       0.0002 |       0.0001 |       0.0001 |       0.0001 |       0.0001 |       0.0001 |       0.0001 |       0.0000 |       0.0000 |       0.0000 |       0.0000 |       0.0000 |       0.0000 |       0.0000 |       0.0000 |       0.0000 |       0.0000 |       0.0000 |       0.0000 |       0.0000 |       0.0000 |       0.0000 |       0.0000 |       0.0000 |       0.0000 |       0.0000 |       0.0000 |       0.0000 |       0.0000 |       0.0000 |       0.0000 |       0.0000 |       0.0000 |       0.0000 |       0.0000 |       0.0000 |       0.0000 |
il1.wb_rate                                 0.0000 |       0.0000 |       0.0000 |       0.0000 |       0.0000 |       0.0000 |       0.0000 |       0.0000 |       0.0000 |       0.0000 |       0.0000 |       0.0000 |       0.0000 |       0.0000 |       0.0000 |       0.0000 |       0.0000 |       0.0000 |       0.0000 |       0.0000 |       0.0000 |       0.0000 |       0.0000 |       0.0000 |       0.0000 |       0.0000 |       0.0000 |       0.0000 |       0.0000 |       0.0000 |       0.0000 |       0.0000 |       0.0000 |       0.0000 |       0.0000 |       0.0000 |       0.0000 |       0.0000 |       0.0000 |       0.0000 |       0.0000 |       0.0000 |       0.0000 |       0.0000 |
il1.inv_rate                                0.0000 |       0.0000 |       0.0000 |       0.0000 |       0.0000 |       0.0000 |       0.0000 |       0.0000 |       0.0000 |       0.0000 |       0.0000 |       0.0000 |       0.0000 |       0.0000 |       0.0000 |       0.0000 |       0.0000 |       0.0000 |       0.0000 |       0.0000 |       0.0000 |       0.0000 |       0.0000 |       0.0000 |       0.0000 |       0.0000 |       0.0000 |       0.0000 |       0.0000 |       0.0000 |       0.0000 |       0.0000 |       0.0000 |       0.0000 |       0.0000 |       0.0000 |       0.0000 |       0.0000 |       0.0000 |       0.0000 |       0.0000 |       0.0000 |       0.0000 |       0.0000 |
dl1.accesses                                245119 |       245119 |       245119 |       245119 |       505141 |       505141 |       505141 |       505141 |      1117250 |      1117250 |      1117250 |      1117250 |      2303233 |      2303233 |      2303233 |      2303233 |      5046934 |      5046934 |      5046934 |      5046934 |     10377788 |     10377788 |     10377788 |     10377788 |     22532964 |     22532964 |     22532964 |     22532964 |     47802643 |     47802643 |     47802643 |     47802643 |    102706990 |    102706990 |    102706990 |    102706990 |    210051301 |    210051301 |    210051301 |    210051301 |    448591226 |    448591226 |    448591226 |    448591226 |
dl1.hits                                    239712 |       239712 |       238178 |       238178 |       492527 |       492527 |       490940 |       490940 |      1088045 |      1088045 |      1082662 |      1082662 |      2236146 |      2236146 |      2231417 |      2231417 |      4894848 |      4894848 |      4877249 |      4877249 |     10038269 |     10038269 |     10026505 |     10026505 |     21781306 |     21781306 |     21724795 |     21724795 |     46018533 |     46018533 |     46004665 |     46004665 |     98840782 |     98840782 |     98688418 |     98688418 |    201752991 |    201752991 |    201814667 |    201814667 |    430806150 |    430806150 |    430422255 |    430422255 |
dl1.misses                                    5407 |         5407 |         6941 |         6941 |        12614 |        12614 |        14201 |        14201 |        29205 |        29205 |        34588 |        34588 |        67087 |        67087 |        71816 |        71816 |       152086 |       152086 |       169685 |       169685 |       339519 |       339519 |       351283 |       351283 |       751658 |       751658 |       808169 |       808169 |      1784110 |      1784110 |      1797978 |      1797978 |      3866208 |      3866208 |      4018572 |      4018572 |      8298310 |      8298310 |      8236634 |      8236634 |     17785076 |     17785076 |     18168971 |     18168971 |
dl1.replacements                              5151 |         5151 |         6685 |         6685 |        12358 |        12358 |        13945 |        13945 |        28949 |        28949 |        34332 |        34332 |        66831 |        66831 |        71560 |        71560 |       151830 |       151830 |       169429 |       169429 |       339263 |       339263 |       351027 |       351027 |       751402 |       751402 |       807913 |       807913 |      1783854 |      1783854 |      1797722 |      1797722 |      3865952 |      3865952 |      4018316 |      4018316 |      8298054 |      8298054 |      8236378 |      8236378 |     17784820 |     17784820 |     18168715 |     18168715 |
dl1.writebacks                                3500 |         3500 |         5053 |         5053 |         7787 |         7787 |         9774 |         9774 |        17421 |        17421 |        23394 |        23394 |        38842 |        38842 |        46395 |        46395 |        86056 |        86056 |       109021 |       109021 |       188882 |       188882 |       217351 |       217351 |       412447 |       412447 |       500429 |       500429 |       960562 |       960562 |      1065860 |      1065860 |      2060562 |      2060562 |      2394774 |      2394774 |      4393456 |      4393456 |      4785538 |      4785538 |      9348239 |      9348239 |     10626740 |     10626740 |
dl1.invalidations                                0 |            0 |            0 |            0 |            0 |            0 |            0 |            0 |            0 |            0 |            0 |            0 |            0 |            0 |            0 |            0 |            0 |            0 |            0 |            0 |            0 |            0 |            0 |            0 |            0 |            0 |            0 |            0 |            0 |            0 |            0 |            0 |            0 |            0 |            0 |            0 |            0 |            0 |            0 |            0 |            0 |            0 |            0 |            0 |
dl1.miss_rate                               0.0221 |       0.0221 |       0.0283 |       0.0283 |       0.0250 |       0.0250 |       0.0281 |       0.0281 |       0.0261 |       0.0261 |       0.0310 |       0.0310 |       0.0291 |       0.0291 |       0.0312 |       0.0312 |       0.0301 |       0.0301 |       0.0336 |       0.0336 |       0.0327 |       0.0327 |       0.0338 |       0.0338 |       0.0334 |       0.0334 |       0.0359 |       0.0359 |       0.0373 |       0.0373 |       0.0376 |       0.0376 |       0.0376 |       0.0376 |       0.0391 |       0.0391 |       0.0395 |       0.0395 |       0.0392 |       0.0392 |       0.0396 |       0.0396 |       0.0405 |       0.0405 |
dl1.repl_rate                               0.0210 |       0.0210 |       0.0273 |       0.0273 |       0.0245 |       0.0245 |       0.0276 |       0.0276 |       0.0259 |       0.0259 |       0.0307 |       0.0307 |       0.0290 |       0.0290 |       0.0311 |       0.0311 |       0.0301 |       0.0301 |       0.0336 |       0.0336 |       0.0327 |       0.0327 |       0.0338 |       0.0338 |       0.0333 |       0.0333 |       0.0359 |       0.0359 |       0.0373 |       0.0373 |       0.0376 |       0.0376 |       0.0376 |       0.0376 |       0.0391 |       0.0391 |       0.0395 |       0.0395 |       0.0392 |       0.0392 |       0.0396 |       0.0396 |       0.0405 |       0.0405 |
dl1.wb_rate                                 0.0143 |       0.0143 |       0.0206 |       0.0206 |       0.0154 |       0.0154 |       0.0193 |       0.0193 |       0.0156 |       0.0156 |       0.0209 |       0.0209 |       0.0169 |       0.0169 |       0.0201 |       0.0201 |       0.0171 |       0.0171 |       0.0216 |       0.0216 |       0.0182 |       0.0182 |       0.0209 |       0.0209 |       0.0183 |       0.0183 |       0.0222 |       0.0222 |       0.0201 |       0.0201 |       0.0223 |       0.0223 |       0.0201 |       0.0201 |       0.0233 |       0.0233 |       0.0209 |       0.0209 |       0.0228 |       0.0228 |       0.0208 |       0.0208 |       0.0237 |       0.0237 |
dl1.inv_rate                                0.0000 |       0.0000 |       0.0000 |       0.0000 |       0.0000 |       0.0000 |       0.0000 |       0.0000 |       0.0000 |       0.0000 |       0.0000 |       0.0000 |       0.0000 |       0.0000 |       0.0000 |       0.0000 |       0.0000 |       0.0000 |       0.0000 |       0.0000 |       0.0000 |       0.0000 |       0.0000 |       0.0000 |       0.0000 |       0.0000 |       0.0000 |       0.0000 |       0.0000 |       0.0000 |       0.0000 |       0.0000 |       0.0000 |       0.0000 |       0.0000 |       0.0000 |       0.0000 |       0.0000 |       0.0000 |       0.0000 |       0.0000 |       0.0000 |       0.0000 |       0.0000 |
dl2.accesses                                  9576 |         9576 |        12568 |        12568 |        21091 |        21091 |        24573 |        24573 |        47299 |        47299 |        58555 |        58555 |       106619 |       106619 |       118809 |       118809 |       238816 |       238816 |       279284 |       279284 |       529093 |       529093 |       569233 |       569233 |      1164777 |      1164777 |      1309174 |      1309174 |      2746951 |      2746951 |      2864511 |      2864511 |      5930575 |      5930575 |      6414001 |      6414001 |     12698689 |     12698689 |     13022845 |     13022845 |     27146384 |     27146384 |     28796366 |     28796366 |
dl2.hits                                      7599 |         7599 |        10609 |        10609 |        18070 |        18070 |        21571 |        21571 |        42251 |        42251 |        53525 |        53525 |        97454 |        97454 |       109662 |       109662 |       221475 |       221475 |       261961 |       261961 |       495351 |       495351 |       535510 |       535510 |      1098286 |      1095749 |      1242702 |      1205859 |      2505219 |      2335122 |      2697231 |      2342667 |      4946380 |      4739801 |      5232531 |      5110913 |      9815920 |      9793478 |     10136585 |      9894924 |     20289541 |     20288368 |     21976397 |     21493296 |
dl2.misses                                    1977 |         1977 |         1959 |         1959 |         3021 |         3021 |         3002 |         3002 |         5048 |         5048 |         5030 |         5030 |         9165 |         9165 |         9147 |         9147 |        17341 |        17341 |        17323 |        17323 |        33742 |        33742 |        33723 |        33723 |        66491 |        69028 |        66472 |       103315 |       241732 |       411829 |       167280 |       521844 |       984195 |      1190774 |      1181470 |      1303088 |      2882769 |      2905211 |      2886260 |      3127921 |      6856843 |      6858016 |      6819969 |      7303070 |
dl2.replacements                               165 |          165 |            0 |            0 |          184 |          184 |            0 |            0 |          166 |          166 |            0 |            0 |          184 |          184 |            0 |            0 |          168 |          168 |            0 |            0 |          184 |          184 |            0 |            0 |          167 |         3609 |            0 |        37779 |       141887 |       346293 |        36208 |       456308 |       853123 |      1125238 |      1050398 |      1237552 |      2751697 |      2839675 |      2755188 |      3062385 |      6725771 |      6792480 |      6688897 |      7237534 |
dl2.writebacks                                 114 |          114 |            0 |            0 |          131 |          131 |            0 |            0 |          114 |          114 |            0 |            0 |          131 |          131 |            0 |            0 |          115 |          115 |            0 |            0 |          131 |          131 |            0 |            0 |          114 |         2211 |            0 |        37305 |        98217 |       267293 |        35741 |       357235 |       727965 |       760026 |       722136 |       876251 |      1813589 |      1813747 |      1771483 |      2045530 |      4184468 |      4184796 |      4132322 |      4647461 |
dl2.invalidations                                0 |            0 |            0 |            0 |            0 |            0 |            0 |            0 |            0 |            0 |            0 |            0 |            0 |            0 |            0 |            0 |            0 |            0 |            0 |            0 |            0 |            0 |            0 |            0 |            0 |            0 |            0 |            0 |            0 |            0 |            0 |            0 |            0 |            0 |            0 |            0 |            0 |            0 |            0 |            0 |            0 |            0 |            0 |            0 |
dl2.miss_rate                               0.2065 |       0.2065 |       0.1559 |       0.1559 |       0.1432 |       0.1432 |       0.1222 |       0.1222 |       0.1067 |       0.1067 |       0.0859 |       0.0859 |       0.0860 |       0.0860 |       0.0770 |       0.0770 |       0.0726 |       0.0726 |       0.0620 |       0.0620 |       0.0638 |       0.0638 |       0.0592 |       0.0592 |       0.0571 |       0.0593 |       0.0508 |       0.0789 |       0.0880 |       0.1499 |       0.0584 |       0.1822 |       0.1660 |       0.2008 |       0.1842 |       0.2032 |       0.2270 |       0.2288 |       0.2216 |       0.2402 |       0.2526 |       0.2526 |       0.2368 |       0.2536 |
dl2.repl_rate                               0.0172 |       0.0172 |       0.0000 |       0.0000 |       0.0087 |       0.0087 |       0.0000 |       0.0000 |       0.0035 |       0.0035 |       0.0000 |       0.0000 |       0.0017 |       0.0017 |       0.0000 |       0.0000 |       0.0007 |       0.0007 |       0.0000 |       0.0000 |       0.0003 |       0.0003 |       0.0000 |       0.0000 |       0.0001 |       0.0031 |       0.0000 |       0.0289 |       0.0517 |       0.1261 |       0.0126 |       0.1593 |       0.1439 |       0.1897 |       0.1638 |       0.1929 |       0.2167 |       0.2236 |       0.2116 |       0.2352 |       0.2478 |       0.2502 |       0.2323 |       0.2513 |
dl2.wb_rate                                 0.0119 |       0.0119 |       0.0000 |       0.0000 |       0.0062 |       0.0062 |       0.0000 |       0.0000 |       0.0024 |       0.0024 |       0.0000 |       0.0000 |       0.0012 |       0.0012 |       0.0000 |       0.0000 |       0.0005 |       0.0005 |       0.0000 |       0.0000 |       0.0002 |       0.0002 |       0.0000 |       0.0000 |       0.0001 |       0.0019 |       0.0000 |       0.0285 |       0.0358 |       0.0973 |       0.0125 |       0.1247 |       0.1227 |       0.1282 |       0.1126 |       0.1366 |       0.1428 |       0.1428 |       0.1360 |       0.1571 |       0.1541 |       0.1542 |       0.1435 |       0.1614 |
dl2.inv_rate                                0.0000 |       0.0000 |       0.0000 |       0.0000 |       0.0000 |       0.0000 |       0.0000 |       0.0000 |       0.0000 |       0.0000 |       0.0000 |       0.0000 |       0.0000 |       0.0000 |       0.0000 |       0.0000 |       0.0000 |       0.0000 |       0.0000 |       0.0000 |       0.0000 |       0.0000 |       0.0000 |       0.0000 |       0.0000 |       0.0000 |       0.0000 |       0.0000 |       0.0000 |       0.0000 |       0.0000 |       0.0000 |       0.0000 |       0.0000 |       0.0000 |       0.0000 |       0.0000 |       0.0000 |       0.0000 |       0.0000 |       0.0000 |       0.0000 |       0.0000 |       0.0000 |
itlb.accesses                               858476 |       858476 |       858476 |       858476 |      1751907 |      1751907 |      1751907 |      1751907 |      3960244 |      3960244 |      3960244 |      3960244 |      8067479 |      8067479 |      8067479 |      8067479 |     17982600 |     17982600 |     17982600 |     17982600 |     36563230 |     36563230 |     36563230 |     36563230 |     80551890 |     80551890 |     80551890 |     80551890 |    168418117 |    168418117 |    168418117 |    168418117 |    366490643 |    366490643 |    366490643 |    366490643 |    742848748 |    742848748 |    742848748 |    742848748 |   1604571407 |   1604571407 |   1604571407 |   1604571407 |
itlb.hits                                   858464 |       858464 |       858464 |       858464 |      1751895 |      1751895 |      1751895 |      1751895 |      3960232 |      3960232 |      3960232 |      3960232 |      8067467 |      8067467 |      8067467 |      8067467 |     17982588 |     17982588 |     17982588 |     17982588 |     36563218 |     36563218 |     36563218 |     36563218 |     80551878 |     80551878 |     80551878 |     80551878 |    168418105 |    168418105 |    168418105 |    168418105 |    366490631 |    366490631 |    366490631 |    366490631 |    742848736 |    742848736 |    742848736 |    742848736 |   1604571395 |   1604571395 |   1604571395 |   1604571395 |
itlb.misses                                     12 |           12 |           12 |           12 |           12 |           12 |           12 |           12 |           12 |           12 |           12 |           12 |           12 |           12 |           12 |           12 |           12 |           12 |           12 |           12 |           12 |           12 |           12 |           12 |           12 |           12 |           12 |           12 |           12 |           12 |           12 |           12 |           12 |           12 |           12 |           12 |           12 |           12 |           12 |           12 |           12 |           12 |           12 |           12 |
itlb.replacements                                0 |            0 |            0 |            0 |            0 |            0 |            0 |            0 |            0 |            0 |            0 |            0 |            0 |            0 |            0 |            0 |            0 |            0 |            0 |            0 |            0 |            0 |            0 |            0 |            0 |            0 |            0 |            0 |            0 |            0 |            0 |            0 |            0 |            0 |            0 |            0 |            0 |            0 |            0 |            0 |            0 |            0 |            0 |            0 |
itlb.writebacks                                  0 |            0 |            0 |            0 |            0 |            0 |            0 |            0 |            0 |            0 |            0 |            0 |            0 |            0 |            0 |            0 |            0 |            0 |            0 |            0 |            0 |            0 |            0 |            0 |            0 |            0 |            0 |            0 |            0 |            0 |            0 |            0 |            0 |            0 |            0 |            0 |            0 |            0 |            0 |            0 |            0 |            0 |            0 |            0 |
itlb.invalidations                               0 |            0 |            0 |            0 |            0 |            0 |            0 |            0 |            0 |            0 |            0 |            0 |            0 |            0 |            0 |            0 |            0 |            0 |            0 |            0 |            0 |            0 |            0 |            0 |            0 |            0 |            0 |            0 |            0 |            0 |            0 |            0 |            0 |            0 |            0 |            0 |            0 |            0 |            0 |            0 |            0 |            0 |            0 |            0 |
itlb.miss_rate                              0.0000 |       0.0000 |       0.0000 |       0.0000 |       0.0000 |       0.0000 |       0.0000 |       0.0000 |       0.0000 |       0.0000 |       0.0000 |       0.0000 |       0.0000 |       0.0000 |       0.0000 |       0.0000 |       0.0000 |       0.0000 |       0.0000 |       0.0000 |       0.0000 |       0.0000 |       0.0000 |       0.0000 |       0.0000 |       0.0000 |       0.0000 |       0.0000 |       0.0000 |       0.0000 |       0.0000 |       0.0000 |       0.0000 |       0.0000 |       0.0000 |       0.0000 |       0.0000 |       0.0000 |       0.0000 |       0.0000 |       0.0000 |       0.0000 |       0.0000 |       0.0000 |
itlb.repl_rate                              0.0000 |       0.0000 |       0.0000 |       0.0000 |       0.0000 |       0.0000 |       0.0000 |       0.0000 |       0.0000 |       0.0000 |       0.0000 |       0.0000 |       0.0000 |       0.0000 |       0.0000 |       0.0000 |       0.0000 |       0.0000 |       0.0000 |       0.0000 |       0.0000 |       0.0000 |       0.0000 |       0.0000 |       0.0000 |       0.0000 |       0.0000 |       0.0000 |       0.0000 |       0.0000 |       0.0000 |       0.0000 |       0.0000 |       0.0000 |       0.0000 |       0.0000 |       0.0000 |       0.0000 |       0.0000 |       0.0000 |       0.0000 |       0.0000 |       0.0000 |       0.0000 |
itlb.wb_rate                                0.0000 |       0.0000 |       0.0000 |       0.0000 |       0.0000 |       0.0000 |       0.0000 |       0.0000 |       0.0000 |       0.0000 |       0.0000 |       0.0000 |       0.0000 |       0.0000 |       0.0000 |       0.0000 |       0.0000 |       0.0000 |       0.0000 |       0.0000 |       0.0000 |       0.0000 |       0.0000 |       0.0000 |       0.0000 |       0.0000 |       0.0000 |       0.0000 |       0.0000 |       0.0000 |       0.0000 |       0.0000 |       0.0000 |       0.0000 |       0.0000 |       0.0000 |       0.0000 |       0.0000 |       0.0000 |       0.0000 |       0.0000 |       0.0000 |       0.0000 |       0.0000 |
itlb.inv_rate                               0.0000 |       0.0000 |       0.0000 |       0.0000 |       0.0000 |       0.0000 |       0.0000 |       0.0000 |       0.0000 |       0.0000 |       0.0000 |       0.0000 |       0.0000 |       0.0000 |       0.0000 |       0.0000 |       0.0000 |       0.0000 |       0.0000 |       0.0000 |       0.0000 |       0.0000 |       0.0000 |       0.0000 |       0.0000 |       0.0000 |       0.0000 |       0.0000 |       0.0000 |       0.0000 |       0.0000 |       0.0000 |       0.0000 |       0.0000 |       0.0000 |       0.0000 |       0.0000 |       0.0000 |       0.0000 |       0.0000 |       0.0000 |       0.0000 |       0.0000 |       0.0000 |
dtlb.accesses                               245119 |       245119 |       245119 |       245119 |       505141 |       505141 |       505141 |       505141 |      1117250 |      1117250 |      1117250 |      1117250 |      2303233 |      2303233 |      2303233 |      2303233 |      5046934 |      5046934 |      5046934 |      5046934 |     10377788 |     10377788 |     10377788 |     10377788 |     22532964 |     22532964 |     22532964 |     22532964 |     47802643 |     47802643 |     47802643 |     47802643 |    102706990 |    102706990 |    102706990 |    102706990 |    210051301 |    210051301 |    210051301 |    210051301 |    448591226 |    448591226 |    448591226 |    448591226 |
dtlb.hits                                   245103 |       245103 |       245103 |       245103 |       505117 |       505117 |       505117 |       505117 |      1117210 |      1117210 |      1117210 |      1117210 |      2303161 |      2303161 |      2303161 |      2303161 |      5046732 |      5046732 |      5046732 |      5046732 |     10375362 |     10375362 |     10375362 |     10375362 |     22527550 |     22527550 |     22527550 |     22527550 |     47789894 |     47789894 |     47789894 |     47789894 |    102679458 |    102679458 |    102679458 |    102679458 |    209992155 |    209992155 |    209992155 |    209992155 |    448464744 |    448464744 |    448464744 |    448464744 |
dtlb.misses                                     16 |           16 |           16 |           16 |           24 |           24 |           24 |           24 |           40 |           40 |           40 |           40 |           72 |           72 |           72 |           72 |          202 |          202 |          202 |          202 |         2426 |         2426 |         2426 |         2426 |         5414 |         5414 |         5414 |         5414 |        12749 |        12749 |        12749 |        12749 |        27532 |        27532 |        27532 |        27532 |        59146 |        59146 |        59146 |        59146 |       126482 |       126482 |       126482 |       126482 |
dtlb.replacements                                0 |            0 |            0 |            0 |            0 |            0 |            0 |            0 |            0 |            0 |            0 |            0 |            0 |            0 |            0 |            0 |           74 |           74 |           74 |           74 |         2298 |         2298 |         2298 |         2298 |         5286 |         5286 |         5286 |         5286 |        12621 |        12621 |        12621 |        12621 |        27404 |        27404 |        27404 |        27404 |        59018 |        59018 |        59018 |        59018 |       126354 |       126354 |       126354 |       126354 |
dtlb.writebacks                                  0 |            0 |            0 |            0 |            0 |            0 |            0 |            0 |            0 |            0 |            0 |            0 |            0 |            0 |            0 |            0 |           50 |           50 |           50 |           50 |         1335 |         1335 |         1335 |         1335 |         3030 |         3030 |         3030 |         3030 |         7085 |         7085 |         7085 |         7085 |        15249 |        15249 |        15249 |        15249 |        32598 |        32598 |        32598 |        32598 |        69359 |        69359 |        69359 |        69359 |
dtlb.invalidations                               0 |            0 |            0 |            0 |            0 |            0 |            0 |            0 |            0 |            0 |            0 |            0 |            0 |            0 |            0 |            0 |            0 |            0 |            0 |            0 |            0 |            0 |            0 |            0 |            0 |            0 |            0 |            0 |            0 |            0 |            0 |            0 |            0 |            0 |            0 |            0 |            0 |            0 |            0 |            0 |            0 |            0 |            0 |            0 |
dtlb.miss_rate                              0.0001 |       0.0001 |       0.0001 |       0.0001 |       0.0000 |       0.0000 |       0.0000 |       0.0000 |       0.0000 |       0.0000 |       0.0000 |       0.0000 |       0.0000 |       0.0000 |       0.0000 |       0.0000 |       0.0000 |       0.0000 |       0.0000 |       0.0000 |       0.0002 |       0.0002 |       0.0002 |       0.0002 |       0.0002 |       0.0002 |       0.0002 |       0.0002 |       0.0003 |       0.0003 |       0.0003 |       0.0003 |       0.0003 |       0.0003 |       0.0003 |       0.0003 |       0.0003 |       0.0003 |       0.0003 |       0.0003 |       0.0003 |       0.0003 |       0.0003 |       0.0003 |
dtlb.repl_rate                              0.0000 |       0.0000 |       0.0000 |       0.0000 |       0.0000 |       0.0000 |       0.0000 |       0.0000 |       0.0000 |       0.0000 |       0.0000 |       0.0000 |       0.0000 |       0.0000 |       0.0000 |       0.0000 |       0.0000 |       0.0000 |       0.0000 |       0.0000 |       0.0002 |       0.0002 |       0.0002 |       0.0002 |       0.0002 |       0.0002 |       0.0002 |       0.0002 |       0.0003 |       0.0003 |       0.0003 |       0.0003 |       0.0003 |       0.0003 |       0.0003 |       0.0003 |       0.0003 |       0.0003 |       0.0003 |       0.0003 |       0.0003 |       0.0003 |       0.0003 |       0.0003 |
dtlb.wb_rate                                0.0000 |       0.0000 |       0.0000 |       0.0000 |       0.0000 |       0.0000 |       0.0000 |       0.0000 |       0.0000 |       0.0000 |       0.0000 |       0.0000 |       0.0000 |       0.0000 |       0.0000 |       0.0000 |       0.0000 |       0.0000 |       0.0000 |       0.0000 |       0.0001 |       0.0001 |       0.0001 |       0.0001 |       0.0001 |       0.0001 |       0.0001 |       0.0001 |       0.0001 |       0.0001 |       0.0001 |       0.0001 |       0.0001 |       0.0001 |       0.0001 |       0.0001 |       0.0002 |       0.0002 |       0.0002 |       0.0002 |       0.0002 |       0.0002 |       0.0002 |       0.0002 |
dtlb.inv_rate                               0.0000 |       0.0000 |       0.0000 |       0.0000 |       0.0000 |       0.0000 |       0.0000 |       0.0000 |       0.0000 |       0.0000 |       0.0000 |       0.0000 |       0.0000 |       0.0000 |       0.0000 |       0.0000 |       0.0000 |       0.0000 |       0.0000 |       0.0000 |       0.0000 |       0.0000 |       0.0000 |       0.0000 |       0.0000 |       0.0000 |       0.0000 |       0.0000 |       0.0000 |       0.0000 |       0.0000 |       0.0000 |       0.0000 |       0.0000 |       0.0000 |       0.0000 |       0.0000 |       0.0000 |       0.0000 |       0.0000 |       0.0000 |       0.0000 |       0.0000 |       0.0000 |
ld_text_base                            0x00400000 |   0x00400000 |   0x00400000 |   0x00400000 |   0x00400000 |   0x00400000 |   0x00400000 |   0x00400000 |   0x00400000 |   0x00400000 |   0x00400000 |   0x00400000 |   0x00400000 |   0x00400000 |   0x00400000 |   0x00400000 |   0x00400000 |   0x00400000 |   0x00400000 |   0x00400000 |   0x00400000 |   0x00400000 |   0x00400000 |   0x00400000 |   0x00400000 |   0x00400000 |   0x00400000 |   0x00400000 |   0x00400000 |   0x00400000 |   0x00400000 |   0x00400000 |   0x00400000 |   0x00400000 |   0x00400000 |   0x00400000 |   0x00400000 |   0x00400000 |   0x00400000 |   0x00400000 |   0x00400000 |   0x00400000 |   0x00400000 |   0x00400000 |
ld_text_size                                 87648 |        87648 |        87648 |        87648 |        87680 |        87680 |        87680 |        87680 |        87696 |        87696 |        87696 |        87696 |        87712 |        87712 |        87712 |        87712 |        87712 |        87712 |        87712 |        87712 |        87712 |        87712 |        87712 |        87712 |        87712 |        87712 |        87712 |        87712 |        87712 |        87712 |        87712 |        87712 |        87712 |        87712 |        87712 |        87712 |        87712 |        87712 |        87712 |        87712 |        87712 |        87712 |        87712 |        87712 |
ld_data_base                            0x10000000 |   0x10000000 |   0x10000000 |   0x10000000 |   0x10000000 |   0x10000000 |   0x10000000 |   0x10000000 |   0x10000000 |   0x10000000 |   0x10000000 |   0x10000000 |   0x10000000 |   0x10000000 |   0x10000000 |   0x10000000 |   0x10000000 |   0x10000000 |   0x10000000 |   0x10000000 |   0x10000000 |   0x10000000 |   0x10000000 |   0x10000000 |   0x10000000 |   0x10000000 |   0x10000000 |   0x10000000 |   0x10000000 |   0x10000000 |   0x10000000 |   0x10000000 |   0x10000000 |   0x10000000 |   0x10000000 |   0x10000000 |   0x10000000 |   0x10000000 |   0x10000000 |   0x10000000 |   0x10000000 |   0x10000000 |   0x10000000 |   0x10000000 |
ld_data_size                                  8192 |         8192 |         8192 |         8192 |         8192 |         8192 |         8192 |         8192 |         8192 |         8192 |         8192 |         8192 |         8192 |         8192 |         8192 |         8192 |         8192 |         8192 |         8192 |         8192 |         8192 |         8192 |         8192 |         8192 |         8192 |         8192 |         8192 |         8192 |         8192 |         8192 |         8192 |         8192 |         8192 |         8192 |         8192 |         8192 |         8192 |         8192 |         8192 |         8192 |         8192 |         8192 |         8192 |         8192 |
ld_stack_base                           0x7fffc000 |   0x7fffc000 |   0x7fffc000 |   0x7fffc000 |   0x7fffc000 |   0x7fffc000 |   0x7fffc000 |   0x7fffc000 |   0x7fffc000 |   0x7fffc000 |   0x7fffc000 |   0x7fffc000 |   0x7fffc000 |   0x7fffc000 |   0x7fffc000 |   0x7fffc000 |   0x7fffc000 |   0x7fffc000 |   0x7fffc000 |   0x7fffc000 |   0x7fffc000 |   0x7fffc000 |   0x7fffc000 |   0x7fffc000 |   0x7fffc000 |   0x7fffc000 |   0x7fffc000 |   0x7fffc000 |   0x7fffc000 |   0x7fffc000 |   0x7fffc000 |   0x7fffc000 |   0x7fffc000 |   0x7fffc000 |   0x7fffc000 |   0x7fffc000 |   0x7fffc000 |   0x7fffc000 |   0x7fffc000 |   0x7fffc000 |   0x7fffc000 |   0x7fffc000 |   0x7fffc000 |   0x7fffc000 |
ld_stack_size                                16384 |        16384 |        16384 |        16384 |        16384 |        16384 |        16384 |        16384 |        16384 |        16384 |        16384 |        16384 |        16384 |        16384 |        16384 |        16384 |        16384 |        16384 |        16384 |        16384 |        16384 |        16384 |        16384 |        16384 |        16384 |        16384 |        16384 |        16384 |        16384 |        16384 |        16384 |        16384 |        16384 |        16384 |        16384 |        16384 |        16384 |        16384 |        16384 |        16384 |        16384 |        16384 |        16384 |        16384 |
ld_prog_entry                           0x00400140 |   0x00400140 |   0x00400140 |   0x00400140 |   0x00400140 |   0x00400140 |   0x00400140 |   0x00400140 |   0x00400140 |   0x00400140 |   0x00400140 |   0x00400140 |   0x00400140 |   0x00400140 |   0x00400140 |   0x00400140 |   0x00400140 |   0x00400140 |   0x00400140 |   0x00400140 |   0x00400140 |   0x00400140 |   0x00400140 |   0x00400140 |   0x00400140 |   0x00400140 |   0x00400140 |   0x00400140 |   0x00400140 |   0x00400140 |   0x00400140 |   0x00400140 |   0x00400140 |   0x00400140 |   0x00400140 |   0x00400140 |   0x00400140 |   0x00400140 |   0x00400140 |   0x00400140 |   0x00400140 |   0x00400140 |   0x00400140 |   0x00400140 |
ld_environ_base                         0x7fff8000 |   0x7fff8000 |   0x7fff8000 |   0x7fff8000 |   0x7fff8000 |   0x7fff8000 |   0x7fff8000 |   0x7fff8000 |   0x7fff8000 |   0x7fff8000 |   0x7fff8000 |   0x7fff8000 |   0x7fff8000 |   0x7fff8000 |   0x7fff8000 |   0x7fff8000 |   0x7fff8000 |   0x7fff8000 |   0x7fff8000 |   0x7fff8000 |   0x7fff8000 |   0x7fff8000 |   0x7fff8000 |   0x7fff8000 |   0x7fff8000 |   0x7fff8000 |   0x7fff8000 |   0x7fff8000 |   0x7fff8000 |   0x7fff8000 |   0x7fff8000 |   0x7fff8000 |   0x7fff8000 |   0x7fff8000 |   0x7fff8000 |   0x7fff8000 |   0x7fff8000 |   0x7fff8000 |   0x7fff8000 |   0x7fff8000 |   0x7fff8000 |   0x7fff8000 |   0x7fff8000 |   0x7fff8000 |
ld_target_big_endian                             0 |            0 |            0 |            0 |            0 |            0 |            0 |            0 |            0 |            0 |            0 |            0 |            0 |            0 |            0 |            0 |            0 |            0 |            0 |            0 |            0 |            0 |            0 |            0 |            0 |            0 |            0 |            0 |            0 |            0 |            0 |            0 |            0 |            0 |            0 |            0 |            0 |            0 |            0 |            0 |            0 |            0 |            0 |            0 |
mem.page_count                                  38 |           38 |           38 |           38 |           46 |           46 |           46 |           46 |           62 |           62 |           62 |           62 |           94 |           94 |           94 |           94 |          158 |          158 |          158 |          158 |          286 |          286 |          286 |          286 |          542 |          542 |          542 |          542 |         1060 |         1060 |         1060 |         1060 |         2084 |         2084 |         2084 |         2084 |         4138 |         4138 |         4138 |         4138 |         8246 |         8246 |         8246 |         8246 |
mem.page_mem                                  152k |         152k |         152k |         152k |         184k |         184k |         184k |         184k |         248k |         248k |         248k |         248k |         376k |         376k |         376k |         376k |         632k |         632k |         632k |         632k |        1144k |        1144k |        1144k |        1144k |        2168k |        2168k |        2168k |        2168k |        4240k |        4240k |        4240k |        4240k |        8336k |        8336k |        8336k |        8336k |       16552k |       16552k |       16552k |       16552k |       32984k |       32984k |       32984k |       32984k |
mem.ptab_misses                                 38 |           38 |           38 |           38 |           46 |           46 |           46 |           46 |           62 |           62 |           62 |           62 |           94 |           94 |           94 |           94 |          158 |          158 |          158 |          158 |          286 |          286 |          286 |          286 |          542 |          542 |          542 |          542 |         1078 |         1078 |         1078 |         1078 |       110310 |       110310 |       110310 |       110310 |       114612 |       114612 |       114612 |       114612 |       125786 |       125786 |       125786 |       125786 |
mem.ptab_accesses                          4464658 |      4464658 |      4464658 |      4464658 |      8558618 |      8558618 |      8558618 |      8558618 |     18616280 |     18616280 |     18616280 |     18616280 |     37417282 |     37417282 |     37417282 |     37417282 |     82565168 |     82565168 |     82565168 |     82565168 |    167549396 |    167549396 |    167549396 |    167549396 |    367814388 |    367814388 |    367814388 |    367814388 |    769818654 |    769818654 |    769818654 |    769818654 |   1671917452 |   1671917452 |   1671917452 |   1671917452 |   3392038494 |   3392038494 |   3392038494 |   3392038494 |   7316008980 |   7316008980 |   7316008980 |   7316008980 |
mem.ptab_miss_rate                          0.0000 |       0.0000 |       0.0000 |       0.0000 |       0.0000 |       0.0000 |       0.0000 |       0.0000 |       0.0000 |       0.0000 |       0.0000 |       0.0000 |       0.0000 |       0.0000 |       0.0000 |       0.0000 |       0.0000 |       0.0000 |       0.0000 |       0.0000 |       0.0000 |       0.0000 |       0.0000 |       0.0000 |       0.0000 |       0.0000 |       0.0000 |       0.0000 |       0.0000 |       0.0000 |       0.0000 |       0.0000 |       0.0001 |       0.0001 |       0.0001 |       0.0001 |       0.0000 |       0.0000 |       0.0000 |       0.0000 |       0.0000 |       0.0000 |       0.0000 |       0.0000 |
-------------------------------------------------------------------------------------------------
sim-bpred                                     4096 |         4096 |         4096 |         4096 |         4096 |         4096 |         4096 |         8192 |         8192 |         8192 |         8192 |         8192 |         8192 |         8192 |        16384 |        16384 |        16384 |        16384 |        16384 |        16384 |        16384 |        32768 |        32768 |        32768 |        32768 |        32768 |        32768 |        32768 |        65536 |        65536 |        65536 |        65536 |        65536 |        65536 |        65536 |       131072 |       131072 |       131072 |       131072 |       131072 |       131072 |       131072 |       262144 |       262144 |       262144 |       262144 |       262144 |       262144 |       262144 |       524288 |       524288 |       524288 |       524288 |       524288 |       524288 |       524288 |      1048576 |      1048576 |      1048576 |      1048576 |      1048576 |      1048576 |      1048576 |      2097152 |      2097152 |      2097152 |      2097152 |      2097152 |      2097152 |      2097152 |      4194304 |      4194304 |      4194304 |      4194304 |      4194304 |      4194304 |      4194304 |
-bpred bimod -bpred:bimod 512
-bpred bimod -bpred:bimod 1024
-bpred bimod -bpred:bimod 2048
-bpred 2lev -bpred:2lev 1 512 10 1
-bpred 2lev -bpred:2lev 1 1024 10 1
-bpred 2lev -bpred:2lev 1 2048 10 1
-bpred 2lev -bpred:2lev 1 4096 10 1
-------------------------------------------------------------------------------------------------
sim_num_insn                                858476 |       858476 |       858476 |       858476 |       858476 |       858476 |       858476 |      1751907 |      1751907 |      1751907 |      1751907 |      1751907 |      1751907 |      1751907 |      3960244 |      3960244 |      3960244 |      3960244 |      3960244 |      3960244 |      3960244 |      8067479 |      8067479 |      8067479 |      8067479 |      8067479 |      8067479 |      8067479 |     17982600 |     17982600 |     17982600 |     17982600 |     17982600 |     17982600 |     17982600 |     36563230 |     36563230 |     36563230 |     36563230 |     36563230 |     36563230 |     36563230 |     80551890 |     80551890 |     80551890 |     80551890 |     80551890 |     80551890 |     80551890 |    168418117 |    168418117 |    168418117 |    168418117 |    168418117 |    168418117 |    168418117 |    366490643 |    366490643 |    366490643 |    366490643 |    366490643 |    366490643 |    366490643 |    742848748 |    742848748 |    742848748 |    742848748 |    742848748 |    742848748 |    742848748 |   1604571407 |   1604571407 |   1604571407 |   1604571407 |   1604571407 |   1604571407 |   1604571407 |
sim_num_refs                                228653 |       228653 |       228653 |       228653 |       228653 |       228653 |       228653 |       472291 |       472291 |       472291 |       472291 |       472291 |       472291 |       472291 |      1051632 |      1051632 |      1051632 |      1051632 |      1051632 |      1051632 |      1051632 |      2172079 |      2172079 |      2172079 |      2172079 |      2172079 |      2172079 |      2172079 |      4784708 |      4784708 |      4784708 |      4784708 |      4784708 |      4784708 |      4784708 |      9853418 |      9853418 |      9853418 |      9853418 |      9853418 |      9853418 |      9853418 |     21484306 |     21484306 |     21484306 |     21484306 |     21484306 |     21484306 |     21484306 |     45705409 |     45705409 |     45705409 |     45705409 |     45705409 |     45705409 |     45705409 |     98512604 |     98512604 |     98512604 |     98512604 |     98512604 |     98512604 |     98512604 |    201662611 |    201662611 |    201662611 |    201662611 |    201662611 |    201662611 |    201662611 |    431813928 |    431813928 |    431813928 |    431813928 |    431813928 |    431813928 |    431813928 |
sim_elapsed_time                                 1 |            1 |            1 |            1 |            1 |            1 |            1 |            1 |            1 |            1 |            1 |            1 |            1 |            1 |            1 |            1 |            1 |            1 |            1 |            1 |            1 |            1 |            1 |            1 |            1 |            1 |            1 |            1 |            2 |            2 |            2 |            2 |            2 |            2 |            2 |            4 |            4 |            4 |            4 |            4 |            4 |            4 |            9 |            8 |            9 |            8 |            9 |            9 |            8 |           18 |           17 |           18 |           18 |           18 |           18 |           18 |           39 |           38 |           38 |           39 |           39 |           39 |           39 |           78 |           78 |           79 |           79 |           79 |           79 |           80 |          168 |          168 |          168 |          170 |          171 |          170 |          170 |
sim_inst_rate                          858476.0000 |  858476.0000 |  858476.0000 |  858476.0000 |  858476.0000 |  858476.0000 |  858476.0000 | 1751907.0000 | 1751907.0000 | 1751907.0000 | 1751907.0000 | 1751907.0000 | 1751907.0000 | 1751907.0000 | 3960244.0000 | 3960244.0000 | 3960244.0000 | 3960244.0000 | 3960244.0000 | 3960244.0000 | 3960244.0000 | 8067479.0000 | 8067479.0000 | 8067479.0000 | 8067479.0000 | 8067479.0000 | 8067479.0000 | 8067479.0000 | 8991300.0000 | 8991300.0000 | 8991300.0000 | 8991300.0000 | 8991300.0000 | 8991300.0000 | 8991300.0000 | 9140807.5000 | 9140807.5000 | 9140807.5000 | 9140807.5000 | 9140807.5000 | 9140807.5000 | 9140807.5000 | 8950210.0000 |10068986.2500 | 8950210.0000 |10068986.2500 | 8950210.0000 | 8950210.0000 |10068986.2500 | 9356562.0556 | 9906948.0588 | 9356562.0556 | 9356562.0556 | 9356562.0556 | 9356562.0556 | 9356562.0556 | 9397195.9744 | 9644490.6053 | 9644490.6053 | 9397195.9744 | 9397195.9744 | 9397195.9744 | 9397195.9744 | 9523701.8974 | 9523701.8974 | 9403148.7089 | 9403148.7089 | 9403148.7089 | 9403148.7089 | 9285609.3500 | 9551020.2798 | 9551020.2798 | 9551020.2798 | 9438655.3353 | 9383458.5205 | 9438655.3353 | 9438655.3353 |
sim_num_branches                            112741 |       112741 |       112741 |       112741 |       112741 |       112741 |       112741 |       236131 |       236131 |       236131 |       236131 |       236131 |       236131 |       236131 |       514851 |       514851 |       514851 |       514851 |       514851 |       514851 |       514851 |      1072747 |      1072747 |      1072747 |      1072747 |      1072747 |      1072747 |      1072747 |      2319450 |      2319450 |      2319450 |      2319450 |      2319450 |      2319450 |      2319450 |      4811354 |      4811354 |      4811354 |      4811354 |      4811354 |      4811354 |      4811354 |     10325065 |     10325065 |     10325065 |     10325065 |     10325065 |     10325065 |     10325065 |     21936150 |     21936150 |     21936150 |     21936150 |     21936150 |     21936150 |     21936150 |     46676964 |     46676964 |     46676964 |     46676964 |     46676964 |     46676964 |     46676964 |     96149136 |     96149136 |     96149136 |     96149136 |     96149136 |     96149136 |     96149136 |    203543556 |    203543556 |    203543556 |    203543556 |    203543556 |    203543556 |    203543556 |
sim_IPB                                     7.6146 |       7.6146 |       7.6146 |       7.6146 |       7.6146 |       7.6146 |       7.6146 |       7.4192 |       7.4192 |       7.4192 |       7.4192 |       7.4192 |       7.4192 |       7.4192 |       7.6920 |       7.6920 |       7.6920 |       7.6920 |       7.6920 |       7.6920 |       7.6920 |       7.5204 |       7.5204 |       7.5204 |       7.5204 |       7.5204 |       7.5204 |       7.5204 |       7.7530 |       7.7530 |       7.7530 |       7.7530 |       7.7530 |       7.7530 |       7.7530 |       7.5994 |       7.5994 |       7.5994 |       7.5994 |       7.5994 |       7.5994 |       7.5994 |       7.8016 |       7.8016 |       7.8016 |       7.8016 |       7.8016 |       7.8016 |       7.8016 |       7.6777 |       7.6777 |       7.6777 |       7.6777 |       7.6777 |       7.6777 |       7.6777 |       7.8516 |       7.8516 |       7.8516 |       7.8516 |       7.8516 |       7.8516 |       7.8516 |       7.7260 |       7.7260 |       7.7260 |       7.7260 |       7.7260 |       7.7260 |       7.7260 |       7.8832 |       7.8832 |       7.8832 |       7.8832 |       7.8832 |       7.8832 |       7.8832 |
bpred_bimod.lookups                         112741 |       112741 |       112741 |xxxxxxxxxxxxx |xxxxxxxxxxxxx |xxxxxxxxxxxxx |xxxxxxxxxxxxx |       236131 |       236131 |       236131 |xxxxxxxxxxxxx |xxxxxxxxxxxxx |xxxxxxxxxxxxx |xxxxxxxxxxxxx |       514851 |       514851 |       514851 |xxxxxxxxxxxxx |xxxxxxxxxxxxx |xxxxxxxxxxxxx |xxxxxxxxxxxxx |      1072747 |      1072747 |      1072747 |xxxxxxxxxxxxx |xxxxxxxxxxxxx |xxxxxxxxxxxxx |xxxxxxxxxxxxx |      2319450 |      2319450 |      2319450 |xxxxxxxxxxxxx |xxxxxxxxxxxxx |xxxxxxxxxxxxx |xxxxxxxxxxxxx |      4811354 |      4811354 |      4811354 |xxxxxxxxxxxxx |xxxxxxxxxxxxx |xxxxxxxxxxxxx |xxxxxxxxxxxxx |     10325065 |     10325065 |     10325065 |xxxxxxxxxxxxx |xxxxxxxxxxxxx |xxxxxxxxxxxxx |xxxxxxxxxxxxx |     21936150 |     21936150 |     21936150 |xxxxxxxxxxxxx |xxxxxxxxxxxxx |xxxxxxxxxxxxx |xxxxxxxxxxxxx |     46676964 |     46676964 |     46676964 |xxxxxxxxxxxxx |xxxxxxxxxxxxx |xxxxxxxxxxxxx |xxxxxxxxxxxxx |     96149136 |     96149136 |     96149136 |xxxxxxxxxxxxx |xxxxxxxxxxxxx |xxxxxxxxxxxxx |xxxxxxxxxxxxx |    203543556 |    203543556 |    203543556 |
bpred_bimod.updates                         112741 |       112741 |       112741 |xxxxxxxxxxxxx |xxxxxxxxxxxxx |xxxxxxxxxxxxx |xxxxxxxxxxxxx |       236131 |       236131 |       236131 |xxxxxxxxxxxxx |xxxxxxxxxxxxx |xxxxxxxxxxxxx |xxxxxxxxxxxxx |       514851 |       514851 |       514851 |xxxxxxxxxxxxx |xxxxxxxxxxxxx |xxxxxxxxxxxxx |xxxxxxxxxxxxx |      1072747 |      1072747 |      1072747 |xxxxxxxxxxxxx |xxxxxxxxxxxxx |xxxxxxxxxxxxx |xxxxxxxxxxxxx |      2319450 |      2319450 |      2319450 |xxxxxxxxxxxxx |xxxxxxxxxxxxx |xxxxxxxxxxxxx |xxxxxxxxxxxxx |      4811354 |      4811354 |      4811354 |xxxxxxxxxxxxx |xxxxxxxxxxxxx |xxxxxxxxxxxxx |xxxxxxxxxxxxx |     10325065 |     10325065 |     10325065 |xxxxxxxxxxxxx |xxxxxxxxxxxxx |xxxxxxxxxxxxx |xxxxxxxxxxxxx |     21936150 |     21936150 |     21936150 |xxxxxxxxxxxxx |xxxxxxxxxxxxx |xxxxxxxxxxxxx |xxxxxxxxxxxxx |     46676964 |     46676964 |     46676964 |xxxxxxxxxxxxx |xxxxxxxxxxxxx |xxxxxxxxxxxxx |xxxxxxxxxxxxx |     96149136 |     96149136 |     96149136 |xxxxxxxxxxxxx |xxxxxxxxxxxxx |xxxxxxxxxxxxx |xxxxxxxxxxxxx |    203543556 |    203543556 |    203543556 |
bpred_bimod.addr_hits                        87282 |        87292 |        87295 |xxxxxxxxxxxxx |xxxxxxxxxxxxx |xxxxxxxxxxxxx |xxxxxxxxxxxxx |       184571 |       184579 |       184578 |xxxxxxxxxxxxx |xxxxxxxxxxxxx |xxxxxxxxxxxxx |xxxxxxxxxxxxx |       397048 |       397077 |       397080 |xxxxxxxxxxxxx |xxxxxxxxxxxxx |xxxxxxxxxxxxx |xxxxxxxxxxxxx |       833975 |       833992 |       833994 |xxxxxxxxxxxxx |xxxxxxxxxxxxx |xxxxxxxxxxxxx |xxxxxxxxxxxxx |      1782063 |      1782137 |      1782140 |xxxxxxxxxxxxx |xxxxxxxxxxxxx |xxxxxxxxxxxxx |xxxxxxxxxxxxx |      3726646 |      3726697 |      3726698 |xxxxxxxxxxxxx |xxxxxxxxxxxxx |xxxxxxxxxxxxx |xxxxxxxxxxxxx |      7914479 |      7914731 |      7914734 |xxxxxxxxxxxxx |xxxxxxxxxxxxx |xxxxxxxxxxxxx |xxxxxxxxxxxxx |     17069981 |     17070147 |     17070149 |xxxxxxxxxxxxx |xxxxxxxxxxxxx |xxxxxxxxxxxxx |xxxxxxxxxxxxx |     35982738 |     35983736 |     35983736 |xxxxxxxxxxxxx |xxxxxxxxxxxxx |xxxxxxxxxxxxx |xxxxxxxxxxxxx |     74584135 |     74584786 |     74584791 |xxxxxxxxxxxxx |xxxxxxxxxxxxx |xxxxxxxxxxxxx |xxxxxxxxxxxxx |    156560422 |    156564615 |    156564615 |
bpred_bimod.dir_hits                         87430 |        87441 |        87444 |xxxxxxxxxxxxx |xxxxxxxxxxxxx |xxxxxxxxxxxxx |xxxxxxxxxxxxx |       184726 |       184736 |       184736 |xxxxxxxxxxxxx |xxxxxxxxxxxxx |xxxxxxxxxxxxx |xxxxxxxxxxxxx |       397201 |       397227 |       397231 |xxxxxxxxxxxxx |xxxxxxxxxxxxx |xxxxxxxxxxxxx |xxxxxxxxxxxxx |       834131 |       834148 |       834151 |xxxxxxxxxxxxx |xxxxxxxxxxxxx |xxxxxxxxxxxxx |xxxxxxxxxxxxx |      1782214 |      1782287 |      1782293 |xxxxxxxxxxxxx |xxxxxxxxxxxxx |xxxxxxxxxxxxx |xxxxxxxxxxxxx |      3726803 |      3726854 |      3726857 |xxxxxxxxxxxxx |xxxxxxxxxxxxx |xxxxxxxxxxxxx |xxxxxxxxxxxxx |      7914626 |      7914877 |      7914883 |xxxxxxxxxxxxx |xxxxxxxxxxxxx |xxxxxxxxxxxxx |xxxxxxxxxxxxx |     17070160 |     17070325 |     17070328 |xxxxxxxxxxxxx |xxxxxxxxxxxxx |xxxxxxxxxxxxx |xxxxxxxxxxxxx |     35982915 |     35983911 |     35983911 |xxxxxxxxxxxxx |xxxxxxxxxxxxx |xxxxxxxxxxxxx |xxxxxxxxxxxxx |     74584315 |     74584965 |     74584971 |xxxxxxxxxxxxx |xxxxxxxxxxxxx |xxxxxxxxxxxxx |xxxxxxxxxxxxx |    156560598 |    156564789 |    156564790 |
bpred_bimod.misses                           25311 |        25300 |        25297 |xxxxxxxxxxxxx |xxxxxxxxxxxxx |xxxxxxxxxxxxx |xxxxxxxxxxxxx |        51405 |        51395 |        51395 |xxxxxxxxxxxxx |xxxxxxxxxxxxx |xxxxxxxxxxxxx |xxxxxxxxxxxxx |       117650 |       117624 |       117620 |xxxxxxxxxxxxx |xxxxxxxxxxxxx |xxxxxxxxxxxxx |xxxxxxxxxxxxx |       238616 |       238599 |       238596 |xxxxxxxxxxxxx |xxxxxxxxxxxxx |xxxxxxxxxxxxx |xxxxxxxxxxxxx |       537236 |       537163 |       537157 |xxxxxxxxxxxxx |xxxxxxxxxxxxx |xxxxxxxxxxxxx |xxxxxxxxxxxxx |      1084551 |      1084500 |      1084497 |xxxxxxxxxxxxx |xxxxxxxxxxxxx |xxxxxxxxxxxxx |xxxxxxxxxxxxx |      2410439 |      2410188 |      2410182 |xxxxxxxxxxxxx |xxxxxxxxxxxxx |xxxxxxxxxxxxx |xxxxxxxxxxxxx |      4865990 |      4865825 |      4865822 |xxxxxxxxxxxxx |xxxxxxxxxxxxx |xxxxxxxxxxxxx |xxxxxxxxxxxxx |     10694049 |     10693053 |     10693053 |xxxxxxxxxxxxx |xxxxxxxxxxxxx |xxxxxxxxxxxxx |xxxxxxxxxxxxx |     21564821 |     21564171 |     21564165 |xxxxxxxxxxxxx |xxxxxxxxxxxxx |xxxxxxxxxxxxx |xxxxxxxxxxxxx |     46982958 |     46978767 |     46978766 |
bpred_bimod.jr_hits                             79 |           79 |           79 |xxxxxxxxxxxxx |xxxxxxxxxxxxx |xxxxxxxxxxxxx |xxxxxxxxxxxxx |           87 |           87 |           87 |xxxxxxxxxxxxx |xxxxxxxxxxxxx |xxxxxxxxxxxxx |xxxxxxxxxxxxx |          103 |          103 |          103 |xxxxxxxxxxxxx |xxxxxxxxxxxxx |xxxxxxxxxxxxx |xxxxxxxxxxxxx |          135 |          135 |          135 |xxxxxxxxxxxxx |xxxxxxxxxxxxx |xxxxxxxxxxxxx |xxxxxxxxxxxxx |          199 |          199 |          199 |xxxxxxxxxxxxx |xxxxxxxxxxxxx |xxxxxxxxxxxxx |xxxxxxxxxxxxx |          327 |          327 |          327 |xxxxxxxxxxxxx |xxxxxxxxxxxxx |xxxxxxxxxxxxx |xxxxxxxxxxxxx |          583 |          583 |          583 |xxxxxxxxxxxxx |xxxxxxxxxxxxx |xxxxxxxxxxxxx |xxxxxxxxxxxxx |         1100 |         1100 |         1100 |xxxxxxxxxxxxx |xxxxxxxxxxxxx |xxxxxxxxxxxxx |xxxxxxxxxxxxx |         2126 |         2126 |         2126 |xxxxxxxxxxxxx |xxxxxxxxxxxxx |xxxxxxxxxxxxx |xxxxxxxxxxxxx |         4178 |         4178 |         4178 |xxxxxxxxxxxxx |xxxxxxxxxxxxx |xxxxxxxxxxxxx |xxxxxxxxxxxxx |         8282 |         8282 |         8282 |
bpred_bimod.jr_seen                             80 |           80 |           80 |xxxxxxxxxxxxx |xxxxxxxxxxxxx |xxxxxxxxxxxxx |xxxxxxxxxxxxx |           88 |           88 |           88 |xxxxxxxxxxxxx |xxxxxxxxxxxxx |xxxxxxxxxxxxx |xxxxxxxxxxxxx |          104 |          104 |          104 |xxxxxxxxxxxxx |xxxxxxxxxxxxx |xxxxxxxxxxxxx |xxxxxxxxxxxxx |          136 |          136 |          136 |xxxxxxxxxxxxx |xxxxxxxxxxxxx |xxxxxxxxxxxxx |xxxxxxxxxxxxx |          200 |          200 |          200 |xxxxxxxxxxxxx |xxxxxxxxxxxxx |xxxxxxxxxxxxx |xxxxxxxxxxxxx |          328 |          328 |          328 |xxxxxxxxxxxxx |xxxxxxxxxxxxx |xxxxxxxxxxxxx |xxxxxxxxxxxxx |          584 |          584 |          584 |xxxxxxxxxxxxx |xxxxxxxxxxxxx |xxxxxxxxxxxxx |xxxxxxxxxxxxx |         1101 |         1101 |         1101 |xxxxxxxxxxxxx |xxxxxxxxxxxxx |xxxxxxxxxxxxx |xxxxxxxxxxxxx |         2127 |         2127 |         2127 |xxxxxxxxxxxxx |xxxxxxxxxxxxx |xxxxxxxxxxxxx |xxxxxxxxxxxxx |         4179 |         4179 |         4179 |xxxxxxxxxxxxx |xxxxxxxxxxxxx |xxxxxxxxxxxxx |xxxxxxxxxxxxx |         8283 |         8283 |         8283 |
bpred_bimod.jr_non_ras_hits.PP                   0 |            0 |            0 |xxxxxxxxxxxxx |xxxxxxxxxxxxx |xxxxxxxxxxxxx |xxxxxxxxxxxxx |            0 |            0 |            0 |xxxxxxxxxxxxx |xxxxxxxxxxxxx |xxxxxxxxxxxxx |xxxxxxxxxxxxx |            0 |            0 |            0 |xxxxxxxxxxxxx |xxxxxxxxxxxxx |xxxxxxxxxxxxx |xxxxxxxxxxxxx |            0 |            0 |            0 |xxxxxxxxxxxxx |xxxxxxxxxxxxx |xxxxxxxxxxxxx |xxxxxxxxxxxxx |            0 |            0 |            0 |xxxxxxxxxxxxx |xxxxxxxxxxxxx |xxxxxxxxxxxxx |xxxxxxxxxxxxx |            0 |            0 |            0 |xxxxxxxxxxxxx |xxxxxxxxxxxxx |xxxxxxxxxxxxx |xxxxxxxxxxxxx |            0 |            0 |            0 |xxxxxxxxxxxxx |xxxxxxxxxxxxx |xxxxxxxxxxxxx |xxxxxxxxxxxxx |            0 |            0 |            0 |xxxxxxxxxxxxx |xxxxxxxxxxxxx |xxxxxxxxxxxxx |xxxxxxxxxxxxx |            0 |            0 |            0 |xxxxxxxxxxxxx |xxxxxxxxxxxxx |xxxxxxxxxxxxx |xxxxxxxxxxxxx |            0 |            0 |            0 |xxxxxxxxxxxxx |xxxxxxxxxxxxx |xxxxxxxxxxxxx |xxxxxxxxxxxxx |            0 |            0 |            0 |
bpred_bimod.jr_non_ras_seen.PP                   0 |            0 |            0 |xxxxxxxxxxxxx |xxxxxxxxxxxxx |xxxxxxxxxxxxx |xxxxxxxxxxxxx |            0 |            0 |            0 |xxxxxxxxxxxxx |xxxxxxxxxxxxx |xxxxxxxxxxxxx |xxxxxxxxxxxxx |            0 |            0 |            0 |xxxxxxxxxxxxx |xxxxxxxxxxxxx |xxxxxxxxxxxxx |xxxxxxxxxxxxx |            0 |            0 |            0 |xxxxxxxxxxxxx |xxxxxxxxxxxxx |xxxxxxxxxxxxx |xxxxxxxxxxxxx |            0 |            0 |            0 |xxxxxxxxxxxxx |xxxxxxxxxxxxx |xxxxxxxxxxxxx |xxxxxxxxxxxxx |            0 |            0 |            0 |xxxxxxxxxxxxx |xxxxxxxxxxxxx |xxxxxxxxxxxxx |xxxxxxxxxxxxx |            0 |            0 |            0 |xxxxxxxxxxxxx |xxxxxxxxxxxxx |xxxxxxxxxxxxx |xxxxxxxxxxxxx |            1 |            1 |            1 |xxxxxxxxxxxxx |xxxxxxxxxxxxx |xxxxxxxxxxxxx |xxxxxxxxxxxxx |            1 |            1 |            1 |xxxxxxxxxxxxx |xxxxxxxxxxxxx |xxxxxxxxxxxxx |xxxxxxxxxxxxx |            1 |            1 |            1 |xxxxxxxxxxxxx |xxxxxxxxxxxxx |xxxxxxxxxxxxx |xxxxxxxxxxxxx |            1 |            1 |            1 |
bpred_bimod.bpred_addr_rate                 0.7742 |       0.7743 |       0.7743 |xxxxxxxxxxxxx |xxxxxxxxxxxxx |xxxxxxxxxxxxx |xxxxxxxxxxxxx |       0.7816 |       0.7817 |       0.7817 |xxxxxxxxxxxxx |xxxxxxxxxxxxx |xxxxxxxxxxxxx |xxxxxxxxxxxxx |       0.7712 |       0.7712 |       0.7713 |xxxxxxxxxxxxx |xxxxxxxxxxxxx |xxxxxxxxxxxxx |xxxxxxxxxxxxx |       0.7774 |       0.7774 |       0.7774 |xxxxxxxxxxxxx |xxxxxxxxxxxxx |xxxxxxxxxxxxx |xxxxxxxxxxxxx |       0.7683 |       0.7683 |       0.7683 |xxxxxxxxxxxxx |xxxxxxxxxxxxx |xxxxxxxxxxxxx |xxxxxxxxxxxxx |       0.7746 |       0.7746 |       0.7746 |xxxxxxxxxxxxx |xxxxxxxxxxxxx |xxxxxxxxxxxxx |xxxxxxxxxxxxx |       0.7665 |       0.7666 |       0.7666 |xxxxxxxxxxxxx |xxxxxxxxxxxxx |xxxxxxxxxxxxx |xxxxxxxxxxxxx |       0.7782 |       0.7782 |       0.7782 |xxxxxxxxxxxxx |xxxxxxxxxxxxx |xxxxxxxxxxxxx |xxxxxxxxxxxxx |       0.7709 |       0.7709 |       0.7709 |xxxxxxxxxxxxx |xxxxxxxxxxxxx |xxxxxxxxxxxxx |xxxxxxxxxxxxx |       0.7757 |       0.7757 |       0.7757 |xxxxxxxxxxxxx |xxxxxxxxxxxxx |xxxxxxxxxxxxx |xxxxxxxxxxxxx |       0.7692 |       0.7692 |       0.7692 |
bpred_bimod.bpred_dir_rate                  0.7755 |       0.7756 |       0.7756 |xxxxxxxxxxxxx |xxxxxxxxxxxxx |xxxxxxxxxxxxx |xxxxxxxxxxxxx |       0.7823 |       0.7823 |       0.7823 |xxxxxxxxxxxxx |xxxxxxxxxxxxx |xxxxxxxxxxxxx |xxxxxxxxxxxxx |       0.7715 |       0.7715 |       0.7715 |xxxxxxxxxxxxx |xxxxxxxxxxxxx |xxxxxxxxxxxxx |xxxxxxxxxxxxx |       0.7776 |       0.7776 |       0.7776 |xxxxxxxxxxxxx |xxxxxxxxxxxxx |xxxxxxxxxxxxx |xxxxxxxxxxxxx |       0.7684 |       0.7684 |       0.7684 |xxxxxxxxxxxxx |xxxxxxxxxxxxx |xxxxxxxxxxxxx |xxxxxxxxxxxxx |       0.7746 |       0.7746 |       0.7746 |xxxxxxxxxxxxx |xxxxxxxxxxxxx |xxxxxxxxxxxxx |xxxxxxxxxxxxx |       0.7665 |       0.7666 |       0.7666 |xxxxxxxxxxxxx |xxxxxxxxxxxxx |xxxxxxxxxxxxx |xxxxxxxxxxxxx |       0.7782 |       0.7782 |       0.7782 |xxxxxxxxxxxxx |xxxxxxxxxxxxx |xxxxxxxxxxxxx |xxxxxxxxxxxxx |       0.7709 |       0.7709 |       0.7709 |xxxxxxxxxxxxx |xxxxxxxxxxxxx |xxxxxxxxxxxxx |xxxxxxxxxxxxx |       0.7757 |       0.7757 |       0.7757 |xxxxxxxxxxxxx |xxxxxxxxxxxxx |xxxxxxxxxxxxx |xxxxxxxxxxxxx |       0.7692 |       0.7692 |       0.7692 |
bpred_bimod.bpred_jr_rate                   0.9875 |       0.9875 |       0.9875 |xxxxxxxxxxxxx |xxxxxxxxxxxxx |xxxxxxxxxxxxx |xxxxxxxxxxxxx |       0.9886 |       0.9886 |       0.9886 |xxxxxxxxxxxxx |xxxxxxxxxxxxx |xxxxxxxxxxxxx |xxxxxxxxxxxxx |       0.9904 |       0.9904 |       0.9904 |xxxxxxxxxxxxx |xxxxxxxxxxxxx |xxxxxxxxxxxxx |xxxxxxxxxxxxx |       0.9926 |       0.9926 |       0.9926 |xxxxxxxxxxxxx |xxxxxxxxxxxxx |xxxxxxxxxxxxx |xxxxxxxxxxxxx |       0.9950 |       0.9950 |       0.9950 |xxxxxxxxxxxxx |xxxxxxxxxxxxx |xxxxxxxxxxxxx |xxxxxxxxxxxxx |       0.9970 |       0.9970 |       0.9970 |xxxxxxxxxxxxx |xxxxxxxxxxxxx |xxxxxxxxxxxxx |xxxxxxxxxxxxx |       0.9983 |       0.9983 |       0.9983 |xxxxxxxxxxxxx |xxxxxxxxxxxxx |xxxxxxxxxxxxx |xxxxxxxxxxxxx |       0.9991 |       0.9991 |       0.9991 |xxxxxxxxxxxxx |xxxxxxxxxxxxx |xxxxxxxxxxxxx |xxxxxxxxxxxxx |       0.9995 |       0.9995 |       0.9995 |xxxxxxxxxxxxx |xxxxxxxxxxxxx |xxxxxxxxxxxxx |xxxxxxxxxxxxx |       0.9998 |       0.9998 |       0.9998 |xxxxxxxxxxxxx |xxxxxxxxxxxxx |xxxxxxxxxxxxx |xxxxxxxxxxxxx |       0.9999 |       0.9999 |       0.9999 |
bpred_bimod.bpred_jr_non_ras_rate.PP       <error: |      <error: |      <error: |xxxxxxxxxxxxx |xxxxxxxxxxxxx |xxxxxxxxxxxxx |xxxxxxxxxxxxx |      <error: |      <error: |      <error: |xxxxxxxxxxxxx |xxxxxxxxxxxxx |xxxxxxxxxxxxx |xxxxxxxxxxxxx |      <error: |      <error: |      <error: |xxxxxxxxxxxxx |xxxxxxxxxxxxx |xxxxxxxxxxxxx |xxxxxxxxxxxxx |      <error: |      <error: |      <error: |xxxxxxxxxxxxx |xxxxxxxxxxxxx |xxxxxxxxxxxxx |xxxxxxxxxxxxx |      <error: |      <error: |      <error: |xxxxxxxxxxxxx |xxxxxxxxxxxxx |xxxxxxxxxxxxx |xxxxxxxxxxxxx |      <error: |      <error: |      <error: |xxxxxxxxxxxxx |xxxxxxxxxxxxx |xxxxxxxxxxxxx |xxxxxxxxxxxxx |      <error: |      <error: |      <error: |xxxxxxxxxxxxx |xxxxxxxxxxxxx |xxxxxxxxxxxxx |xxxxxxxxxxxxx |       0.0000 |       0.0000 |       0.0000 |xxxxxxxxxxxxx |xxxxxxxxxxxxx |xxxxxxxxxxxxx |xxxxxxxxxxxxx |       0.0000 |       0.0000 |       0.0000 |xxxxxxxxxxxxx |xxxxxxxxxxxxx |xxxxxxxxxxxxx |xxxxxxxxxxxxx |       0.0000 |       0.0000 |       0.0000 |xxxxxxxxxxxxx |xxxxxxxxxxxxx |xxxxxxxxxxxxx |xxxxxxxxxxxxx |       0.0000 |       0.0000 |       0.0000 |
bpred_bimod.retstack_pushes                     82 |           82 |           82 |xxxxxxxxxxxxx |xxxxxxxxxxxxx |xxxxxxxxxxxxx |xxxxxxxxxxxxx |           90 |           90 |           90 |xxxxxxxxxxxxx |xxxxxxxxxxxxx |xxxxxxxxxxxxx |xxxxxxxxxxxxx |          106 |          106 |          106 |xxxxxxxxxxxxx |xxxxxxxxxxxxx |xxxxxxxxxxxxx |xxxxxxxxxxxxx |          138 |          138 |          138 |xxxxxxxxxxxxx |xxxxxxxxxxxxx |xxxxxxxxxxxxx |xxxxxxxxxxxxx |          202 |          202 |          202 |xxxxxxxxxxxxx |xxxxxxxxxxxxx |xxxxxxxxxxxxx |xxxxxxxxxxxxx |          330 |          330 |          330 |xxxxxxxxxxxxx |xxxxxxxxxxxxx |xxxxxxxxxxxxx |xxxxxxxxxxxxx |          586 |          586 |          586 |xxxxxxxxxxxxx |xxxxxxxxxxxxx |xxxxxxxxxxxxx |xxxxxxxxxxxxx |         1102 |         1102 |         1102 |xxxxxxxxxxxxx |xxxxxxxxxxxxx |xxxxxxxxxxxxx |xxxxxxxxxxxxx |         2128 |         2128 |         2128 |xxxxxxxxxxxxx |xxxxxxxxxxxxx |xxxxxxxxxxxxx |xxxxxxxxxxxxx |         4180 |         4180 |         4180 |xxxxxxxxxxxxx |xxxxxxxxxxxxx |xxxxxxxxxxxxx |xxxxxxxxxxxxx |         8284 |         8284 |         8284 |
bpred_bimod.retstack_pops                       80 |           80 |           80 |xxxxxxxxxxxxx |xxxxxxxxxxxxx |xxxxxxxxxxxxx |xxxxxxxxxxxxx |           88 |           88 |           88 |xxxxxxxxxxxxx |xxxxxxxxxxxxx |xxxxxxxxxxxxx |xxxxxxxxxxxxx |          104 |          104 |          104 |xxxxxxxxxxxxx |xxxxxxxxxxxxx |xxxxxxxxxxxxx |xxxxxxxxxxxxx |          136 |          136 |          136 |xxxxxxxxxxxxx |xxxxxxxxxxxxx |xxxxxxxxxxxxx |xxxxxxxxxxxxx |          200 |          200 |          200 |xxxxxxxxxxxxx |xxxxxxxxxxxxx |xxxxxxxxxxxxx |xxxxxxxxxxxxx |          328 |          328 |          328 |xxxxxxxxxxxxx |xxxxxxxxxxxxx |xxxxxxxxxxxxx |xxxxxxxxxxxxx |          584 |          584 |          584 |xxxxxxxxxxxxx |xxxxxxxxxxxxx |xxxxxxxxxxxxx |xxxxxxxxxxxxx |         1100 |         1100 |         1100 |xxxxxxxxxxxxx |xxxxxxxxxxxxx |xxxxxxxxxxxxx |xxxxxxxxxxxxx |         2126 |         2126 |         2126 |xxxxxxxxxxxxx |xxxxxxxxxxxxx |xxxxxxxxxxxxx |xxxxxxxxxxxxx |         4178 |         4178 |         4178 |xxxxxxxxxxxxx |xxxxxxxxxxxxx |xxxxxxxxxxxxx |xxxxxxxxxxxxx |         8282 |         8282 |         8282 |
bpred_bimod.used_ras.PP                         80 |           80 |           80 |xxxxxxxxxxxxx |xxxxxxxxxxxxx |xxxxxxxxxxxxx |xxxxxxxxxxxxx |           88 |           88 |           88 |xxxxxxxxxxxxx |xxxxxxxxxxxxx |xxxxxxxxxxxxx |xxxxxxxxxxxxx |          104 |          104 |          104 |xxxxxxxxxxxxx |xxxxxxxxxxxxx |xxxxxxxxxxxxx |xxxxxxxxxxxxx |          136 |          136 |          136 |xxxxxxxxxxxxx |xxxxxxxxxxxxx |xxxxxxxxxxxxx |xxxxxxxxxxxxx |          200 |          200 |          200 |xxxxxxxxxxxxx |xxxxxxxxxxxxx |xxxxxxxxxxxxx |xxxxxxxxxxxxx |          328 |          328 |          328 |xxxxxxxxxxxxx |xxxxxxxxxxxxx |xxxxxxxxxxxxx |xxxxxxxxxxxxx |          584 |          584 |          584 |xxxxxxxxxxxxx |xxxxxxxxxxxxx |xxxxxxxxxxxxx |xxxxxxxxxxxxx |         1100 |         1100 |         1100 |xxxxxxxxxxxxx |xxxxxxxxxxxxx |xxxxxxxxxxxxx |xxxxxxxxxxxxx |         2126 |         2126 |         2126 |xxxxxxxxxxxxx |xxxxxxxxxxxxx |xxxxxxxxxxxxx |xxxxxxxxxxxxx |         4178 |         4178 |         4178 |xxxxxxxxxxxxx |xxxxxxxxxxxxx |xxxxxxxxxxxxx |xxxxxxxxxxxxx |         8282 |         8282 |         8282 |
bpred_bimod.ras_hits.PP                         79 |           79 |           79 |xxxxxxxxxxxxx |xxxxxxxxxxxxx |xxxxxxxxxxxxx |xxxxxxxxxxxxx |           87 |           87 |           87 |xxxxxxxxxxxxx |xxxxxxxxxxxxx |xxxxxxxxxxxxx |xxxxxxxxxxxxx |          103 |          103 |          103 |xxxxxxxxxxxxx |xxxxxxxxxxxxx |xxxxxxxxxxxxx |xxxxxxxxxxxxx |          135 |          135 |          135 |xxxxxxxxxxxxx |xxxxxxxxxxxxx |xxxxxxxxxxxxx |xxxxxxxxxxxxx |          199 |          199 |          199 |xxxxxxxxxxxxx |xxxxxxxxxxxxx |xxxxxxxxxxxxx |xxxxxxxxxxxxx |          327 |          327 |          327 |xxxxxxxxxxxxx |xxxxxxxxxxxxx |xxxxxxxxxxxxx |xxxxxxxxxxxxx |          583 |          583 |          583 |xxxxxxxxxxxxx |xxxxxxxxxxxxx |xxxxxxxxxxxxx |xxxxxxxxxxxxx |         1100 |         1100 |         1100 |xxxxxxxxxxxxx |xxxxxxxxxxxxx |xxxxxxxxxxxxx |xxxxxxxxxxxxx |         2126 |         2126 |         2126 |xxxxxxxxxxxxx |xxxxxxxxxxxxx |xxxxxxxxxxxxx |xxxxxxxxxxxxx |         4178 |         4178 |         4178 |xxxxxxxxxxxxx |xxxxxxxxxxxxx |xxxxxxxxxxxxx |xxxxxxxxxxxxx |         8282 |         8282 |         8282 |
bpred_bimod.ras_rate.PP                     0.9875 |       0.9875 |       0.9875 |xxxxxxxxxxxxx |xxxxxxxxxxxxx |xxxxxxxxxxxxx |xxxxxxxxxxxxx |       0.9886 |       0.9886 |       0.9886 |xxxxxxxxxxxxx |xxxxxxxxxxxxx |xxxxxxxxxxxxx |xxxxxxxxxxxxx |       0.9904 |       0.9904 |       0.9904 |xxxxxxxxxxxxx |xxxxxxxxxxxxx |xxxxxxxxxxxxx |xxxxxxxxxxxxx |       0.9926 |       0.9926 |       0.9926 |xxxxxxxxxxxxx |xxxxxxxxxxxxx |xxxxxxxxxxxxx |xxxxxxxxxxxxx |       0.9950 |       0.9950 |       0.9950 |xxxxxxxxxxxxx |xxxxxxxxxxxxx |xxxxxxxxxxxxx |xxxxxxxxxxxxx |       0.9970 |       0.9970 |       0.9970 |xxxxxxxxxxxxx |xxxxxxxxxxxxx |xxxxxxxxxxxxx |xxxxxxxxxxxxx |       0.9983 |       0.9983 |       0.9983 |xxxxxxxxxxxxx |xxxxxxxxxxxxx |xxxxxxxxxxxxx |xxxxxxxxxxxxx |       1.0000 |       1.0000 |       1.0000 |xxxxxxxxxxxxx |xxxxxxxxxxxxx |xxxxxxxxxxxxx |xxxxxxxxxxxxx |       1.0000 |       1.0000 |       1.0000 |xxxxxxxxxxxxx |xxxxxxxxxxxxx |xxxxxxxxxxxxx |xxxxxxxxxxxxx |       1.0000 |       1.0000 |       1.0000 |xxxxxxxxxxxxx |xxxxxxxxxxxxx |xxxxxxxxxxxxx |xxxxxxxxxxxxx |       1.0000 |       1.0000 |       1.0000 |
bpred_2lev.lookups                   xxxxxxxxxxxxx |xxxxxxxxxxxxx |xxxxxxxxxxxxx |       112741 |       112741 |       112741 |       112741 |xxxxxxxxxxxxx |xxxxxxxxxxxxx |xxxxxxxxxxxxx |       236131 |       236131 |       236131 |       236131 |xxxxxxxxxxxxx |xxxxxxxxxxxxx |xxxxxxxxxxxxx |       514851 |       514851 |       514851 |       514851 |xxxxxxxxxxxxx |xxxxxxxxxxxxx |xxxxxxxxxxxxx |      1072747 |      1072747 |      1072747 |      1072747 |xxxxxxxxxxxxx |xxxxxxxxxxxxx |xxxxxxxxxxxxx |      2319450 |      2319450 |      2319450 |      2319450 |xxxxxxxxxxxxx |xxxxxxxxxxxxx |xxxxxxxxxxxxx |      4811354 |      4811354 |      4811354 |      4811354 |xxxxxxxxxxxxx |xxxxxxxxxxxxx |xxxxxxxxxxxxx |     10325065 |     10325065 |     10325065 |     10325065 |xxxxxxxxxxxxx |xxxxxxxxxxxxx |xxxxxxxxxxxxx |     21936150 |     21936150 |     21936150 |     21936150 |xxxxxxxxxxxxx |xxxxxxxxxxxxx |xxxxxxxxxxxxx |     46676964 |     46676964 |     46676964 |     46676964 |xxxxxxxxxxxxx |xxxxxxxxxxxxx |xxxxxxxxxxxxx |     96149136 |     96149136 |     96149136 |     96149136 |xxxxxxxxxxxxx |xxxxxxxxxxxxx |xxxxxxxxxxxxx |    203543556 |    203543556 |    203543556 |    203543556 |
[...]
bpred_2lev.used_ras.PP               xxxxxxxxxxxxx |xxxxxxxxxxxxx |xxxxxxxxxxxxx |           80 |           80 |           80 |           80 |xxxxxxxxxxxxx |xxxxxxxxxxxxx |xxxxxxxxxxxxx |           88 |           88 |           88 |           88 |xxxxxxxxxxxxx |xxxxxxxxxxxxx |xxxxxxxxxxxxx |          104 |          104 |          104 |          104 |xxxxxxxxxxxxx |xxxxxxxxxxxxx |xxxxxxxxxxxxx |          136 |          136 |          136 |          136 |xxxxxxxxxxxxx |xxxxxxxxxxxxx |xxxxxxxxxxxxx |          200 |          200 |          200 |          200 |xxxxxxxxxxxxx |xxxxxxxxxxxxx |xxxxxxxxxxxxx |          328 |          328 |          328 |          328 |xxxxxxxxxxxxx |xxxxxxxxxxxxx |xxxxxxxxxxxxx |          584 |          584 |          584 |          584 |xxxxxxxxxxxxx |xxxxxxxxxxxxx |xxxxxxxxxxxxx |         1100 |         1100 |         1100 |         1100 |xxxxxxxxxxxxx |xxxxxxxxxxxxx |xxxxxxxxxxxxx |         2126 |         2126 |         2126 |         2126 |xxxxxxxxxxxxx |xxxxxxxxxxxxx |xxxxxxxxxxxxx |         4178 |         4178 |         4178 |         4178 |xxxxxxxxxxxxx |xxxxxxxxxxxxx |xxxxxxxxxxxxx |         8282 |         8282 |         8282 |         8282 |
bpred_2lev.ras_hits.PP               xxxxxxxxxxxxx |xxxxxxxxxxxxx |xxxxxxxxxxxxx |           79 |           79 |           79 |           79 |xxxxxxxxxxxxx |xxxxxxxxxxxxx |xxxxxxxxxxxxx |           87 |           87 |           87 |           87 |xxxxxxxxxxxxx |xxxxxxxxxxxxx |xxxxxxxxxxxxx |          103 |          103 |          103 |          103 |xxxxxxxxxxxxx |xxxxxxxxxxxxx |xxxxxxxxxxxxx |          135 |          135 |          135 |          135 |xxxxxxxxxxxxx |xxxxxxxxxxxxx |xxxxxxxxxxxxx |          199 |          199 |          199 |          199 |xxxxxxxxxxxxx |xxxxxxxxxxxxx |xxxxxxxxxxxxx |          327 |          327 |          327 |          327 |xxxxxxxxxxxxx |xxxxxxxxxxxxx |xxxxxxxxxxxxx |          583 |          583 |          583 |          583 |xxxxxxxxxxxxx |xxxxxxxxxxxxx |xxxxxxxxxxxxx |         1100 |         1100 |         1100 |         1100 |xxxxxxxxxxxxx |xxxxxxxxxxxxx |xxxxxxxxxxxxx |         2126 |         2126 |         2126 |         2126 |xxxxxxxxxxxxx |xxxxxxxxxxxxx |xxxxxxxxxxxxx |         4178 |         4178 |         4178 |         4178 |xxxxxxxxxxxxx |xxxxxxxxxxxxx |xxxxxxxxxxxxx |         8282 |         8282 |         8282 |         8282 |
bpred_2lev.ras_rate.PP               xxxxxxxxxxxxx |xxxxxxxxxxxxx |xxxxxxxxxxxxx |       0.9875 |       0.9875 |       0.9875 |       0.9875 |xxxxxxxxxxxxx |xxxxxxxxxxxxx |xxxxxxxxxxxxx |       0.9886 |       0.9886 |       0.9886 |       0.9886 |xxxxxxxxxxxxx |xxxxxxxxxxxxx |xxxxxxxxxxxxx |       0.9904 |       0.9904 |       0.9904 |       0.9904 |xxxxxxxxxxxxx |xxxxxxxxxxxxx |xxxxxxxxxxxxx |       0.9926 |       0.9926 |       0.9926 |       0.9926 |xxxxxxxxxxxxx |xxxxxxxxxxxxx |xxxxxxxxxxxxx |       0.9950 |       0.9950 |       0.9950 |       0.9950 |xxxxxxxxxxxxx |xxxxxxxxxxxxx |xxxxxxxxxxxxx |       0.9970 |       0.9970 |       0.9970 |       0.9970 |xxxxxxxxxxxxx |xxxxxxxxxxxxx |xxxxxxxxxxxxx |       0.9983 |       0.9983 |       0.9983 |       0.9983 |xxxxxxxxxxxxx |xxxxxxxxxxxxx |xxxxxxxxxxxxx |       1.0000 |       1.0000 |       1.0000 |       1.0000 |xxxxxxxxxxxxx |xxxxxxxxxxxxx |xxxxxxxxxxxxx |       1.0000 |       1.0000 |       1.0000 |       1.0000 |xxxxxxxxxxxxx |xxxxxxxxxxxxx |xxxxxxxxxxxxx |       1.0000 |       1.0000 |       1.0000 |       1.0000 |xxxxxxxxxxxxx |xxxxxxxxxxxxx |xxxxxxxxxxxxx |       1.0000 |       1.0000 |       1.0000 |       1.0000 |

Command list: 
	sslittle-na-sstrix-gcc -Wall -O3 -funroll-loops -finline-functions  -DRANDOM_SIZE=4096 -DOFFSET=1 -DSORT=double_aligned_tiled_mergesort sorts/double_aligned_tiled_mergesort352842048.c simpleMain.c -o double_aligned_tiled_mergesort1810407978
	sim-cache -cache:dl1 dl1:256:32:1:l -cache:dl2 dl2:131072:32:1:l -cache:il1 il1:256:32:1:l -cache:il2 dl2 double_aligned_tiled_mergesort1810407978
	sim-cache -cache:dl1 dl1:256:32:1:l -cache:dl2 dl2:65536:32:1:l -cache:il1 il1:256:32:1:l -cache:il2 dl2 double_aligned_tiled_mergesort1810407978
	sim-cache -cache:dl1 dl1:1:32:256:l -cache:dl2 dl2:1:32:131072:l -cache:il1 il1:1:32:256:l -cache:il2 dl2 double_aligned_tiled_mergesort1810407978
	sim-cache -cache:dl1 dl1:1:32:256:l -cache:dl2 dl2:1:32:65536:l -cache:il1 il1:1:32:256:l -cache:il2 dl2 double_aligned_tiled_mergesort1810407978
	sim-bpred -bpred bimod -bpred:bimod 512 double_aligned_tiled_mergesort1810407978
	sim-bpred -bpred bimod -bpred:bimod 1024 double_aligned_tiled_mergesort1810407978
	sim-bpred -bpred bimod -bpred:bimod 2048 double_aligned_tiled_mergesort1810407978
	sim-bpred -bpred 2lev -bpred:2lev 1 512 10 1 double_aligned_tiled_mergesort1810407978
	sim-bpred -bpred 2lev -bpred:2lev 1 1024 10 1 double_aligned_tiled_mergesort1810407978
	sim-bpred -bpred 2lev -bpred:2lev 1 2048 10 1 double_aligned_tiled_mergesort1810407978
	sim-bpred -bpred 2lev -bpred:2lev 1 4096 10 1 double_aligned_tiled_mergesort1810407978
	sslittle-na-sstrix-gcc -Wall -O3 -funroll-loops -finline-functions  -DRANDOM_SIZE=8192 -DOFFSET=1 -DSORT=double_aligned_tiled_mergesort sorts/double_aligned_tiled_mergesort352842048.c simpleMain.c -o double_aligned_tiled_mergesort1810407978
	sim-cache -cache:dl1 dl1:256:32:1:l -cache:dl2 dl2:131072:32:1:l -cache:il1 il1:256:32:1:l -cache:il2 dl2 double_aligned_tiled_mergesort1810407978
	sim-cache -cache:dl1 dl1:256:32:1:l -cache:dl2 dl2:65536:32:1:l -cache:il1 il1:256:32:1:l -cache:il2 dl2 double_aligned_tiled_mergesort1810407978
	sim-cache -cache:dl1 dl1:1:32:256:l -cache:dl2 dl2:1:32:131072:l -cache:il1 il1:1:32:256:l -cache:il2 dl2 double_aligned_tiled_mergesort1810407978
	sim-cache -cache:dl1 dl1:1:32:256:l -cache:dl2 dl2:1:32:65536:l -cache:il1 il1:1:32:256:l -cache:il2 dl2 double_aligned_tiled_mergesort1810407978
	sim-bpred -bpred bimod -bpred:bimod 512 double_aligned_tiled_mergesort1810407978
	sim-bpred -bpred bimod -bpred:bimod 1024 double_aligned_tiled_mergesort1810407978
	sim-bpred -bpred bimod -bpred:bimod 2048 double_aligned_tiled_mergesort1810407978
	sim-bpred -bpred 2lev -bpred:2lev 1 512 10 1 double_aligned_tiled_mergesort1810407978
	sim-bpred -bpred 2lev -bpred:2lev 1 1024 10 1 double_aligned_tiled_mergesort1810407978
	sim-bpred -bpred 2lev -bpred:2lev 1 2048 10 1 double_aligned_tiled_mergesort1810407978
	sim-bpred -bpred 2lev -bpred:2lev 1 4096 10 1 double_aligned_tiled_mergesort1810407978
	sslittle-na-sstrix-gcc -Wall -O3 -funroll-loops -finline-functions  -DRANDOM_SIZE=16384 -DOFFSET=1 -DSORT=double_aligned_tiled_mergesort sorts/double_aligned_tiled_mergesort352842048.c simpleMain.c -o double_aligned_tiled_mergesort1810407978
	sim-cache -cache:dl1 dl1:256:32:1:l -cache:dl2 dl2:131072:32:1:l -cache:il1 il1:256:32:1:l -cache:il2 dl2 double_aligned_tiled_mergesort1810407978
	sim-cache -cache:dl1 dl1:256:32:1:l -cache:dl2 dl2:65536:32:1:l -cache:il1 il1:256:32:1:l -cache:il2 dl2 double_aligned_tiled_mergesort1810407978
	sim-cache -cache:dl1 dl1:1:32:256:l -cache:dl2 dl2:1:32:131072:l -cache:il1 il1:1:32:256:l -cache:il2 dl2 double_aligned_tiled_mergesort1810407978
	sim-cache -cache:dl1 dl1:1:32:256:l -cache:dl2 dl2:1:32:65536:l -cache:il1 il1:1:32:256:l -cache:il2 dl2 double_aligned_tiled_mergesort1810407978
	sim-bpred -bpred bimod -bpred:bimod 512 double_aligned_tiled_mergesort1810407978
	sim-bpred -bpred bimod -bpred:bimod 1024 double_aligned_tiled_mergesort1810407978
	sim-bpred -bpred bimod -bpred:bimod 2048 double_aligned_tiled_mergesort1810407978
	sim-bpred -bpred 2lev -bpred:2lev 1 512 10 1 double_aligned_tiled_mergesort1810407978
	sim-bpred -bpred 2lev -bpred:2lev 1 1024 10 1 double_aligned_tiled_mergesort1810407978
	sim-bpred -bpred 2lev -bpred:2lev 1 2048 10 1 double_aligned_tiled_mergesort1810407978
	sim-bpred -bpred 2lev -bpred:2lev 1 4096 10 1 double_aligned_tiled_mergesort1810407978
	sslittle-na-sstrix-gcc -Wall -O3 -funroll-loops -finline-functions  -DRANDOM_SIZE=32768 -DOFFSET=1 -DSORT=double_aligned_tiled_mergesort sorts/double_aligned_tiled_mergesort352842048.c simpleMain.c -o double_aligned_tiled_mergesort1810407978
	sim-cache -cache:dl1 dl1:256:32:1:l -cache:dl2 dl2:131072:32:1:l -cache:il1 il1:256:32:1:l -cache:il2 dl2 double_aligned_tiled_mergesort1810407978
	sim-cache -cache:dl1 dl1:256:32:1:l -cache:dl2 dl2:65536:32:1:l -cache:il1 il1:256:32:1:l -cache:il2 dl2 double_aligned_tiled_mergesort1810407978
	sim-cache -cache:dl1 dl1:1:32:256:l -cache:dl2 dl2:1:32:131072:l -cache:il1 il1:1:32:256:l -cache:il2 dl2 double_aligned_tiled_mergesort1810407978
	sim-cache -cache:dl1 dl1:1:32:256:l -cache:dl2 dl2:1:32:65536:l -cache:il1 il1:1:32:256:l -cache:il2 dl2 double_aligned_tiled_mergesort1810407978
	sim-bpred -bpred bimod -bpred:bimod 512 double_aligned_tiled_mergesort1810407978
	sim-bpred -bpred bimod -bpred:bimod 1024 double_aligned_tiled_mergesort1810407978
	sim-bpred -bpred bimod -bpred:bimod 2048 double_aligned_tiled_mergesort1810407978
	sim-bpred -bpred 2lev -bpred:2lev 1 512 10 1 double_aligned_tiled_mergesort1810407978
	sim-bpred -bpred 2lev -bpred:2lev 1 1024 10 1 double_aligned_tiled_mergesort1810407978
	sim-bpred -bpred 2lev -bpred:2lev 1 2048 10 1 double_aligned_tiled_mergesort1810407978
	sim-bpred -bpred 2lev -bpred:2lev 1 4096 10 1 double_aligned_tiled_mergesort1810407978
	sslittle-na-sstrix-gcc -Wall -O3 -funroll-loops -finline-functions  -DRANDOM_SIZE=65536 -DOFFSET=1 -DSORT=double_aligned_tiled_mergesort sorts/double_aligned_tiled_mergesort352842048.c simpleMain.c -o double_aligned_tiled_mergesort1810407978
	sim-cache -cache:dl1 dl1:256:32:1:l -cache:dl2 dl2:131072:32:1:l -cache:il1 il1:256:32:1:l -cache:il2 dl2 double_aligned_tiled_mergesort1810407978
	sim-cache -cache:dl1 dl1:256:32:1:l -cache:dl2 dl2:65536:32:1:l -cache:il1 il1:256:32:1:l -cache:il2 dl2 double_aligned_tiled_mergesort1810407978
	sim-cache -cache:dl1 dl1:1:32:256:l -cache:dl2 dl2:1:32:131072:l -cache:il1 il1:1:32:256:l -cache:il2 dl2 double_aligned_tiled_mergesort1810407978
	sim-cache -cache:dl1 dl1:1:32:256:l -cache:dl2 dl2:1:32:65536:l -cache:il1 il1:1:32:256:l -cache:il2 dl2 double_aligned_tiled_mergesort1810407978
	sim-bpred -bpred bimod -bpred:bimod 512 double_aligned_tiled_mergesort1810407978
	sim-bpred -bpred bimod -bpred:bimod 1024 double_aligned_tiled_mergesort1810407978
	sim-bpred -bpred bimod -bpred:bimod 2048 double_aligned_tiled_mergesort1810407978
	sim-bpred -bpred 2lev -bpred:2lev 1 512 10 1 double_aligned_tiled_mergesort1810407978
	sim-bpred -bpred 2lev -bpred:2lev 1 1024 10 1 double_aligned_tiled_mergesort1810407978
	sim-bpred -bpred 2lev -bpred:2lev 1 2048 10 1 double_aligned_tiled_mergesort1810407978
	sim-bpred -bpred 2lev -bpred:2lev 1 4096 10 1 double_aligned_tiled_mergesort1810407978
	sslittle-na-sstrix-gcc -Wall -O3 -funroll-loops -finline-functions  -DRANDOM_SIZE=131072 -DOFFSET=1 -DSORT=double_aligned_tiled_mergesort sorts/double_aligned_tiled_mergesort352842048.c simpleMain.c -o double_aligned_tiled_mergesort1810407978
	sim-cache -cache:dl1 dl1:256:32:1:l -cache:dl2 dl2:131072:32:1:l -cache:il1 il1:256:32:1:l -cache:il2 dl2 double_aligned_tiled_mergesort1810407978
	sim-cache -cache:dl1 dl1:256:32:1:l -cache:dl2 dl2:65536:32:1:l -cache:il1 il1:256:32:1:l -cache:il2 dl2 double_aligned_tiled_mergesort1810407978
	sim-cache -cache:dl1 dl1:1:32:256:l -cache:dl2 dl2:1:32:131072:l -cache:il1 il1:1:32:256:l -cache:il2 dl2 double_aligned_tiled_mergesort1810407978
	sim-cache -cache:dl1 dl1:1:32:256:l -cache:dl2 dl2:1:32:65536:l -cache:il1 il1:1:32:256:l -cache:il2 dl2 double_aligned_tiled_mergesort1810407978
	sim-bpred -bpred bimod -bpred:bimod 512 double_aligned_tiled_mergesort1810407978
	sim-bpred -bpred bimod -bpred:bimod 1024 double_aligned_tiled_mergesort1810407978
	sim-bpred -bpred bimod -bpred:bimod 2048 double_aligned_tiled_mergesort1810407978
	sim-bpred -bpred 2lev -bpred:2lev 1 512 10 1 double_aligned_tiled_mergesort1810407978
	sim-bpred -bpred 2lev -bpred:2lev 1 1024 10 1 double_aligned_tiled_mergesort1810407978
	sim-bpred -bpred 2lev -bpred:2lev 1 2048 10 1 double_aligned_tiled_mergesort1810407978
	sim-bpred -bpred 2lev -bpred:2lev 1 4096 10 1 double_aligned_tiled_mergesort1810407978
	sslittle-na-sstrix-gcc -Wall -O3 -funroll-loops -finline-functions  -DRANDOM_SIZE=262144 -DOFFSET=1 -DSORT=double_aligned_tiled_mergesort sorts/double_aligned_tiled_mergesort352842048.c simpleMain.c -o double_aligned_tiled_mergesort1810407978
	sim-cache -cache:dl1 dl1:256:32:1:l -cache:dl2 dl2:131072:32:1:l -cache:il1 il1:256:32:1:l -cache:il2 dl2 double_aligned_tiled_mergesort1810407978
	sim-cache -cache:dl1 dl1:256:32:1:l -cache:dl2 dl2:65536:32:1:l -cache:il1 il1:256:32:1:l -cache:il2 dl2 double_aligned_tiled_mergesort1810407978
	sim-cache -cache:dl1 dl1:1:32:256:l -cache:dl2 dl2:1:32:131072:l -cache:il1 il1:1:32:256:l -cache:il2 dl2 double_aligned_tiled_mergesort1810407978
	sim-cache -cache:dl1 dl1:1:32:256:l -cache:dl2 dl2:1:32:65536:l -cache:il1 il1:1:32:256:l -cache:il2 dl2 double_aligned_tiled_mergesort1810407978
	sim-bpred -bpred bimod -bpred:bimod 512 double_aligned_tiled_mergesort1810407978
	sim-bpred -bpred bimod -bpred:bimod 1024 double_aligned_tiled_mergesort1810407978
	sim-bpred -bpred bimod -bpred:bimod 2048 double_aligned_tiled_mergesort1810407978
	sim-bpred -bpred 2lev -bpred:2lev 1 512 10 1 double_aligned_tiled_mergesort1810407978
	sim-bpred -bpred 2lev -bpred:2lev 1 1024 10 1 double_aligned_tiled_mergesort1810407978
	sim-bpred -bpred 2lev -bpred:2lev 1 2048 10 1 double_aligned_tiled_mergesort1810407978
	sim-bpred -bpred 2lev -bpred:2lev 1 4096 10 1 double_aligned_tiled_mergesort1810407978
	sslittle-na-sstrix-gcc -Wall -O3 -funroll-loops -finline-functions  -DRANDOM_SIZE=524288 -DOFFSET=1 -DSORT=double_aligned_tiled_mergesort sorts/double_aligned_tiled_mergesort352842048.c simpleMain.c -o double_aligned_tiled_mergesort1810407978
	sim-cache -cache:dl1 dl1:256:32:1:l -cache:dl2 dl2:131072:32:1:l -cache:il1 il1:256:32:1:l -cache:il2 dl2 double_aligned_tiled_mergesort1810407978
	sim-cache -cache:dl1 dl1:256:32:1:l -cache:dl2 dl2:65536:32:1:l -cache:il1 il1:256:32:1:l -cache:il2 dl2 double_aligned_tiled_mergesort1810407978
	sim-cache -cache:dl1 dl1:1:32:256:l -cache:dl2 dl2:1:32:131072:l -cache:il1 il1:1:32:256:l -cache:il2 dl2 double_aligned_tiled_mergesort1810407978
	sim-cache -cache:dl1 dl1:1:32:256:l -cache:dl2 dl2:1:32:65536:l -cache:il1 il1:1:32:256:l -cache:il2 dl2 double_aligned_tiled_mergesort1810407978
	sim-bpred -bpred bimod -bpred:bimod 512 double_aligned_tiled_mergesort1810407978
	sim-bpred -bpred bimod -bpred:bimod 1024 double_aligned_tiled_mergesort1810407978
	sim-bpred -bpred bimod -bpred:bimod 2048 double_aligned_tiled_mergesort1810407978
	sim-bpred -bpred 2lev -bpred:2lev 1 512 10 1 double_aligned_tiled_mergesort1810407978
	sim-bpred -bpred 2lev -bpred:2lev 1 1024 10 1 double_aligned_tiled_mergesort1810407978
	sim-bpred -bpred 2lev -bpred:2lev 1 2048 10 1 double_aligned_tiled_mergesort1810407978
	sim-bpred -bpred 2lev -bpred:2lev 1 4096 10 1 double_aligned_tiled_mergesort1810407978
	sslittle-na-sstrix-gcc -Wall -O3 -funroll-loops -finline-functions  -DRANDOM_SIZE=1048576 -DOFFSET=1 -DSORT=double_aligned_tiled_mergesort sorts/double_aligned_tiled_mergesort352842048.c simpleMain.c -o double_aligned_tiled_mergesort1810407978
	sim-cache -cache:dl1 dl1:256:32:1:l -cache:dl2 dl2:131072:32:1:l -cache:il1 il1:256:32:1:l -cache:il2 dl2 double_aligned_tiled_mergesort1810407978
	sim-cache -cache:dl1 dl1:256:32:1:l -cache:dl2 dl2:65536:32:1:l -cache:il1 il1:256:32:1:l -cache:il2 dl2 double_aligned_tiled_mergesort1810407978
	sim-cache -cache:dl1 dl1:1:32:256:l -cache:dl2 dl2:1:32:131072:l -cache:il1 il1:1:32:256:l -cache:il2 dl2 double_aligned_tiled_mergesort1810407978
	sim-cache -cache:dl1 dl1:1:32:256:l -cache:dl2 dl2:1:32:65536:l -cache:il1 il1:1:32:256:l -cache:il2 dl2 double_aligned_tiled_mergesort1810407978
	sim-bpred -bpred bimod -bpred:bimod 512 double_aligned_tiled_mergesort1810407978
	sim-bpred -bpred bimod -bpred:bimod 1024 double_aligned_tiled_mergesort1810407978
	sim-bpred -bpred bimod -bpred:bimod 2048 double_aligned_tiled_mergesort1810407978
	sim-bpred -bpred 2lev -bpred:2lev 1 512 10 1 double_aligned_tiled_mergesort1810407978
	sim-bpred -bpred 2lev -bpred:2lev 1 1024 10 1 double_aligned_tiled_mergesort1810407978
	sim-bpred -bpred 2lev -bpred:2lev 1 2048 10 1 double_aligned_tiled_mergesort1810407978
	sim-bpred -bpred 2lev -bpred:2lev 1 4096 10 1 double_aligned_tiled_mergesort1810407978
	sslittle-na-sstrix-gcc -Wall -O3 -funroll-loops -finline-functions  -DRANDOM_SIZE=2097152 -DOFFSET=1 -DSORT=double_aligned_tiled_mergesort sorts/double_aligned_tiled_mergesort352842048.c simpleMain.c -o double_aligned_tiled_mergesort1810407978
	sim-cache -cache:dl1 dl1:256:32:1:l -cache:dl2 dl2:131072:32:1:l -cache:il1 il1:256:32:1:l -cache:il2 dl2 double_aligned_tiled_mergesort1810407978
	sim-cache -cache:dl1 dl1:256:32:1:l -cache:dl2 dl2:65536:32:1:l -cache:il1 il1:256:32:1:l -cache:il2 dl2 double_aligned_tiled_mergesort1810407978
	sim-cache -cache:dl1 dl1:1:32:256:l -cache:dl2 dl2:1:32:131072:l -cache:il1 il1:1:32:256:l -cache:il2 dl2 double_aligned_tiled_mergesort1810407978
	sim-cache -cache:dl1 dl1:1:32:256:l -cache:dl2 dl2:1:32:65536:l -cache:il1 il1:1:32:256:l -cache:il2 dl2 double_aligned_tiled_mergesort1810407978
	sim-bpred -bpred bimod -bpred:bimod 512 double_aligned_tiled_mergesort1810407978
	sim-bpred -bpred bimod -bpred:bimod 1024 double_aligned_tiled_mergesort1810407978
	sim-bpred -bpred bimod -bpred:bimod 2048 double_aligned_tiled_mergesort1810407978
	sim-bpred -bpred 2lev -bpred:2lev 1 512 10 1 double_aligned_tiled_mergesort1810407978
	sim-bpred -bpred 2lev -bpred:2lev 1 1024 10 1 double_aligned_tiled_mergesort1810407978
	sim-bpred -bpred 2lev -bpred:2lev 1 2048 10 1 double_aligned_tiled_mergesort1810407978
	sim-bpred -bpred 2lev -bpred:2lev 1 4096 10 1 double_aligned_tiled_mergesort1810407978
	sslittle-na-sstrix-gcc -Wall -O3 -funroll-loops -finline-functions  -DRANDOM_SIZE=4194304 -DOFFSET=1 -DSORT=double_aligned_tiled_mergesort sorts/double_aligned_tiled_mergesort352842048.c simpleMain.c -o double_aligned_tiled_mergesort1810407978
	sim-cache -cache:dl1 dl1:256:32:1:l -cache:dl2 dl2:131072:32:1:l -cache:il1 il1:256:32:1:l -cache:il2 dl2 double_aligned_tiled_mergesort1810407978
	sim-cache -cache:dl1 dl1:256:32:1:l -cache:dl2 dl2:65536:32:1:l -cache:il1 il1:256:32:1:l -cache:il2 dl2 double_aligned_tiled_mergesort1810407978
	sim-cache -cache:dl1 dl1:1:32:256:l -cache:dl2 dl2:1:32:131072:l -cache:il1 il1:1:32:256:l -cache:il2 dl2 double_aligned_tiled_mergesort1810407978
	sim-cache -cache:dl1 dl1:1:32:256:l -cache:dl2 dl2:1:32:65536:l -cache:il1 il1:1:32:256:l -cache:il2 dl2 double_aligned_tiled_mergesort1810407978
	sim-bpred -bpred bimod -bpred:bimod 512 double_aligned_tiled_mergesort1810407978
	sim-bpred -bpred bimod -bpred:bimod 1024 double_aligned_tiled_mergesort1810407978
	sim-bpred -bpred bimod -bpred:bimod 2048 double_aligned_tiled_mergesort1810407978
	sim-bpred -bpred 2lev -bpred:2lev 1 512 10 1 double_aligned_tiled_mergesort1810407978
	sim-bpred -bpred 2lev -bpred:2lev 1 1024 10 1 double_aligned_tiled_mergesort1810407978
	sim-bpred -bpred 2lev -bpred:2lev 1 2048 10 1 double_aligned_tiled_mergesort1810407978
	sim-bpred -bpred 2lev -bpred:2lev 1 4096 10 1 double_aligned_tiled_mergesort1810407978
