Sat Jul 30 20:30:40 2005
Run as: "./do_simple -c random.org8 -o 8 double_multi_mergesort"
-------------------------------------------------------------------------------------------------
sim-cache                                     4096 |         4096 |         4096 |         4096 |         8192 |         8192 |         8192 |         8192 |        16384 |        16384 |        16384 |        16384 |        32768 |        32768 |        32768 |        32768 |        65536 |        65536 |        65536 |        65536 |       131072 |       131072 |       131072 |       131072 |       262144 |       262144 |       262144 |       262144 |       524288 |       524288 |       524288 |       524288 |      1048576 |      1048576 |      1048576 |      1048576 |      2097152 |      2097152 |      2097152 |      2097152 |      4194304 |      4194304 |      4194304 |      4194304 |
-cache:dl1 dl1:256:32:1:l -cache:dl2 dl2:131072:32:1:l -cache:il1 il1:256:32:1:l -cache:il2 dl2
-cache:dl1 dl1:256:32:1:l -cache:dl2 dl2:65536:32:1:l -cache:il1 il1:256:32:1:l -cache:il2 dl2
-cache:dl1 dl1:1:32:256:l -cache:dl2 dl2:1:32:131072:l -cache:il1 il1:1:32:256:l -cache:il2 dl2
-cache:dl1 dl1:1:32:256:l -cache:dl2 dl2:1:32:65536:l -cache:il1 il1:1:32:256:l -cache:il2 dl2
-------------------------------------------------------------------------------------------------
sim_num_insn                                858224 |       858224 |       858224 |       858224 |      1747582 |      1747582 |      1747582 |      1747582 |      3957624 |      3957624 |      3957624 |      3957624 |      8062360 |      8062360 |      8062360 |      8062360 |     17976812 |     17976812 |     17976812 |     17976812 |     36558984 |     36558984 |     36558984 |     36558984 |     77447344 |     77447344 |     77447344 |     77447344 |    223391769 |    223391769 |    223391769 |    223391769 |    473207821 |    473207821 |    473207821 |    473207821 |   1035743097 |   1035743097 |   1035743097 |   1035743097 |   2186734971 |   2186734971 |   2186734971 |   2186734971 |
sim_num_refs                                228636 |       228636 |       228636 |       228636 |       471312 |       471312 |       471312 |       471312 |      1051204 |      1051204 |      1051204 |      1051204 |      2170693 |      2170693 |      2170693 |      2170693 |      4783508 |      4783508 |      4783508 |      4783508 |      9852375 |      9852375 |      9852375 |      9852375 |     20882504 |     20882504 |     20882504 |     20882504 |     60943916 |     60943916 |     60943916 |     60943916 |    130159669 |    130159669 |    130159669 |    130159669 |    283195234 |    283195234 |    283195234 |    283195234 |    604326559 |    604326559 |    604326559 |    604326559 |
sim_elapsed_time                                 1 |            1 |           11 |            5 |            1 |            1 |           16 |            8 |            2 |            1 |           26 |           14 |            2 |            2 |           48 |           25 |            5 |            4 |           89 |           45 |           10 |           10 |          162 |           76 |           21 |           20 |          279 |          107 |           59 |           60 |          403 |          148 |          126 |          126 |          472 |          220 |          276 |          277 |          634 |          381 |          584 |          583 |          961 |          712 |
sim_inst_rate                          858224.0000 |  858224.0000 |   78020.3636 |  171644.8000 | 1747582.0000 | 1747582.0000 |  109223.8750 |  218447.7500 | 1978812.0000 | 3957624.0000 |  152216.3077 |  282687.4286 | 4031180.0000 | 4031180.0000 |  167965.8333 |  322494.4000 | 3595362.4000 | 4494203.0000 |  201986.6517 |  399484.7111 | 3655898.4000 | 3655898.4000 |  225672.7407 |  481039.2632 | 3687968.7619 | 3872367.2000 |  277589.0466 |  723806.9533 | 3786301.1695 | 3723196.1500 |  554322.0074 | 1509403.8446 | 3755617.6270 | 3755617.6270 | 1002558.9428 | 2150944.6409 | 3752692.3804 | 3739144.7545 | 1633664.1909 | 2718485.8189 | 3744409.1969 | 3750831.8542 | 2275478.6379 | 3071256.9817 |
il1.accesses                                858224 |       858224 |       858224 |       858224 |      1747582 |      1747582 |      1747582 |      1747582 |      3957624 |      3957624 |      3957624 |      3957624 |      8062360 |      8062360 |      8062360 |      8062360 |     17976812 |     17976812 |     17976812 |     17976812 |     36558984 |     36558984 |     36558984 |     36558984 |     77447344 |     77447344 |     77447344 |     77447344 |    223391769 |    223391769 |    223391769 |    223391769 |    473207821 |    473207821 |    473207821 |    473207821 |   1035743097 |   1035743097 |   1035743097 |   1035743097 |   2186734971 |   2186734971 |   2186734971 |   2186734971 |
il1.hits                                    857538 |       857538 |       857643 |       857643 |      1746851 |      1746851 |      1746980 |      1746980 |      3956878 |      3956878 |      3957050 |      3957050 |      8061482 |      8061482 |      8061755 |      8061755 |     17975764 |     17975764 |     17976229 |     17976229 |     36557528 |     36557528 |     36558378 |     36558378 |     77445630 |     77445630 |     77446741 |     77446741 |    222080038 |    222080038 |    223390877 |    223390877 |    470585320 |    470585320 |    473206884 |    473206884 |   1030499168 |   1030499168 |   1035742176 |   1035742176 |   2176248122 |   2176248122 |   2186734032 |   2186734032 |
il1.misses                                     686 |          686 |          581 |          581 |          731 |          731 |          602 |          602 |          746 |          746 |          574 |          574 |          878 |          878 |          605 |          605 |         1048 |         1048 |          583 |          583 |         1456 |         1456 |          606 |          606 |         1714 |         1714 |          603 |          603 |      1311731 |      1311731 |          892 |          892 |      2622501 |      2622501 |          937 |          937 |      5243929 |      5243929 |          921 |          921 |     10486849 |     10486849 |          939 |          939 |
il1.replacements                               452 |          452 |          325 |          325 |          495 |          495 |          346 |          346 |          511 |          511 |          318 |          318 |          642 |          642 |          349 |          349 |          813 |          813 |          327 |          327 |         1220 |         1220 |          350 |          350 |         1477 |         1477 |          347 |          347 |      1311475 |      1311475 |          636 |          636 |      2622245 |      2622245 |          681 |          681 |      5243673 |      5243673 |          665 |          665 |     10486593 |     10486593 |          683 |          683 |
il1.writebacks                                   0 |            0 |            0 |            0 |            0 |            0 |            0 |            0 |            0 |            0 |            0 |            0 |            0 |            0 |            0 |            0 |            0 |            0 |            0 |            0 |            0 |            0 |            0 |            0 |            0 |            0 |            0 |            0 |            0 |            0 |            0 |            0 |            0 |            0 |            0 |            0 |            0 |            0 |            0 |            0 |            0 |            0 |            0 |            0 |
il1.invalidations                                0 |            0 |            0 |            0 |            0 |            0 |            0 |            0 |            0 |            0 |            0 |            0 |            0 |            0 |            0 |            0 |            0 |            0 |            0 |            0 |            0 |            0 |            0 |            0 |            0 |            0 |            0 |            0 |            0 |            0 |            0 |            0 |            0 |            0 |            0 |            0 |            0 |            0 |            0 |            0 |            0 |            0 |            0 |            0 |
il1.miss_rate                               0.0008 |       0.0008 |       0.0007 |       0.0007 |       0.0004 |       0.0004 |       0.0003 |       0.0003 |       0.0002 |       0.0002 |       0.0001 |       0.0001 |       0.0001 |       0.0001 |       0.0001 |       0.0001 |       0.0001 |       0.0001 |       0.0000 |       0.0000 |       0.0000 |       0.0000 |       0.0000 |       0.0000 |       0.0000 |       0.0000 |       0.0000 |       0.0000 |       0.0059 |       0.0059 |       0.0000 |       0.0000 |       0.0055 |       0.0055 |       0.0000 |       0.0000 |       0.0051 |       0.0051 |       0.0000 |       0.0000 |       0.0048 |       0.0048 |       0.0000 |       0.0000 |
il1.repl_rate                               0.0005 |       0.0005 |       0.0004 |       0.0004 |       0.0003 |       0.0003 |       0.0002 |       0.0002 |       0.0001 |       0.0001 |       0.0001 |       0.0001 |       0.0001 |       0.0001 |       0.0000 |       0.0000 |       0.0000 |       0.0000 |       0.0000 |       0.0000 |       0.0000 |       0.0000 |       0.0000 |       0.0000 |       0.0000 |       0.0000 |       0.0000 |       0.0000 |       0.0059 |       0.0059 |       0.0000 |       0.0000 |       0.0055 |       0.0055 |       0.0000 |       0.0000 |       0.0051 |       0.0051 |       0.0000 |       0.0000 |       0.0048 |       0.0048 |       0.0000 |       0.0000 |
il1.wb_rate                                 0.0000 |       0.0000 |       0.0000 |       0.0000 |       0.0000 |       0.0000 |       0.0000 |       0.0000 |       0.0000 |       0.0000 |       0.0000 |       0.0000 |       0.0000 |       0.0000 |       0.0000 |       0.0000 |       0.0000 |       0.0000 |       0.0000 |       0.0000 |       0.0000 |       0.0000 |       0.0000 |       0.0000 |       0.0000 |       0.0000 |       0.0000 |       0.0000 |       0.0000 |       0.0000 |       0.0000 |       0.0000 |       0.0000 |       0.0000 |       0.0000 |       0.0000 |       0.0000 |       0.0000 |       0.0000 |       0.0000 |       0.0000 |       0.0000 |       0.0000 |       0.0000 |
il1.inv_rate                                0.0000 |       0.0000 |       0.0000 |       0.0000 |       0.0000 |       0.0000 |       0.0000 |       0.0000 |       0.0000 |       0.0000 |       0.0000 |       0.0000 |       0.0000 |       0.0000 |       0.0000 |       0.0000 |       0.0000 |       0.0000 |       0.0000 |       0.0000 |       0.0000 |       0.0000 |       0.0000 |       0.0000 |       0.0000 |       0.0000 |       0.0000 |       0.0000 |       0.0000 |       0.0000 |       0.0000 |       0.0000 |       0.0000 |       0.0000 |       0.0000 |       0.0000 |       0.0000 |       0.0000 |       0.0000 |       0.0000 |       0.0000 |       0.0000 |       0.0000 |       0.0000 |
dl1.accesses                                245102 |       245102 |       245102 |       245102 |       504162 |       504162 |       504162 |       504162 |      1116822 |      1116822 |      1116822 |      1116822 |      2301847 |      2301847 |      2301847 |      2301847 |      5045734 |      5045734 |      5045734 |      5045734 |     10376745 |     10376745 |     10376745 |     10376745 |     21931162 |     21931162 |     21931162 |     21931162 |     63041150 |     63041150 |     63041150 |     63041150 |    134354055 |    134354055 |    134354055 |    134354055 |    291583924 |    291583924 |    291583924 |    291583924 |    621103857 |    621103857 |    621103857 |    621103857 |
dl1.hits                                    239732 |       239732 |       238136 |       238136 |       491603 |       491603 |       489953 |       489953 |      1087637 |      1087637 |      1082206 |      1082206 |      2235050 |      2235050 |      2230050 |      2230050 |      4893953 |      4893953 |      4876045 |      4876045 |     10037364 |     10037364 |     10025419 |     10025419 |     21180223 |     21180223 |     21163559 |     21163559 |     61236020 |     61236020 |     61292385 |     61292385 |    130737415 |    130737415 |    131021265 |    131021265 |    284334090 |    284334090 |    284595334 |    284595334 |    606559890 |    606559890 |    607775754 |    607775754 |
dl1.misses                                    5370 |         5370 |         6966 |         6966 |        12559 |        12559 |        14209 |        14209 |        29185 |        29185 |        34616 |        34616 |        66797 |        66797 |        71797 |        71797 |       151781 |       151781 |       169689 |       169689 |       339381 |       339381 |       351326 |       351326 |       750939 |       750939 |       767603 |       767603 |      1805130 |      1805130 |      1748765 |      1748765 |      3616640 |      3616640 |      3332790 |      3332790 |      7249834 |      7249834 |      6988590 |      6988590 |     14543967 |     14543967 |     13328103 |     13328103 |
dl1.replacements                              5114 |         5114 |         6710 |         6710 |        12303 |        12303 |        13953 |        13953 |        28929 |        28929 |        34360 |        34360 |        66541 |        66541 |        71541 |        71541 |       151525 |       151525 |       169433 |       169433 |       339125 |       339125 |       351070 |       351070 |       750683 |       750683 |       767347 |       767347 |      1804874 |      1804874 |      1748509 |      1748509 |      3616384 |      3616384 |      3332534 |      3332534 |      7249578 |      7249578 |      6988334 |      6988334 |     14543711 |     14543711 |     13327847 |     13327847 |
dl1.writebacks                                3491 |         3491 |         5072 |         5072 |         7775 |         7775 |         9791 |         9791 |        17452 |        17452 |        23429 |        23429 |        38788 |        38788 |        46379 |        46379 |        86020 |        86020 |       108995 |       108995 |       188876 |       188876 |       217415 |       217415 |       411832 |       411832 |       467104 |       467104 |      1045502 |      1045502 |      1067536 |      1067536 |      2095203 |      2095203 |      1999649 |      1999649 |      4211123 |      4211123 |      4266157 |      4266157 |      8457251 |      8457251 |      7997828 |      7997828 |
dl1.invalidations                                0 |            0 |            0 |            0 |            0 |            0 |            0 |            0 |            0 |            0 |            0 |            0 |            0 |            0 |            0 |            0 |            0 |            0 |            0 |            0 |            0 |            0 |            0 |            0 |            0 |            0 |            0 |            0 |            0 |            0 |            0 |            0 |            0 |            0 |            0 |            0 |            0 |            0 |            0 |            0 |            0 |            0 |            0 |            0 |
dl1.miss_rate                               0.0219 |       0.0219 |       0.0284 |       0.0284 |       0.0249 |       0.0249 |       0.0282 |       0.0282 |       0.0261 |       0.0261 |       0.0310 |       0.0310 |       0.0290 |       0.0290 |       0.0312 |       0.0312 |       0.0301 |       0.0301 |       0.0336 |       0.0336 |       0.0327 |       0.0327 |       0.0339 |       0.0339 |       0.0342 |       0.0342 |       0.0350 |       0.0350 |       0.0286 |       0.0286 |       0.0277 |       0.0277 |       0.0269 |       0.0269 |       0.0248 |       0.0248 |       0.0249 |       0.0249 |       0.0240 |       0.0240 |       0.0234 |       0.0234 |       0.0215 |       0.0215 |
dl1.repl_rate                               0.0209 |       0.0209 |       0.0274 |       0.0274 |       0.0244 |       0.0244 |       0.0277 |       0.0277 |       0.0259 |       0.0259 |       0.0308 |       0.0308 |       0.0289 |       0.0289 |       0.0311 |       0.0311 |       0.0300 |       0.0300 |       0.0336 |       0.0336 |       0.0327 |       0.0327 |       0.0338 |       0.0338 |       0.0342 |       0.0342 |       0.0350 |       0.0350 |       0.0286 |       0.0286 |       0.0277 |       0.0277 |       0.0269 |       0.0269 |       0.0248 |       0.0248 |       0.0249 |       0.0249 |       0.0240 |       0.0240 |       0.0234 |       0.0234 |       0.0215 |       0.0215 |
dl1.wb_rate                                 0.0142 |       0.0142 |       0.0207 |       0.0207 |       0.0154 |       0.0154 |       0.0194 |       0.0194 |       0.0156 |       0.0156 |       0.0210 |       0.0210 |       0.0169 |       0.0169 |       0.0201 |       0.0201 |       0.0170 |       0.0170 |       0.0216 |       0.0216 |       0.0182 |       0.0182 |       0.0210 |       0.0210 |       0.0188 |       0.0188 |       0.0213 |       0.0213 |       0.0166 |       0.0166 |       0.0169 |       0.0169 |       0.0156 |       0.0156 |       0.0149 |       0.0149 |       0.0144 |       0.0144 |       0.0146 |       0.0146 |       0.0136 |       0.0136 |       0.0129 |       0.0129 |
dl1.inv_rate                                0.0000 |       0.0000 |       0.0000 |       0.0000 |       0.0000 |       0.0000 |       0.0000 |       0.0000 |       0.0000 |       0.0000 |       0.0000 |       0.0000 |       0.0000 |       0.0000 |       0.0000 |       0.0000 |       0.0000 |       0.0000 |       0.0000 |       0.0000 |       0.0000 |       0.0000 |       0.0000 |       0.0000 |       0.0000 |       0.0000 |       0.0000 |       0.0000 |       0.0000 |       0.0000 |       0.0000 |       0.0000 |       0.0000 |       0.0000 |       0.0000 |       0.0000 |       0.0000 |       0.0000 |       0.0000 |       0.0000 |       0.0000 |       0.0000 |       0.0000 |       0.0000 |
dl2.accesses                                  9547 |         9547 |        12619 |        12619 |        21065 |        21065 |        24602 |        24602 |        47383 |        47383 |        58619 |        58619 |       106463 |       106463 |       118781 |       118781 |       238849 |       238849 |       279267 |       279267 |       529713 |       529713 |       569347 |       569347 |      1164485 |      1164485 |      1235310 |      1235310 |      4162363 |      4162363 |      2817193 |      2817193 |      8334344 |      8334344 |      5333376 |      5333376 |     16704886 |     16704886 |     11255668 |     11255668 |     33488067 |     33488067 |     21326870 |     21326870 |
dl2.hits                                      7506 |         7506 |        10651 |        10651 |        17959 |        17959 |        21593 |        21593 |        42273 |        42273 |        53585 |        53585 |        97211 |        97211 |       109626 |       109626 |       221443 |       221443 |       261937 |       261937 |       495884 |       495884 |       535615 |       535615 |      1097900 |      1095317 |      1168814 |      1132196 |      3974726 |      3869804 |      2647958 |      2425842 |      7740682 |      7670053 |      4686160 |      4554071 |     15373479 |     15372005 |      9946263 |      9700255 |     30825570 |     30824307 |     18702876 |     18218000 |
dl2.misses                                    2041 |         2041 |         1968 |         1968 |         3106 |         3106 |         3009 |         3009 |         5110 |         5110 |         5034 |         5034 |         9252 |         9252 |         9155 |         9155 |        17406 |        17406 |        17330 |        17330 |        33829 |        33829 |        33732 |        33732 |        66585 |        69168 |        66496 |       103114 |       187637 |       292559 |       169235 |       391351 |       593662 |       664291 |       647216 |       779305 |      1331407 |      1332881 |      1309405 |      1555413 |      2662497 |      2663760 |      2623994 |      3108870 |
dl2.replacements                               233 |          233 |            0 |            0 |          273 |          273 |            0 |            0 |          236 |          236 |            0 |            0 |          273 |          273 |            0 |            0 |          236 |          236 |            0 |            0 |          274 |          274 |            0 |            0 |          258 |         3748 |            0 |        37578 |        87751 |       227023 |        38163 |       325815 |       462590 |       598755 |       516144 |       713769 |      1200335 |      1267345 |      1178333 |      1489877 |      2531425 |      2598224 |      2492922 |      3043334 |
dl2.writebacks                                 104 |          104 |            0 |            0 |          104 |          104 |            0 |            0 |          107 |          107 |            0 |            0 |          104 |          104 |            0 |            0 |          107 |          107 |            0 |            0 |          105 |          105 |            0 |            0 |           95 |         2231 |            0 |        37118 |        87489 |       190804 |        37332 |       291951 |       393696 |       478254 |       460430 |       614240 |       960018 |      1001853 |       985374 |      1259137 |      2004894 |      2058944 |      2035345 |      2550122 |
dl2.invalidations                                0 |            0 |            0 |            0 |            0 |            0 |            0 |            0 |            0 |            0 |            0 |            0 |            0 |            0 |            0 |            0 |            0 |            0 |            0 |            0 |            0 |            0 |            0 |            0 |            0 |            0 |            0 |            0 |            0 |            0 |            0 |            0 |            0 |            0 |            0 |            0 |            0 |            0 |            0 |            0 |            0 |            0 |            0 |            0 |
dl2.miss_rate                               0.2138 |       0.2138 |       0.1560 |       0.1560 |       0.1474 |       0.1474 |       0.1223 |       0.1223 |       0.1078 |       0.1078 |       0.0859 |       0.0859 |       0.0869 |       0.0869 |       0.0771 |       0.0771 |       0.0729 |       0.0729 |       0.0621 |       0.0621 |       0.0639 |       0.0639 |       0.0592 |       0.0592 |       0.0572 |       0.0594 |       0.0538 |       0.0835 |       0.0451 |       0.0703 |       0.0601 |       0.1389 |       0.0712 |       0.0797 |       0.1214 |       0.1461 |       0.0797 |       0.0798 |       0.1163 |       0.1382 |       0.0795 |       0.0795 |       0.1230 |       0.1458 |
dl2.repl_rate                               0.0244 |       0.0244 |       0.0000 |       0.0000 |       0.0130 |       0.0130 |       0.0000 |       0.0000 |       0.0050 |       0.0050 |       0.0000 |       0.0000 |       0.0026 |       0.0026 |       0.0000 |       0.0000 |       0.0010 |       0.0010 |       0.0000 |       0.0000 |       0.0005 |       0.0005 |       0.0000 |       0.0000 |       0.0002 |       0.0032 |       0.0000 |       0.0304 |       0.0211 |       0.0545 |       0.0135 |       0.1157 |       0.0555 |       0.0718 |       0.0968 |       0.1338 |       0.0719 |       0.0759 |       0.1047 |       0.1324 |       0.0756 |       0.0776 |       0.1169 |       0.1427 |
dl2.wb_rate                                 0.0109 |       0.0109 |       0.0000 |       0.0000 |       0.0049 |       0.0049 |       0.0000 |       0.0000 |       0.0023 |       0.0023 |       0.0000 |       0.0000 |       0.0010 |       0.0010 |       0.0000 |       0.0000 |       0.0004 |       0.0004 |       0.0000 |       0.0000 |       0.0002 |       0.0002 |       0.0000 |       0.0000 |       0.0001 |       0.0019 |       0.0000 |       0.0300 |       0.0210 |       0.0458 |       0.0133 |       0.1036 |       0.0472 |       0.0574 |       0.0863 |       0.1152 |       0.0575 |       0.0600 |       0.0875 |       0.1119 |       0.0599 |       0.0615 |       0.0954 |       0.1196 |
dl2.inv_rate                                0.0000 |       0.0000 |       0.0000 |       0.0000 |       0.0000 |       0.0000 |       0.0000 |       0.0000 |       0.0000 |       0.0000 |       0.0000 |       0.0000 |       0.0000 |       0.0000 |       0.0000 |       0.0000 |       0.0000 |       0.0000 |       0.0000 |       0.0000 |       0.0000 |       0.0000 |       0.0000 |       0.0000 |       0.0000 |       0.0000 |       0.0000 |       0.0000 |       0.0000 |       0.0000 |       0.0000 |       0.0000 |       0.0000 |       0.0000 |       0.0000 |       0.0000 |       0.0000 |       0.0000 |       0.0000 |       0.0000 |       0.0000 |       0.0000 |       0.0000 |       0.0000 |
itlb.accesses                               858224 |       858224 |       858224 |       858224 |      1747582 |      1747582 |      1747582 |      1747582 |      3957624 |      3957624 |      3957624 |      3957624 |      8062360 |      8062360 |      8062360 |      8062360 |     17976812 |     17976812 |     17976812 |     17976812 |     36558984 |     36558984 |     36558984 |     36558984 |     77447344 |     77447344 |     77447344 |     77447344 |    223391769 |    223391769 |    223391769 |    223391769 |    473207821 |    473207821 |    473207821 |    473207821 |   1035743097 |   1035743097 |   1035743097 |   1035743097 |   2186734971 |   2186734971 |   2186734971 |   2186734971 |
itlb.hits                                   858210 |       858210 |       858210 |       858210 |      1747568 |      1747568 |      1747568 |      1747568 |      3957610 |      3957610 |      3957610 |      3957610 |      8062346 |      8062346 |      8062346 |      8062346 |     17976798 |     17976798 |     17976798 |     17976798 |     36558970 |     36558970 |     36558970 |     36558970 |     77447330 |     77447330 |     77447330 |     77447330 |    223391755 |    223391755 |    223391755 |    223391755 |    473207807 |    473207807 |    473207807 |    473207807 |   1035743083 |   1035743083 |   1035743083 |   1035743083 |   2186734957 |   2186734957 |   2186734957 |   2186734957 |
itlb.misses                                     14 |           14 |           14 |           14 |           14 |           14 |           14 |           14 |           14 |           14 |           14 |           14 |           14 |           14 |           14 |           14 |           14 |           14 |           14 |           14 |           14 |           14 |           14 |           14 |           14 |           14 |           14 |           14 |           14 |           14 |           14 |           14 |           14 |           14 |           14 |           14 |           14 |           14 |           14 |           14 |           14 |           14 |           14 |           14 |
itlb.replacements                                0 |            0 |            0 |            0 |            0 |            0 |            0 |            0 |            0 |            0 |            0 |            0 |            0 |            0 |            0 |            0 |            0 |            0 |            0 |            0 |            0 |            0 |            0 |            0 |            0 |            0 |            0 |            0 |            0 |            0 |            0 |            0 |            0 |            0 |            0 |            0 |            0 |            0 |            0 |            0 |            0 |            0 |            0 |            0 |
itlb.writebacks                                  0 |            0 |            0 |            0 |            0 |            0 |            0 |            0 |            0 |            0 |            0 |            0 |            0 |            0 |            0 |            0 |            0 |            0 |            0 |            0 |            0 |            0 |            0 |            0 |            0 |            0 |            0 |            0 |            0 |            0 |            0 |            0 |            0 |            0 |            0 |            0 |            0 |            0 |            0 |            0 |            0 |            0 |            0 |            0 |
itlb.invalidations                               0 |            0 |            0 |            0 |            0 |            0 |            0 |            0 |            0 |            0 |            0 |            0 |            0 |            0 |            0 |            0 |            0 |            0 |            0 |            0 |            0 |            0 |            0 |            0 |            0 |            0 |            0 |            0 |            0 |            0 |            0 |            0 |            0 |            0 |            0 |            0 |            0 |            0 |            0 |            0 |            0 |            0 |            0 |            0 |
itlb.miss_rate                              0.0000 |       0.0000 |       0.0000 |       0.0000 |       0.0000 |       0.0000 |       0.0000 |       0.0000 |       0.0000 |       0.0000 |       0.0000 |       0.0000 |       0.0000 |       0.0000 |       0.0000 |       0.0000 |       0.0000 |       0.0000 |       0.0000 |       0.0000 |       0.0000 |       0.0000 |       0.0000 |       0.0000 |       0.0000 |       0.0000 |       0.0000 |       0.0000 |       0.0000 |       0.0000 |       0.0000 |       0.0000 |       0.0000 |       0.0000 |       0.0000 |       0.0000 |       0.0000 |       0.0000 |       0.0000 |       0.0000 |       0.0000 |       0.0000 |       0.0000 |       0.0000 |
itlb.repl_rate                              0.0000 |       0.0000 |       0.0000 |       0.0000 |       0.0000 |       0.0000 |       0.0000 |       0.0000 |       0.0000 |       0.0000 |       0.0000 |       0.0000 |       0.0000 |       0.0000 |       0.0000 |       0.0000 |       0.0000 |       0.0000 |       0.0000 |       0.0000 |       0.0000 |       0.0000 |       0.0000 |       0.0000 |       0.0000 |       0.0000 |       0.0000 |       0.0000 |       0.0000 |       0.0000 |       0.0000 |       0.0000 |       0.0000 |       0.0000 |       0.0000 |       0.0000 |       0.0000 |       0.0000 |       0.0000 |       0.0000 |       0.0000 |       0.0000 |       0.0000 |       0.0000 |
itlb.wb_rate                                0.0000 |       0.0000 |       0.0000 |       0.0000 |       0.0000 |       0.0000 |       0.0000 |       0.0000 |       0.0000 |       0.0000 |       0.0000 |       0.0000 |       0.0000 |       0.0000 |       0.0000 |       0.0000 |       0.0000 |       0.0000 |       0.0000 |       0.0000 |       0.0000 |       0.0000 |       0.0000 |       0.0000 |       0.0000 |       0.0000 |       0.0000 |       0.0000 |       0.0000 |       0.0000 |       0.0000 |       0.0000 |       0.0000 |       0.0000 |       0.0000 |       0.0000 |       0.0000 |       0.0000 |       0.0000 |       0.0000 |       0.0000 |       0.0000 |       0.0000 |       0.0000 |
itlb.inv_rate                               0.0000 |       0.0000 |       0.0000 |       0.0000 |       0.0000 |       0.0000 |       0.0000 |       0.0000 |       0.0000 |       0.0000 |       0.0000 |       0.0000 |       0.0000 |       0.0000 |       0.0000 |       0.0000 |       0.0000 |       0.0000 |       0.0000 |       0.0000 |       0.0000 |       0.0000 |       0.0000 |       0.0000 |       0.0000 |       0.0000 |       0.0000 |       0.0000 |       0.0000 |       0.0000 |       0.0000 |       0.0000 |       0.0000 |       0.0000 |       0.0000 |       0.0000 |       0.0000 |       0.0000 |       0.0000 |       0.0000 |       0.0000 |       0.0000 |       0.0000 |       0.0000 |
dtlb.accesses                               245102 |       245102 |       245102 |       245102 |       504162 |       504162 |       504162 |       504162 |      1116822 |      1116822 |      1116822 |      1116822 |      2301847 |      2301847 |      2301847 |      2301847 |      5045734 |      5045734 |      5045734 |      5045734 |     10376745 |     10376745 |     10376745 |     10376745 |     21931162 |     21931162 |     21931162 |     21931162 |     63041150 |     63041150 |     63041150 |     63041150 |    134354055 |    134354055 |    134354055 |    134354055 |    291583924 |    291583924 |    291583924 |    291583924 |    621103857 |    621103857 |    621103857 |    621103857 |
dtlb.hits                                   245086 |       245086 |       245086 |       245086 |       504138 |       504138 |       504138 |       504138 |      1116782 |      1116782 |      1116782 |      1116782 |      2301775 |      2301775 |      2301775 |      2301775 |      5045533 |      5045533 |      5045533 |      5045533 |     10374318 |     10374318 |     10374318 |     10374318 |     21925748 |     21925748 |     21925748 |     21925748 |     63029422 |     63029422 |     63029422 |     63029422 |    134330594 |    134330594 |    134330594 |    134330594 |    291517881 |    291517881 |    291517881 |    291517881 |    620613806 |    620613806 |    620613806 |    620613806 |
dtlb.misses                                     16 |           16 |           16 |           16 |           24 |           24 |           24 |           24 |           40 |           40 |           40 |           40 |           72 |           72 |           72 |           72 |          201 |          201 |          201 |          201 |         2427 |         2427 |         2427 |         2427 |         5414 |         5414 |         5414 |         5414 |        11728 |        11728 |        11728 |        11728 |        23461 |        23461 |        23461 |        23461 |        66043 |        66043 |        66043 |        66043 |       490051 |       490051 |       490051 |       490051 |
dtlb.replacements                                0 |            0 |            0 |            0 |            0 |            0 |            0 |            0 |            0 |            0 |            0 |            0 |            0 |            0 |            0 |            0 |           73 |           73 |           73 |           73 |         2299 |         2299 |         2299 |         2299 |         5286 |         5286 |         5286 |         5286 |        11600 |        11600 |        11600 |        11600 |        23333 |        23333 |        23333 |        23333 |        65915 |        65915 |        65915 |        65915 |       489923 |       489923 |       489923 |       489923 |
dtlb.writebacks                                  0 |            0 |            0 |            0 |            0 |            0 |            0 |            0 |            0 |            0 |            0 |            0 |            0 |            0 |            0 |            0 |           50 |           50 |           50 |           50 |         1335 |         1335 |         1335 |         1335 |         3030 |         3030 |         3030 |         3030 |         6579 |         6579 |         6579 |         6579 |        13203 |        13203 |        13203 |        13203 |        26452 |        26452 |        26452 |        26452 |        52937 |        52937 |        52937 |        52937 |
dtlb.invalidations                               0 |            0 |            0 |            0 |            0 |            0 |            0 |            0 |            0 |            0 |            0 |            0 |            0 |            0 |            0 |            0 |            0 |            0 |            0 |            0 |            0 |            0 |            0 |            0 |            0 |            0 |            0 |            0 |            0 |            0 |            0 |            0 |            0 |            0 |            0 |            0 |            0 |            0 |            0 |            0 |            0 |            0 |            0 |            0 |
dtlb.miss_rate                              0.0001 |       0.0001 |       0.0001 |       0.0001 |       0.0000 |       0.0000 |       0.0000 |       0.0000 |       0.0000 |       0.0000 |       0.0000 |       0.0000 |       0.0000 |       0.0000 |       0.0000 |       0.0000 |       0.0000 |       0.0000 |       0.0000 |       0.0000 |       0.0002 |       0.0002 |       0.0002 |       0.0002 |       0.0002 |       0.0002 |       0.0002 |       0.0002 |       0.0002 |       0.0002 |       0.0002 |       0.0002 |       0.0002 |       0.0002 |       0.0002 |       0.0002 |       0.0002 |       0.0002 |       0.0002 |       0.0002 |       0.0008 |       0.0008 |       0.0008 |       0.0008 |
dtlb.repl_rate                              0.0000 |       0.0000 |       0.0000 |       0.0000 |       0.0000 |       0.0000 |       0.0000 |       0.0000 |       0.0000 |       0.0000 |       0.0000 |       0.0000 |       0.0000 |       0.0000 |       0.0000 |       0.0000 |       0.0000 |       0.0000 |       0.0000 |       0.0000 |       0.0002 |       0.0002 |       0.0002 |       0.0002 |       0.0002 |       0.0002 |       0.0002 |       0.0002 |       0.0002 |       0.0002 |       0.0002 |       0.0002 |       0.0002 |       0.0002 |       0.0002 |       0.0002 |       0.0002 |       0.0002 |       0.0002 |       0.0002 |       0.0008 |       0.0008 |       0.0008 |       0.0008 |
dtlb.wb_rate                                0.0000 |       0.0000 |       0.0000 |       0.0000 |       0.0000 |       0.0000 |       0.0000 |       0.0000 |       0.0000 |       0.0000 |       0.0000 |       0.0000 |       0.0000 |       0.0000 |       0.0000 |       0.0000 |       0.0000 |       0.0000 |       0.0000 |       0.0000 |       0.0001 |       0.0001 |       0.0001 |       0.0001 |       0.0001 |       0.0001 |       0.0001 |       0.0001 |       0.0001 |       0.0001 |       0.0001 |       0.0001 |       0.0001 |       0.0001 |       0.0001 |       0.0001 |       0.0001 |       0.0001 |       0.0001 |       0.0001 |       0.0001 |       0.0001 |       0.0001 |       0.0001 |
dtlb.inv_rate                               0.0000 |       0.0000 |       0.0000 |       0.0000 |       0.0000 |       0.0000 |       0.0000 |       0.0000 |       0.0000 |       0.0000 |       0.0000 |       0.0000 |       0.0000 |       0.0000 |       0.0000 |       0.0000 |       0.0000 |       0.0000 |       0.0000 |       0.0000 |       0.0000 |       0.0000 |       0.0000 |       0.0000 |       0.0000 |       0.0000 |       0.0000 |       0.0000 |       0.0000 |       0.0000 |       0.0000 |       0.0000 |       0.0000 |       0.0000 |       0.0000 |       0.0000 |       0.0000 |       0.0000 |       0.0000 |       0.0000 |       0.0000 |       0.0000 |       0.0000 |       0.0000 |
ld_text_base                            0x00400000 |   0x00400000 |   0x00400000 |   0x00400000 |   0x00400000 |   0x00400000 |   0x00400000 |   0x00400000 |   0x00400000 |   0x00400000 |   0x00400000 |   0x00400000 |   0x00400000 |   0x00400000 |   0x00400000 |   0x00400000 |   0x00400000 |   0x00400000 |   0x00400000 |   0x00400000 |   0x00400000 |   0x00400000 |   0x00400000 |   0x00400000 |   0x00400000 |   0x00400000 |   0x00400000 |   0x00400000 |   0x00400000 |   0x00400000 |   0x00400000 |   0x00400000 |   0x00400000 |   0x00400000 |   0x00400000 |   0x00400000 |   0x00400000 |   0x00400000 |   0x00400000 |   0x00400000 |   0x00400000 |   0x00400000 |   0x00400000 |   0x00400000 |
ld_text_size                                 94704 |        94704 |        94704 |        94704 |        94736 |        94736 |        94736 |        94736 |        94752 |        94752 |        94752 |        94752 |        94768 |        94768 |        94768 |        94768 |        94768 |        94768 |        94768 |        94768 |        94768 |        94768 |        94768 |        94768 |        94768 |        94768 |        94768 |        94768 |        94768 |        94768 |        94768 |        94768 |        94768 |        94768 |        94768 |        94768 |        94768 |        94768 |        94768 |        94768 |        94768 |        94768 |        94768 |        94768 |
ld_data_base                            0x10000000 |   0x10000000 |   0x10000000 |   0x10000000 |   0x10000000 |   0x10000000 |   0x10000000 |   0x10000000 |   0x10000000 |   0x10000000 |   0x10000000 |   0x10000000 |   0x10000000 |   0x10000000 |   0x10000000 |   0x10000000 |   0x10000000 |   0x10000000 |   0x10000000 |   0x10000000 |   0x10000000 |   0x10000000 |   0x10000000 |   0x10000000 |   0x10000000 |   0x10000000 |   0x10000000 |   0x10000000 |   0x10000000 |   0x10000000 |   0x10000000 |   0x10000000 |   0x10000000 |   0x10000000 |   0x10000000 |   0x10000000 |   0x10000000 |   0x10000000 |   0x10000000 |   0x10000000 |   0x10000000 |   0x10000000 |   0x10000000 |   0x10000000 |
ld_data_size                                  8192 |         8192 |         8192 |         8192 |         8192 |         8192 |         8192 |         8192 |         8192 |         8192 |         8192 |         8192 |         8192 |         8192 |         8192 |         8192 |         8192 |         8192 |         8192 |         8192 |         8192 |         8192 |         8192 |         8192 |         8192 |         8192 |         8192 |         8192 |         8192 |         8192 |         8192 |         8192 |         8192 |         8192 |         8192 |         8192 |         8192 |         8192 |         8192 |         8192 |         8192 |         8192 |         8192 |         8192 |
ld_stack_base                           0x7fffc000 |   0x7fffc000 |   0x7fffc000 |   0x7fffc000 |   0x7fffc000 |   0x7fffc000 |   0x7fffc000 |   0x7fffc000 |   0x7fffc000 |   0x7fffc000 |   0x7fffc000 |   0x7fffc000 |   0x7fffc000 |   0x7fffc000 |   0x7fffc000 |   0x7fffc000 |   0x7fffc000 |   0x7fffc000 |   0x7fffc000 |   0x7fffc000 |   0x7fffc000 |   0x7fffc000 |   0x7fffc000 |   0x7fffc000 |   0x7fffc000 |   0x7fffc000 |   0x7fffc000 |   0x7fffc000 |   0x7fffc000 |   0x7fffc000 |   0x7fffc000 |   0x7fffc000 |   0x7fffc000 |   0x7fffc000 |   0x7fffc000 |   0x7fffc000 |   0x7fffc000 |   0x7fffc000 |   0x7fffc000 |   0x7fffc000 |   0x7fffc000 |   0x7fffc000 |   0x7fffc000 |   0x7fffc000 |
ld_stack_size                                16384 |        16384 |        16384 |        16384 |        16384 |        16384 |        16384 |        16384 |        16384 |        16384 |        16384 |        16384 |        16384 |        16384 |        16384 |        16384 |        16384 |        16384 |        16384 |        16384 |        16384 |        16384 |        16384 |        16384 |        16384 |        16384 |        16384 |        16384 |        16384 |        16384 |        16384 |        16384 |        16384 |        16384 |        16384 |        16384 |        16384 |        16384 |        16384 |        16384 |        16384 |        16384 |        16384 |        16384 |
ld_prog_entry                           0x00400140 |   0x00400140 |   0x00400140 |   0x00400140 |   0x00400140 |   0x00400140 |   0x00400140 |   0x00400140 |   0x00400140 |   0x00400140 |   0x00400140 |   0x00400140 |   0x00400140 |   0x00400140 |   0x00400140 |   0x00400140 |   0x00400140 |   0x00400140 |   0x00400140 |   0x00400140 |   0x00400140 |   0x00400140 |   0x00400140 |   0x00400140 |   0x00400140 |   0x00400140 |   0x00400140 |   0x00400140 |   0x00400140 |   0x00400140 |   0x00400140 |   0x00400140 |   0x00400140 |   0x00400140 |   0x00400140 |   0x00400140 |   0x00400140 |   0x00400140 |   0x00400140 |   0x00400140 |   0x00400140 |   0x00400140 |   0x00400140 |   0x00400140 |
ld_environ_base                         0x7fff8000 |   0x7fff8000 |   0x7fff8000 |   0x7fff8000 |   0x7fff8000 |   0x7fff8000 |   0x7fff8000 |   0x7fff8000 |   0x7fff8000 |   0x7fff8000 |   0x7fff8000 |   0x7fff8000 |   0x7fff8000 |   0x7fff8000 |   0x7fff8000 |   0x7fff8000 |   0x7fff8000 |   0x7fff8000 |   0x7fff8000 |   0x7fff8000 |   0x7fff8000 |   0x7fff8000 |   0x7fff8000 |   0x7fff8000 |   0x7fff8000 |   0x7fff8000 |   0x7fff8000 |   0x7fff8000 |   0x7fff8000 |   0x7fff8000 |   0x7fff8000 |   0x7fff8000 |   0x7fff8000 |   0x7fff8000 |   0x7fff8000 |   0x7fff8000 |   0x7fff8000 |   0x7fff8000 |   0x7fff8000 |   0x7fff8000 |   0x7fff8000 |   0x7fff8000 |   0x7fff8000 |   0x7fff8000 |
ld_target_big_endian                             0 |            0 |            0 |            0 |            0 |            0 |            0 |            0 |            0 |            0 |            0 |            0 |            0 |            0 |            0 |            0 |            0 |            0 |            0 |            0 |            0 |            0 |            0 |            0 |            0 |            0 |            0 |            0 |            0 |            0 |            0 |            0 |            0 |            0 |            0 |            0 |            0 |            0 |            0 |            0 |            0 |            0 |            0 |            0 |
mem.page_count                                  40 |           40 |           40 |           40 |           48 |           48 |           48 |           48 |           64 |           64 |           64 |           64 |           96 |           96 |           96 |           96 |          160 |          160 |          160 |          160 |          288 |          288 |          288 |          288 |          544 |          544 |          544 |          544 |         1062 |         1062 |         1062 |         1062 |         2086 |         2086 |         2086 |         2086 |         4140 |         4140 |         4140 |         4140 |         8248 |         8248 |         8248 |         8248 |
mem.page_mem                                  160k |         160k |         160k |         160k |         192k |         192k |         192k |         192k |         256k |         256k |         256k |         256k |         384k |         384k |         384k |         384k |         640k |         640k |         640k |         640k |        1152k |        1152k |        1152k |        1152k |        2176k |        2176k |        2176k |        2176k |        4248k |        4248k |        4248k |        4248k |        8344k |        8344k |        8344k |        8344k |       16560k |       16560k |       16560k |       16560k |       32992k |       32992k |       32992k |       32992k |
mem.ptab_misses                                 40 |           40 |           40 |           40 |           48 |           48 |           48 |           48 |           64 |           64 |           64 |           64 |           96 |           96 |           96 |           96 |          160 |          160 |          160 |          160 |          288 |          288 |          288 |          288 |          544 |          544 |          544 |          544 |         1067 |         1067 |         1067 |         1067 |        79665 |        79665 |        79665 |        79665 |        84987 |        84987 |        84987 |        84987 |        85829 |        85829 |        85829 |        85829 |
mem.ptab_accesses                          4505948 |      4505948 |      4505948 |      4505948 |      8581692 |      8581692 |      8581692 |      8581692 |     18647276 |     18647276 |     18647276 |     18647276 |     37436366 |     37436366 |     37436366 |     37436366 |     82581948 |     82581948 |     82581948 |     82581948 |    167572658 |    167572658 |    167572658 |    167572658 |    354234932 |    354234932 |    354234932 |    354234932 |   1020232608 |   1020232608 |   1020232608 |   1020232608 |   2162122626 |   2162122626 |   2162122626 |   2162122626 |   4726723468 |   4726723468 |   4726723468 |   4726723468 |   9989730830 |   9989730830 |   9989730830 |   9989730830 |
mem.ptab_miss_rate                          0.0000 |       0.0000 |       0.0000 |       0.0000 |       0.0000 |       0.0000 |       0.0000 |       0.0000 |       0.0000 |       0.0000 |       0.0000 |       0.0000 |       0.0000 |       0.0000 |       0.0000 |       0.0000 |       0.0000 |       0.0000 |       0.0000 |       0.0000 |       0.0000 |       0.0000 |       0.0000 |       0.0000 |       0.0000 |       0.0000 |       0.0000 |       0.0000 |       0.0000 |       0.0000 |       0.0000 |       0.0000 |       0.0000 |       0.0000 |       0.0000 |       0.0000 |       0.0000 |       0.0000 |       0.0000 |       0.0000 |       0.0000 |       0.0000 |       0.0000 |       0.0000 |
-------------------------------------------------------------------------------------------------
sim-bpred                                     4096 |         4096 |         4096 |         4096 |         4096 |         4096 |         4096 |         8192 |         8192 |         8192 |         8192 |         8192 |         8192 |         8192 |        16384 |        16384 |        16384 |        16384 |        16384 |        16384 |        16384 |        32768 |        32768 |        32768 |        32768 |        32768 |        32768 |        32768 |        65536 |        65536 |        65536 |        65536 |        65536 |        65536 |        65536 |       131072 |       131072 |       131072 |       131072 |       131072 |       131072 |       131072 |       262144 |       262144 |       262144 |       262144 |       262144 |       262144 |       262144 |       524288 |       524288 |       524288 |       524288 |       524288 |       524288 |       524288 |      1048576 |      1048576 |      1048576 |      1048576 |      1048576 |      1048576 |      1048576 |      2097152 |      2097152 |      2097152 |      2097152 |      2097152 |      2097152 |      2097152 |      4194304 |      4194304 |      4194304 |      4194304 |      4194304 |      4194304 |      4194304 |
-bpred bimod -bpred:bimod 512
-bpred bimod -bpred:bimod 1024
-bpred bimod -bpred:bimod 2048
-bpred 2lev -bpred:2lev 1 512 10 1
-bpred 2lev -bpred:2lev 1 1024 10 1
-bpred 2lev -bpred:2lev 1 2048 10 1
-bpred 2lev -bpred:2lev 1 4096 10 1
-------------------------------------------------------------------------------------------------
sim_num_insn                                858224 |       858224 |       858224 |       858224 |       858224 |       858224 |       858224 |      1747582 |      1747582 |      1747582 |      1747582 |      1747582 |      1747582 |      1747582 |      3957624 |      3957624 |      3957624 |      3957624 |      3957624 |      3957624 |      3957624 |      8062360 |      8062360 |      8062360 |      8062360 |      8062360 |      8062360 |      8062360 |     17976812 |     17976812 |     17976812 |     17976812 |     17976812 |     17976812 |     17976812 |     36558984 |     36558984 |     36558984 |     36558984 |     36558984 |     36558984 |     36558984 |     77447344 |     77447344 |     77447344 |     77447344 |     77447344 |     77447344 |     77447344 |    223391769 |    223391769 |    223391769 |    223391769 |    223391769 |    223391769 |    223391769 |    473207821 |    473207821 |    473207821 |    473207821 |    473207821 |    473207821 |    473207821 |   1035743097 |   1035743097 |   1035743097 |   1035743097 |   1035743097 |   1035743097 |   1035743097 |   2186734971 |   2186734971 |   2186734971 |   2186734971 |   2186734971 |   2186734971 |   2186734971 |
sim_num_refs                                228636 |       228636 |       228636 |       228636 |       228636 |       228636 |       228636 |       471312 |       471312 |       471312 |       471312 |       471312 |       471312 |       471312 |      1051204 |      1051204 |      1051204 |      1051204 |      1051204 |      1051204 |      1051204 |      2170693 |      2170693 |      2170693 |      2170693 |      2170693 |      2170693 |      2170693 |      4783508 |      4783508 |      4783508 |      4783508 |      4783508 |      4783508 |      4783508 |      9852375 |      9852375 |      9852375 |      9852375 |      9852375 |      9852375 |      9852375 |     20882504 |     20882504 |     20882504 |     20882504 |     20882504 |     20882504 |     20882504 |     60943916 |     60943916 |     60943916 |     60943916 |     60943916 |     60943916 |     60943916 |    130159669 |    130159669 |    130159669 |    130159669 |    130159669 |    130159669 |    130159669 |    283195234 |    283195234 |    283195234 |    283195234 |    283195234 |    283195234 |    283195234 |    604326559 |    604326559 |    604326559 |    604326559 |    604326559 |    604326559 |    604326559 |
sim_elapsed_time                                 1 |            1 |            1 |            1 |            1 |            1 |            1 |            1 |            1 |            1 |            1 |            1 |            1 |            1 |            1 |            1 |            1 |            1 |            1 |            1 |            1 |            1 |            1 |            1 |            1 |            1 |            1 |            1 |            2 |            2 |            2 |            2 |            2 |            2 |            2 |            4 |            4 |            4 |            4 |            5 |            4 |            4 |            9 |            8 |            9 |            9 |            9 |            9 |            8 |           26 |           25 |           26 |           26 |           26 |           25 |           26 |           54 |           55 |           54 |           55 |           55 |           56 |           55 |          119 |          119 |          119 |          121 |          121 |          121 |          121 |          252 |          253 |          253 |          256 |          258 |          255 |          256 |
sim_inst_rate                          858224.0000 |  858224.0000 |  858224.0000 |  858224.0000 |  858224.0000 |  858224.0000 |  858224.0000 | 1747582.0000 | 1747582.0000 | 1747582.0000 | 1747582.0000 | 1747582.0000 | 1747582.0000 | 1747582.0000 | 3957624.0000 | 3957624.0000 | 3957624.0000 | 3957624.0000 | 3957624.0000 | 3957624.0000 | 3957624.0000 | 8062360.0000 | 8062360.0000 | 8062360.0000 | 8062360.0000 | 8062360.0000 | 8062360.0000 | 8062360.0000 | 8988406.0000 | 8988406.0000 | 8988406.0000 | 8988406.0000 | 8988406.0000 | 8988406.0000 | 8988406.0000 | 9139746.0000 | 9139746.0000 | 9139746.0000 | 9139746.0000 | 7311796.8000 | 9139746.0000 | 9139746.0000 | 8605260.4444 | 9680918.0000 | 8605260.4444 | 8605260.4444 | 8605260.4444 | 8605260.4444 | 9680918.0000 | 8591991.1154 | 8935670.7600 | 8591991.1154 | 8591991.1154 | 8591991.1154 | 8935670.7600 | 8591991.1154 | 8763107.7963 | 8603778.5636 | 8763107.7963 | 8603778.5636 | 8603778.5636 | 8450139.6607 | 8603778.5636 | 8703723.5042 | 8703723.5042 | 8703723.5042 | 8559860.3058 | 8559860.3058 | 8559860.3058 | 8559860.3058 | 8677519.7262 | 8643221.2292 | 8643221.2292 | 8541933.4805 | 8475716.9419 | 8575431.2588 | 8541933.4805 |
sim_num_branches                            112734 |       112734 |       112734 |       112734 |       112734 |       112734 |       112734 |       235246 |       235246 |       235246 |       235246 |       235246 |       235246 |       235246 |       514589 |       514589 |       514589 |       514589 |       514589 |       514589 |       514589 |      1071284 |      1071284 |      1071284 |      1071284 |      1071284 |      1071284 |      1071284 |      2318699 |      2318699 |      2318699 |      2318699 |      2318699 |      2318699 |      2318699 |      4810535 |      4810535 |      4810535 |      4810535 |      4810535 |      4810535 |      4810535 |     10147191 |     10147191 |     10147191 |     10147191 |     10147191 |     10147191 |     10147191 |     30678985 |     30678985 |     30678985 |     30678985 |     30678985 |     30678985 |     30678985 |     67180785 |     67180785 |     67180785 |     67180785 |     67180785 |     67180785 |     67180785 |    145971881 |    145971881 |    145971881 |    145971881 |    145971881 |    145971881 |    145971881 |    314567940 |    314567940 |    314567940 |    314567940 |    314567940 |    314567940 |    314567940 |
sim_IPB                                     7.6128 |       7.6128 |       7.6128 |       7.6128 |       7.6128 |       7.6128 |       7.6128 |       7.4287 |       7.4287 |       7.4287 |       7.4287 |       7.4287 |       7.4287 |       7.4287 |       7.6908 |       7.6908 |       7.6908 |       7.6908 |       7.6908 |       7.6908 |       7.6908 |       7.5259 |       7.5259 |       7.5259 |       7.5259 |       7.5259 |       7.5259 |       7.5259 |       7.7530 |       7.7530 |       7.7530 |       7.7530 |       7.7530 |       7.7530 |       7.7530 |       7.5998 |       7.5998 |       7.5998 |       7.5998 |       7.5998 |       7.5998 |       7.5998 |       7.6324 |       7.6324 |       7.6324 |       7.6324 |       7.6324 |       7.6324 |       7.6324 |       7.2816 |       7.2816 |       7.2816 |       7.2816 |       7.2816 |       7.2816 |       7.2816 |       7.0438 |       7.0438 |       7.0438 |       7.0438 |       7.0438 |       7.0438 |       7.0438 |       7.0955 |       7.0955 |       7.0955 |       7.0955 |       7.0955 |       7.0955 |       7.0955 |       6.9516 |       6.9516 |       6.9516 |       6.9516 |       6.9516 |       6.9516 |       6.9516 |
bpred_bimod.lookups                         112734 |       112734 |       112734 |xxxxxxxxxxxxx |xxxxxxxxxxxxx |xxxxxxxxxxxxx |xxxxxxxxxxxxx |       235246 |       235246 |       235246 |xxxxxxxxxxxxx |xxxxxxxxxxxxx |xxxxxxxxxxxxx |xxxxxxxxxxxxx |       514589 |       514589 |       514589 |xxxxxxxxxxxxx |xxxxxxxxxxxxx |xxxxxxxxxxxxx |xxxxxxxxxxxxx |      1071284 |      1071284 |      1071284 |xxxxxxxxxxxxx |xxxxxxxxxxxxx |xxxxxxxxxxxxx |xxxxxxxxxxxxx |      2318699 |      2318699 |      2318699 |xxxxxxxxxxxxx |xxxxxxxxxxxxx |xxxxxxxxxxxxx |xxxxxxxxxxxxx |      4810535 |      4810535 |      4810535 |xxxxxxxxxxxxx |xxxxxxxxxxxxx |xxxxxxxxxxxxx |xxxxxxxxxxxxx |     10147191 |     10147191 |     10147191 |xxxxxxxxxxxxx |xxxxxxxxxxxxx |xxxxxxxxxxxxx |xxxxxxxxxxxxx |     30678985 |     30678985 |     30678985 |xxxxxxxxxxxxx |xxxxxxxxxxxxx |xxxxxxxxxxxxx |xxxxxxxxxxxxx |     67180785 |     67180785 |     67180785 |xxxxxxxxxxxxx |xxxxxxxxxxxxx |xxxxxxxxxxxxx |xxxxxxxxxxxxx |    145971881 |    145971881 |    145971881 |xxxxxxxxxxxxx |xxxxxxxxxxxxx |xxxxxxxxxxxxx |xxxxxxxxxxxxx |    314567940 |    314567940 |    314567940 |
bpred_bimod.updates                         112734 |       112734 |       112734 |xxxxxxxxxxxxx |xxxxxxxxxxxxx |xxxxxxxxxxxxx |xxxxxxxxxxxxx |       235246 |       235246 |       235246 |xxxxxxxxxxxxx |xxxxxxxxxxxxx |xxxxxxxxxxxxx |xxxxxxxxxxxxx |       514589 |       514589 |       514589 |xxxxxxxxxxxxx |xxxxxxxxxxxxx |xxxxxxxxxxxxx |xxxxxxxxxxxxx |      1071284 |      1071284 |      1071284 |xxxxxxxxxxxxx |xxxxxxxxxxxxx |xxxxxxxxxxxxx |xxxxxxxxxxxxx |      2318699 |      2318699 |      2318699 |xxxxxxxxxxxxx |xxxxxxxxxxxxx |xxxxxxxxxxxxx |xxxxxxxxxxxxx |      4810535 |      4810535 |      4810535 |xxxxxxxxxxxxx |xxxxxxxxxxxxx |xxxxxxxxxxxxx |xxxxxxxxxxxxx |     10147191 |     10147191 |     10147191 |xxxxxxxxxxxxx |xxxxxxxxxxxxx |xxxxxxxxxxxxx |xxxxxxxxxxxxx |     30678985 |     30678985 |     30678985 |xxxxxxxxxxxxx |xxxxxxxxxxxxx |xxxxxxxxxxxxx |xxxxxxxxxxxxx |     67180785 |     67180785 |     67180785 |xxxxxxxxxxxxx |xxxxxxxxxxxxx |xxxxxxxxxxxxx |xxxxxxxxxxxxx |    145971881 |    145971881 |    145971881 |xxxxxxxxxxxxx |xxxxxxxxxxxxx |xxxxxxxxxxxxx |xxxxxxxxxxxxx |    314567940 |    314567940 |    314567940 |
bpred_bimod.addr_hits                        87162 |        87166 |        87171 |xxxxxxxxxxxxx |xxxxxxxxxxxxx |xxxxxxxxxxxxx |xxxxxxxxxxxxx |       183609 |       183616 |       183618 |xxxxxxxxxxxxx |xxxxxxxxxxxxx |xxxxxxxxxxxxx |xxxxxxxxxxxxx |       396551 |       396567 |       396573 |xxxxxxxxxxxxx |xxxxxxxxxxxxx |xxxxxxxxxxxxx |xxxxxxxxxxxxx |       832927 |       832950 |       832953 |xxxxxxxxxxxxx |xxxxxxxxxxxxx |xxxxxxxxxxxxx |xxxxxxxxxxxxx |      1781958 |      1782029 |      1782033 |xxxxxxxxxxxxx |xxxxxxxxxxxxx |xxxxxxxxxxxxx |xxxxxxxxxxxxx |      3725020 |      3725071 |      3725074 |xxxxxxxxxxxxx |xxxxxxxxxxxxx |xxxxxxxxxxxxx |xxxxxxxxxxxxx |      7844849 |      7844954 |      7845023 |xxxxxxxxxxxxx |xxxxxxxxxxxxx |xxxxxxxxxxxxx |xxxxxxxxxxxxx |     24450071 |     24450572 |     24450575 |xxxxxxxxxxxxx |xxxxxxxxxxxxx |xxxxxxxxxxxxx |xxxxxxxxxxxxx |     54424076 |     54424445 |     54424438 |xxxxxxxxxxxxx |xxxxxxxxxxxxx |xxxxxxxxxxxxx |xxxxxxxxxxxxx |    116892311 |    116894349 |    116894353 |xxxxxxxxxxxxx |xxxxxxxxxxxxx |xxxxxxxxxxxxx |xxxxxxxxxxxxx |    252103489 |    252104959 |    252104965 |
bpred_bimod.dir_hits                         87310 |        87313 |        87317 |xxxxxxxxxxxxx |xxxxxxxxxxxxx |xxxxxxxxxxxxx |xxxxxxxxxxxxx |       183759 |       183762 |       183764 |xxxxxxxxxxxxx |xxxxxxxxxxxxx |xxxxxxxxxxxxx |xxxxxxxxxxxxx |       396699 |       396710 |       396718 |xxxxxxxxxxxxx |xxxxxxxxxxxxx |xxxxxxxxxxxxx |xxxxxxxxxxxxx |       833074 |       833096 |       833099 |xxxxxxxxxxxxx |xxxxxxxxxxxxx |xxxxxxxxxxxxx |xxxxxxxxxxxxx |      1782103 |      1782173 |      1782177 |xxxxxxxxxxxxx |xxxxxxxxxxxxx |xxxxxxxxxxxxx |xxxxxxxxxxxxx |      3725170 |      3725220 |      3725222 |xxxxxxxxxxxxx |xxxxxxxxxxxxx |xxxxxxxxxxxxx |xxxxxxxxxxxxx |      7845000 |      7845104 |      7845174 |xxxxxxxxxxxxx |xxxxxxxxxxxxx |xxxxxxxxxxxxx |xxxxxxxxxxxxx |     24450295 |     24450794 |     24450795 |xxxxxxxxxxxxx |xxxxxxxxxxxxx |xxxxxxxxxxxxx |xxxxxxxxxxxxx |     54424308 |     54424675 |     54424665 |xxxxxxxxxxxxx |xxxxxxxxxxxxx |xxxxxxxxxxxxx |xxxxxxxxxxxxx |    116892542 |    116894579 |    116894581 |xxxxxxxxxxxxx |xxxxxxxxxxxxx |xxxxxxxxxxxxx |xxxxxxxxxxxxx |    252103725 |    252105193 |    252105197 |
bpred_bimod.misses                           25424 |        25421 |        25417 |xxxxxxxxxxxxx |xxxxxxxxxxxxx |xxxxxxxxxxxxx |xxxxxxxxxxxxx |        51487 |        51484 |        51482 |xxxxxxxxxxxxx |xxxxxxxxxxxxx |xxxxxxxxxxxxx |xxxxxxxxxxxxx |       117890 |       117879 |       117871 |xxxxxxxxxxxxx |xxxxxxxxxxxxx |xxxxxxxxxxxxx |xxxxxxxxxxxxx |       238210 |       238188 |       238185 |xxxxxxxxxxxxx |xxxxxxxxxxxxx |xxxxxxxxxxxxx |xxxxxxxxxxxxx |       536596 |       536526 |       536522 |xxxxxxxxxxxxx |xxxxxxxxxxxxx |xxxxxxxxxxxxx |xxxxxxxxxxxxx |      1085365 |      1085315 |      1085313 |xxxxxxxxxxxxx |xxxxxxxxxxxxx |xxxxxxxxxxxxx |xxxxxxxxxxxxx |      2302191 |      2302087 |      2302017 |xxxxxxxxxxxxx |xxxxxxxxxxxxx |xxxxxxxxxxxxx |xxxxxxxxxxxxx |      6228690 |      6228191 |      6228190 |xxxxxxxxxxxxx |xxxxxxxxxxxxx |xxxxxxxxxxxxx |xxxxxxxxxxxxx |     12756477 |     12756110 |     12756120 |xxxxxxxxxxxxx |xxxxxxxxxxxxx |xxxxxxxxxxxxx |xxxxxxxxxxxxx |     29079339 |     29077302 |     29077300 |xxxxxxxxxxxxx |xxxxxxxxxxxxx |xxxxxxxxxxxxx |xxxxxxxxxxxxx |     62464215 |     62462747 |     62462743 |
bpred_bimod.jr_hits                             79 |           79 |           79 |xxxxxxxxxxxxx |xxxxxxxxxxxxx |xxxxxxxxxxxxx |xxxxxxxxxxxxx |           87 |           87 |           87 |xxxxxxxxxxxxx |xxxxxxxxxxxxx |xxxxxxxxxxxxx |xxxxxxxxxxxxx |          103 |          103 |          103 |xxxxxxxxxxxxx |xxxxxxxxxxxxx |xxxxxxxxxxxxx |xxxxxxxxxxxxx |          135 |          135 |          135 |xxxxxxxxxxxxx |xxxxxxxxxxxxx |xxxxxxxxxxxxx |xxxxxxxxxxxxx |          199 |          199 |          199 |xxxxxxxxxxxxx |xxxxxxxxxxxxx |xxxxxxxxxxxxx |xxxxxxxxxxxxx |          327 |          327 |          327 |xxxxxxxxxxxxx |xxxxxxxxxxxxx |xxxxxxxxxxxxx |xxxxxxxxxxxxx |          583 |          583 |          583 |xxxxxxxxxxxxx |xxxxxxxxxxxxx |xxxxxxxxxxxxx |xxxxxxxxxxxxx |       525413 |       525413 |       525413 |xxxxxxxxxxxxx |xxxxxxxxxxxxx |xxxxxxxxxxxxx |xxxxxxxxxxxxx |      1050727 |      1050727 |      1050727 |xxxxxxxxxxxxx |xxxxxxxxxxxxx |xxxxxxxxxxxxx |xxxxxxxxxxxxx |      2101355 |      2101355 |      2101355 |xxxxxxxxxxxxx |xxxxxxxxxxxxx |xxxxxxxxxxxxx |xxxxxxxxxxxxx |      4202611 |      4202611 |      4202611 |
bpred_bimod.jr_seen                             80 |           80 |           80 |xxxxxxxxxxxxx |xxxxxxxxxxxxx |xxxxxxxxxxxxx |xxxxxxxxxxxxx |           88 |           88 |           88 |xxxxxxxxxxxxx |xxxxxxxxxxxxx |xxxxxxxxxxxxx |xxxxxxxxxxxxx |          104 |          104 |          104 |xxxxxxxxxxxxx |xxxxxxxxxxxxx |xxxxxxxxxxxxx |xxxxxxxxxxxxx |          136 |          136 |          136 |xxxxxxxxxxxxx |xxxxxxxxxxxxx |xxxxxxxxxxxxx |xxxxxxxxxxxxx |          200 |          200 |          200 |xxxxxxxxxxxxx |xxxxxxxxxxxxx |xxxxxxxxxxxxx |xxxxxxxxxxxxx |          328 |          328 |          328 |xxxxxxxxxxxxx |xxxxxxxxxxxxx |xxxxxxxxxxxxx |xxxxxxxxxxxxx |          584 |          584 |          584 |xxxxxxxxxxxxx |xxxxxxxxxxxxx |xxxxxxxxxxxxx |xxxxxxxxxxxxx |       525414 |       525414 |       525414 |xxxxxxxxxxxxx |xxxxxxxxxxxxx |xxxxxxxxxxxxx |xxxxxxxxxxxxx |      1050728 |      1050728 |      1050728 |xxxxxxxxxxxxx |xxxxxxxxxxxxx |xxxxxxxxxxxxx |xxxxxxxxxxxxx |      2101356 |      2101356 |      2101356 |xxxxxxxxxxxxx |xxxxxxxxxxxxx |xxxxxxxxxxxxx |xxxxxxxxxxxxx |      4202612 |      4202612 |      4202612 |
bpred_bimod.jr_non_ras_hits.PP                   0 |            0 |            0 |xxxxxxxxxxxxx |xxxxxxxxxxxxx |xxxxxxxxxxxxx |xxxxxxxxxxxxx |            0 |            0 |            0 |xxxxxxxxxxxxx |xxxxxxxxxxxxx |xxxxxxxxxxxxx |xxxxxxxxxxxxx |            0 |            0 |            0 |xxxxxxxxxxxxx |xxxxxxxxxxxxx |xxxxxxxxxxxxx |xxxxxxxxxxxxx |            0 |            0 |            0 |xxxxxxxxxxxxx |xxxxxxxxxxxxx |xxxxxxxxxxxxx |xxxxxxxxxxxxx |            0 |            0 |            0 |xxxxxxxxxxxxx |xxxxxxxxxxxxx |xxxxxxxxxxxxx |xxxxxxxxxxxxx |            0 |            0 |            0 |xxxxxxxxxxxxx |xxxxxxxxxxxxx |xxxxxxxxxxxxx |xxxxxxxxxxxxx |            0 |            0 |            0 |xxxxxxxxxxxxx |xxxxxxxxxxxxx |xxxxxxxxxxxxx |xxxxxxxxxxxxx |            0 |            0 |            0 |xxxxxxxxxxxxx |xxxxxxxxxxxxx |xxxxxxxxxxxxx |xxxxxxxxxxxxx |            0 |            0 |            0 |xxxxxxxxxxxxx |xxxxxxxxxxxxx |xxxxxxxxxxxxx |xxxxxxxxxxxxx |            0 |            0 |            0 |xxxxxxxxxxxxx |xxxxxxxxxxxxx |xxxxxxxxxxxxx |xxxxxxxxxxxxx |            0 |            0 |            0 |
bpred_bimod.jr_non_ras_seen.PP                   0 |            0 |            0 |xxxxxxxxxxxxx |xxxxxxxxxxxxx |xxxxxxxxxxxxx |xxxxxxxxxxxxx |            0 |            0 |            0 |xxxxxxxxxxxxx |xxxxxxxxxxxxx |xxxxxxxxxxxxx |xxxxxxxxxxxxx |            0 |            0 |            0 |xxxxxxxxxxxxx |xxxxxxxxxxxxx |xxxxxxxxxxxxx |xxxxxxxxxxxxx |            0 |            0 |            0 |xxxxxxxxxxxxx |xxxxxxxxxxxxx |xxxxxxxxxxxxx |xxxxxxxxxxxxx |            0 |            0 |            0 |xxxxxxxxxxxxx |xxxxxxxxxxxxx |xxxxxxxxxxxxx |xxxxxxxxxxxxx |            0 |            0 |            0 |xxxxxxxxxxxxx |xxxxxxxxxxxxx |xxxxxxxxxxxxx |xxxxxxxxxxxxx |            0 |            0 |            0 |xxxxxxxxxxxxx |xxxxxxxxxxxxx |xxxxxxxxxxxxx |xxxxxxxxxxxxx |            1 |            1 |            1 |xxxxxxxxxxxxx |xxxxxxxxxxxxx |xxxxxxxxxxxxx |xxxxxxxxxxxxx |            1 |            1 |            1 |xxxxxxxxxxxxx |xxxxxxxxxxxxx |xxxxxxxxxxxxx |xxxxxxxxxxxxx |            1 |            1 |            1 |xxxxxxxxxxxxx |xxxxxxxxxxxxx |xxxxxxxxxxxxx |xxxxxxxxxxxxx |            1 |            1 |            1 |
bpred_bimod.bpred_addr_rate                 0.7732 |       0.7732 |       0.7732 |xxxxxxxxxxxxx |xxxxxxxxxxxxx |xxxxxxxxxxxxx |xxxxxxxxxxxxx |       0.7805 |       0.7805 |       0.7805 |xxxxxxxxxxxxx |xxxxxxxxxxxxx |xxxxxxxxxxxxx |xxxxxxxxxxxxx |       0.7706 |       0.7706 |       0.7707 |xxxxxxxxxxxxx |xxxxxxxxxxxxx |xxxxxxxxxxxxx |xxxxxxxxxxxxx |       0.7775 |       0.7775 |       0.7775 |xxxxxxxxxxxxx |xxxxxxxxxxxxx |xxxxxxxxxxxxx |xxxxxxxxxxxxx |       0.7685 |       0.7685 |       0.7685 |xxxxxxxxxxxxx |xxxxxxxxxxxxx |xxxxxxxxxxxxx |xxxxxxxxxxxxx |       0.7743 |       0.7744 |       0.7744 |xxxxxxxxxxxxx |xxxxxxxxxxxxx |xxxxxxxxxxxxx |xxxxxxxxxxxxx |       0.7731 |       0.7731 |       0.7731 |xxxxxxxxxxxxx |xxxxxxxxxxxxx |xxxxxxxxxxxxx |xxxxxxxxxxxxx |       0.7970 |       0.7970 |       0.7970 |xxxxxxxxxxxxx |xxxxxxxxxxxxx |xxxxxxxxxxxxx |xxxxxxxxxxxxx |       0.8101 |       0.8101 |       0.8101 |xxxxxxxxxxxxx |xxxxxxxxxxxxx |xxxxxxxxxxxxx |xxxxxxxxxxxxx |       0.8008 |       0.8008 |       0.8008 |xxxxxxxxxxxxx |xxxxxxxxxxxxx |xxxxxxxxxxxxx |xxxxxxxxxxxxx |       0.8014 |       0.8014 |       0.8014 |
bpred_bimod.bpred_dir_rate                  0.7745 |       0.7745 |       0.7745 |xxxxxxxxxxxxx |xxxxxxxxxxxxx |xxxxxxxxxxxxx |xxxxxxxxxxxxx |       0.7811 |       0.7811 |       0.7812 |xxxxxxxxxxxxx |xxxxxxxxxxxxx |xxxxxxxxxxxxx |xxxxxxxxxxxxx |       0.7709 |       0.7709 |       0.7709 |xxxxxxxxxxxxx |xxxxxxxxxxxxx |xxxxxxxxxxxxx |xxxxxxxxxxxxx |       0.7776 |       0.7777 |       0.7777 |xxxxxxxxxxxxx |xxxxxxxxxxxxx |xxxxxxxxxxxxx |xxxxxxxxxxxxx |       0.7686 |       0.7686 |       0.7686 |xxxxxxxxxxxxx |xxxxxxxxxxxxx |xxxxxxxxxxxxx |xxxxxxxxxxxxx |       0.7744 |       0.7744 |       0.7744 |xxxxxxxxxxxxx |xxxxxxxxxxxxx |xxxxxxxxxxxxx |xxxxxxxxxxxxx |       0.7731 |       0.7731 |       0.7731 |xxxxxxxxxxxxx |xxxxxxxxxxxxx |xxxxxxxxxxxxx |xxxxxxxxxxxxx |       0.7970 |       0.7970 |       0.7970 |xxxxxxxxxxxxx |xxxxxxxxxxxxx |xxxxxxxxxxxxx |xxxxxxxxxxxxx |       0.8101 |       0.8101 |       0.8101 |xxxxxxxxxxxxx |xxxxxxxxxxxxx |xxxxxxxxxxxxx |xxxxxxxxxxxxx |       0.8008 |       0.8008 |       0.8008 |xxxxxxxxxxxxx |xxxxxxxxxxxxx |xxxxxxxxxxxxx |xxxxxxxxxxxxx |       0.8014 |       0.8014 |       0.8014 |
bpred_bimod.bpred_jr_rate                   0.9875 |       0.9875 |       0.9875 |xxxxxxxxxxxxx |xxxxxxxxxxxxx |xxxxxxxxxxxxx |xxxxxxxxxxxxx |       0.9886 |       0.9886 |       0.9886 |xxxxxxxxxxxxx |xxxxxxxxxxxxx |xxxxxxxxxxxxx |xxxxxxxxxxxxx |       0.9904 |       0.9904 |       0.9904 |xxxxxxxxxxxxx |xxxxxxxxxxxxx |xxxxxxxxxxxxx |xxxxxxxxxxxxx |       0.9926 |       0.9926 |       0.9926 |xxxxxxxxxxxxx |xxxxxxxxxxxxx |xxxxxxxxxxxxx |xxxxxxxxxxxxx |       0.9950 |       0.9950 |       0.9950 |xxxxxxxxxxxxx |xxxxxxxxxxxxx |xxxxxxxxxxxxx |xxxxxxxxxxxxx |       0.9970 |       0.9970 |       0.9970 |xxxxxxxxxxxxx |xxxxxxxxxxxxx |xxxxxxxxxxxxx |xxxxxxxxxxxxx |       0.9983 |       0.9983 |       0.9983 |xxxxxxxxxxxxx |xxxxxxxxxxxxx |xxxxxxxxxxxxx |xxxxxxxxxxxxx |       1.0000 |       1.0000 |       1.0000 |xxxxxxxxxxxxx |xxxxxxxxxxxxx |xxxxxxxxxxxxx |xxxxxxxxxxxxx |       1.0000 |       1.0000 |       1.0000 |xxxxxxxxxxxxx |xxxxxxxxxxxxx |xxxxxxxxxxxxx |xxxxxxxxxxxxx |       1.0000 |       1.0000 |       1.0000 |xxxxxxxxxxxxx |xxxxxxxxxxxxx |xxxxxxxxxxxxx |xxxxxxxxxxxxx |       1.0000 |       1.0000 |       1.0000 |
bpred_bimod.bpred_jr_non_ras_rate.PP       <error: |      <error: |      <error: |xxxxxxxxxxxxx |xxxxxxxxxxxxx |xxxxxxxxxxxxx |xxxxxxxxxxxxx |      <error: |      <error: |      <error: |xxxxxxxxxxxxx |xxxxxxxxxxxxx |xxxxxxxxxxxxx |xxxxxxxxxxxxx |      <error: |      <error: |      <error: |xxxxxxxxxxxxx |xxxxxxxxxxxxx |xxxxxxxxxxxxx |xxxxxxxxxxxxx |      <error: |      <error: |      <error: |xxxxxxxxxxxxx |xxxxxxxxxxxxx |xxxxxxxxxxxxx |xxxxxxxxxxxxx |      <error: |      <error: |      <error: |xxxxxxxxxxxxx |xxxxxxxxxxxxx |xxxxxxxxxxxxx |xxxxxxxxxxxxx |      <error: |      <error: |      <error: |xxxxxxxxxxxxx |xxxxxxxxxxxxx |xxxxxxxxxxxxx |xxxxxxxxxxxxx |      <error: |      <error: |      <error: |xxxxxxxxxxxxx |xxxxxxxxxxxxx |xxxxxxxxxxxxx |xxxxxxxxxxxxx |       0.0000 |       0.0000 |       0.0000 |xxxxxxxxxxxxx |xxxxxxxxxxxxx |xxxxxxxxxxxxx |xxxxxxxxxxxxx |       0.0000 |       0.0000 |       0.0000 |xxxxxxxxxxxxx |xxxxxxxxxxxxx |xxxxxxxxxxxxx |xxxxxxxxxxxxx |       0.0000 |       0.0000 |       0.0000 |xxxxxxxxxxxxx |xxxxxxxxxxxxx |xxxxxxxxxxxxx |xxxxxxxxxxxxx |       0.0000 |       0.0000 |       0.0000 |
bpred_bimod.retstack_pushes                     82 |           82 |           82 |xxxxxxxxxxxxx |xxxxxxxxxxxxx |xxxxxxxxxxxxx |xxxxxxxxxxxxx |           90 |           90 |           90 |xxxxxxxxxxxxx |xxxxxxxxxxxxx |xxxxxxxxxxxxx |xxxxxxxxxxxxx |          106 |          106 |          106 |xxxxxxxxxxxxx |xxxxxxxxxxxxx |xxxxxxxxxxxxx |xxxxxxxxxxxxx |          138 |          138 |          138 |xxxxxxxxxxxxx |xxxxxxxxxxxxx |xxxxxxxxxxxxx |xxxxxxxxxxxxx |          202 |          202 |          202 |xxxxxxxxxxxxx |xxxxxxxxxxxxx |xxxxxxxxxxxxx |xxxxxxxxxxxxx |          330 |          330 |          330 |xxxxxxxxxxxxx |xxxxxxxxxxxxx |xxxxxxxxxxxxx |xxxxxxxxxxxxx |          586 |          586 |          586 |xxxxxxxxxxxxx |xxxxxxxxxxxxx |xxxxxxxxxxxxx |xxxxxxxxxxxxx |       525415 |       525415 |       525415 |xxxxxxxxxxxxx |xxxxxxxxxxxxx |xxxxxxxxxxxxx |xxxxxxxxxxxxx |      1050729 |      1050729 |      1050729 |xxxxxxxxxxxxx |xxxxxxxxxxxxx |xxxxxxxxxxxxx |xxxxxxxxxxxxx |      2101357 |      2101357 |      2101357 |xxxxxxxxxxxxx |xxxxxxxxxxxxx |xxxxxxxxxxxxx |xxxxxxxxxxxxx |      4202613 |      4202613 |      4202613 |
bpred_bimod.retstack_pops                       80 |           80 |           80 |xxxxxxxxxxxxx |xxxxxxxxxxxxx |xxxxxxxxxxxxx |xxxxxxxxxxxxx |           88 |           88 |           88 |xxxxxxxxxxxxx |xxxxxxxxxxxxx |xxxxxxxxxxxxx |xxxxxxxxxxxxx |          104 |          104 |          104 |xxxxxxxxxxxxx |xxxxxxxxxxxxx |xxxxxxxxxxxxx |xxxxxxxxxxxxx |          136 |          136 |          136 |xxxxxxxxxxxxx |xxxxxxxxxxxxx |xxxxxxxxxxxxx |xxxxxxxxxxxxx |          200 |          200 |          200 |xxxxxxxxxxxxx |xxxxxxxxxxxxx |xxxxxxxxxxxxx |xxxxxxxxxxxxx |          328 |          328 |          328 |xxxxxxxxxxxxx |xxxxxxxxxxxxx |xxxxxxxxxxxxx |xxxxxxxxxxxxx |          584 |          584 |          584 |xxxxxxxxxxxxx |xxxxxxxxxxxxx |xxxxxxxxxxxxx |xxxxxxxxxxxxx |       525413 |       525413 |       525413 |xxxxxxxxxxxxx |xxxxxxxxxxxxx |xxxxxxxxxxxxx |xxxxxxxxxxxxx |      1050727 |      1050727 |      1050727 |xxxxxxxxxxxxx |xxxxxxxxxxxxx |xxxxxxxxxxxxx |xxxxxxxxxxxxx |      2101355 |      2101355 |      2101355 |xxxxxxxxxxxxx |xxxxxxxxxxxxx |xxxxxxxxxxxxx |xxxxxxxxxxxxx |      4202611 |      4202611 |      4202611 |
bpred_bimod.used_ras.PP                         80 |           80 |           80 |xxxxxxxxxxxxx |xxxxxxxxxxxxx |xxxxxxxxxxxxx |xxxxxxxxxxxxx |           88 |           88 |           88 |xxxxxxxxxxxxx |xxxxxxxxxxxxx |xxxxxxxxxxxxx |xxxxxxxxxxxxx |          104 |          104 |          104 |xxxxxxxxxxxxx |xxxxxxxxxxxxx |xxxxxxxxxxxxx |xxxxxxxxxxxxx |          136 |          136 |          136 |xxxxxxxxxxxxx |xxxxxxxxxxxxx |xxxxxxxxxxxxx |xxxxxxxxxxxxx |          200 |          200 |          200 |xxxxxxxxxxxxx |xxxxxxxxxxxxx |xxxxxxxxxxxxx |xxxxxxxxxxxxx |          328 |          328 |          328 |xxxxxxxxxxxxx |xxxxxxxxxxxxx |xxxxxxxxxxxxx |xxxxxxxxxxxxx |          584 |          584 |          584 |xxxxxxxxxxxxx |xxxxxxxxxxxxx |xxxxxxxxxxxxx |xxxxxxxxxxxxx |       525413 |       525413 |       525413 |xxxxxxxxxxxxx |xxxxxxxxxxxxx |xxxxxxxxxxxxx |xxxxxxxxxxxxx |      1050727 |      1050727 |      1050727 |xxxxxxxxxxxxx |xxxxxxxxxxxxx |xxxxxxxxxxxxx |xxxxxxxxxxxxx |      2101355 |      2101355 |      2101355 |xxxxxxxxxxxxx |xxxxxxxxxxxxx |xxxxxxxxxxxxx |xxxxxxxxxxxxx |      4202611 |      4202611 |      4202611 |
bpred_bimod.ras_hits.PP                         79 |           79 |           79 |xxxxxxxxxxxxx |xxxxxxxxxxxxx |xxxxxxxxxxxxx |xxxxxxxxxxxxx |           87 |           87 |           87 |xxxxxxxxxxxxx |xxxxxxxxxxxxx |xxxxxxxxxxxxx |xxxxxxxxxxxxx |          103 |          103 |          103 |xxxxxxxxxxxxx |xxxxxxxxxxxxx |xxxxxxxxxxxxx |xxxxxxxxxxxxx |          135 |          135 |          135 |xxxxxxxxxxxxx |xxxxxxxxxxxxx |xxxxxxxxxxxxx |xxxxxxxxxxxxx |          199 |          199 |          199 |xxxxxxxxxxxxx |xxxxxxxxxxxxx |xxxxxxxxxxxxx |xxxxxxxxxxxxx |          327 |          327 |          327 |xxxxxxxxxxxxx |xxxxxxxxxxxxx |xxxxxxxxxxxxx |xxxxxxxxxxxxx |          583 |          583 |          583 |xxxxxxxxxxxxx |xxxxxxxxxxxxx |xxxxxxxxxxxxx |xxxxxxxxxxxxx |       525413 |       525413 |       525413 |xxxxxxxxxxxxx |xxxxxxxxxxxxx |xxxxxxxxxxxxx |xxxxxxxxxxxxx |      1050727 |      1050727 |      1050727 |xxxxxxxxxxxxx |xxxxxxxxxxxxx |xxxxxxxxxxxxx |xxxxxxxxxxxxx |      2101355 |      2101355 |      2101355 |xxxxxxxxxxxxx |xxxxxxxxxxxxx |xxxxxxxxxxxxx |xxxxxxxxxxxxx |      4202611 |      4202611 |      4202611 |
bpred_bimod.ras_rate.PP                     0.9875 |       0.9875 |       0.9875 |xxxxxxxxxxxxx |xxxxxxxxxxxxx |xxxxxxxxxxxxx |xxxxxxxxxxxxx |       0.9886 |       0.9886 |       0.9886 |xxxxxxxxxxxxx |xxxxxxxxxxxxx |xxxxxxxxxxxxx |xxxxxxxxxxxxx |       0.9904 |       0.9904 |       0.9904 |xxxxxxxxxxxxx |xxxxxxxxxxxxx |xxxxxxxxxxxxx |xxxxxxxxxxxxx |       0.9926 |       0.9926 |       0.9926 |xxxxxxxxxxxxx |xxxxxxxxxxxxx |xxxxxxxxxxxxx |xxxxxxxxxxxxx |       0.9950 |       0.9950 |       0.9950 |xxxxxxxxxxxxx |xxxxxxxxxxxxx |xxxxxxxxxxxxx |xxxxxxxxxxxxx |       0.9970 |       0.9970 |       0.9970 |xxxxxxxxxxxxx |xxxxxxxxxxxxx |xxxxxxxxxxxxx |xxxxxxxxxxxxx |       0.9983 |       0.9983 |       0.9983 |xxxxxxxxxxxxx |xxxxxxxxxxxxx |xxxxxxxxxxxxx |xxxxxxxxxxxxx |       1.0000 |       1.0000 |       1.0000 |xxxxxxxxxxxxx |xxxxxxxxxxxxx |xxxxxxxxxxxxx |xxxxxxxxxxxxx |       1.0000 |       1.0000 |       1.0000 |xxxxxxxxxxxxx |xxxxxxxxxxxxx |xxxxxxxxxxxxx |xxxxxxxxxxxxx |       1.0000 |       1.0000 |       1.0000 |xxxxxxxxxxxxx |xxxxxxxxxxxxx |xxxxxxxxxxxxx |xxxxxxxxxxxxx |       1.0000 |       1.0000 |       1.0000 |
bpred_2lev.lookups                   xxxxxxxxxxxxx |xxxxxxxxxxxxx |xxxxxxxxxxxxx |       112734 |       112734 |       112734 |       112734 |xxxxxxxxxxxxx |xxxxxxxxxxxxx |xxxxxxxxxxxxx |       235246 |       235246 |       235246 |       235246 |xxxxxxxxxxxxx |xxxxxxxxxxxxx |xxxxxxxxxxxxx |       514589 |       514589 |       514589 |       514589 |xxxxxxxxxxxxx |xxxxxxxxxxxxx |xxxxxxxxxxxxx |      1071284 |      1071284 |      1071284 |      1071284 |xxxxxxxxxxxxx |xxxxxxxxxxxxx |xxxxxxxxxxxxx |      2318699 |      2318699 |      2318699 |      2318699 |xxxxxxxxxxxxx |xxxxxxxxxxxxx |xxxxxxxxxxxxx |      4810535 |      4810535 |      4810535 |      4810535 |xxxxxxxxxxxxx |xxxxxxxxxxxxx |xxxxxxxxxxxxx |     10147191 |     10147191 |     10147191 |     10147191 |xxxxxxxxxxxxx |xxxxxxxxxxxxx |xxxxxxxxxxxxx |     30678985 |     30678985 |     30678985 |     30678985 |xxxxxxxxxxxxx |xxxxxxxxxxxxx |xxxxxxxxxxxxx |     67180785 |     67180785 |     67180785 |     67180785 |xxxxxxxxxxxxx |xxxxxxxxxxxxx |xxxxxxxxxxxxx |    145971881 |    145971881 |    145971881 |    145971881 |xxxxxxxxxxxxx |xxxxxxxxxxxxx |xxxxxxxxxxxxx |    314567940 |    314567940 |    314567940 |    314567940 |
[...]
bpred_2lev.retstack_pops             xxxxxxxxxxxxx |xxxxxxxxxxxxx |xxxxxxxxxxxxx |           80 |           80 |           80 |           80 |xxxxxxxxxxxxx |xxxxxxxxxxxxx |xxxxxxxxxxxxx |           88 |           88 |           88 |           88 |xxxxxxxxxxxxx |xxxxxxxxxxxxx |xxxxxxxxxxxxx |          104 |          104 |          104 |          104 |xxxxxxxxxxxxx |xxxxxxxxxxxxx |xxxxxxxxxxxxx |          136 |          136 |          136 |          136 |xxxxxxxxxxxxx |xxxxxxxxxxxxx |xxxxxxxxxxxxx |          200 |          200 |          200 |          200 |xxxxxxxxxxxxx |xxxxxxxxxxxxx |xxxxxxxxxxxxx |          328 |          328 |          328 |          328 |xxxxxxxxxxxxx |xxxxxxxxxxxxx |xxxxxxxxxxxxx |          584 |          584 |          584 |          584 |xxxxxxxxxxxxx |xxxxxxxxxxxxx |xxxxxxxxxxxxx |       525413 |       525413 |       525413 |       525413 |xxxxxxxxxxxxx |xxxxxxxxxxxxx |xxxxxxxxxxxxx |      1050727 |      1050727 |      1050727 |      1050727 |xxxxxxxxxxxxx |xxxxxxxxxxxxx |xxxxxxxxxxxxx |      2101355 |      2101355 |      2101355 |      2101355 |xxxxxxxxxxxxx |xxxxxxxxxxxxx |xxxxxxxxxxxxx |      4202611 |      4202611 |      4202611 |      4202611 |
bpred_2lev.used_ras.PP               xxxxxxxxxxxxx |xxxxxxxxxxxxx |xxxxxxxxxxxxx |           80 |           80 |           80 |           80 |xxxxxxxxxxxxx |xxxxxxxxxxxxx |xxxxxxxxxxxxx |           88 |           88 |           88 |           88 |xxxxxxxxxxxxx |xxxxxxxxxxxxx |xxxxxxxxxxxxx |          104 |          104 |          104 |          104 |xxxxxxxxxxxxx |xxxxxxxxxxxxx |xxxxxxxxxxxxx |          136 |          136 |          136 |          136 |xxxxxxxxxxxxx |xxxxxxxxxxxxx |xxxxxxxxxxxxx |          200 |          200 |          200 |          200 |xxxxxxxxxxxxx |xxxxxxxxxxxxx |xxxxxxxxxxxxx |          328 |          328 |          328 |          328 |xxxxxxxxxxxxx |xxxxxxxxxxxxx |xxxxxxxxxxxxx |          584 |          584 |          584 |          584 |xxxxxxxxxxxxx |xxxxxxxxxxxxx |xxxxxxxxxxxxx |       525413 |       525413 |       525413 |       525413 |xxxxxxxxxxxxx |xxxxxxxxxxxxx |xxxxxxxxxxxxx |      1050727 |      1050727 |      1050727 |      1050727 |xxxxxxxxxxxxx |xxxxxxxxxxxxx |xxxxxxxxxxxxx |      2101355 |      2101355 |      2101355 |      2101355 |xxxxxxxxxxxxx |xxxxxxxxxxxxx |xxxxxxxxxxxxx |      4202611 |      4202611 |      4202611 |      4202611 |
bpred_2lev.ras_hits.PP               xxxxxxxxxxxxx |xxxxxxxxxxxxx |xxxxxxxxxxxxx |           79 |           79 |           79 |           79 |xxxxxxxxxxxxx |xxxxxxxxxxxxx |xxxxxxxxxxxxx |           87 |           87 |           87 |           87 |xxxxxxxxxxxxx |xxxxxxxxxxxxx |xxxxxxxxxxxxx |          103 |          103 |          103 |          103 |xxxxxxxxxxxxx |xxxxxxxxxxxxx |xxxxxxxxxxxxx |          135 |          135 |          135 |          135 |xxxxxxxxxxxxx |xxxxxxxxxxxxx |xxxxxxxxxxxxx |          199 |          199 |          199 |          199 |xxxxxxxxxxxxx |xxxxxxxxxxxxx |xxxxxxxxxxxxx |          327 |          327 |          327 |          327 |xxxxxxxxxxxxx |xxxxxxxxxxxxx |xxxxxxxxxxxxx |          583 |          583 |          583 |          583 |xxxxxxxxxxxxx |xxxxxxxxxxxxx |xxxxxxxxxxxxx |       525413 |       525413 |       525413 |       525413 |xxxxxxxxxxxxx |xxxxxxxxxxxxx |xxxxxxxxxxxxx |      1050727 |      1050727 |      1050727 |      1050727 |xxxxxxxxxxxxx |xxxxxxxxxxxxx |xxxxxxxxxxxxx |      2101355 |      2101355 |      2101355 |      2101355 |xxxxxxxxxxxxx |xxxxxxxxxxxxx |xxxxxxxxxxxxx |      4202611 |      4202611 |      4202611 |      4202611 |
bpred_2lev.ras_rate.PP               xxxxxxxxxxxxx |xxxxxxxxxxxxx |xxxxxxxxxxxxx |       0.9875 |       0.9875 |       0.9875 |       0.9875 |xxxxxxxxxxxxx |xxxxxxxxxxxxx |xxxxxxxxxxxxx |       0.9886 |       0.9886 |       0.9886 |       0.9886 |xxxxxxxxxxxxx |xxxxxxxxxxxxx |xxxxxxxxxxxxx |       0.9904 |       0.9904 |       0.9904 |       0.9904 |xxxxxxxxxxxxx |xxxxxxxxxxxxx |xxxxxxxxxxxxx |       0.9926 |       0.9926 |       0.9926 |       0.9926 |xxxxxxxxxxxxx |xxxxxxxxxxxxx |xxxxxxxxxxxxx |       0.9950 |       0.9950 |       0.9950 |       0.9950 |xxxxxxxxxxxxx |xxxxxxxxxxxxx |xxxxxxxxxxxxx |       0.9970 |       0.9970 |       0.9970 |       0.9970 |xxxxxxxxxxxxx |xxxxxxxxxxxxx |xxxxxxxxxxxxx |       0.9983 |       0.9983 |       0.9983 |       0.9983 |xxxxxxxxxxxxx |xxxxxxxxxxxxx |xxxxxxxxxxxxx |       1.0000 |       1.0000 |       1.0000 |       1.0000 |xxxxxxxxxxxxx |xxxxxxxxxxxxx |xxxxxxxxxxxxx |       1.0000 |       1.0000 |       1.0000 |       1.0000 |xxxxxxxxxxxxx |xxxxxxxxxxxxx |xxxxxxxxxxxxx |       1.0000 |       1.0000 |       1.0000 |       1.0000 |xxxxxxxxxxxxx |xxxxxxxxxxxxx |xxxxxxxxxxxxx |       1.0000 |       1.0000 |       1.0000 |       1.0000 |

Command list: 
	sslittle-na-sstrix-gcc -Wall -O3 -funroll-loops -finline-functions  -DRANDOM_SIZE=4096 -DOFFSET=8 -DSORT=double_multi_mergesort sorts/double_multi_mergesort732983533.c simpleMain.c -o double_multi_mergesort769158355
	sim-cache -cache:dl1 dl1:256:32:1:l -cache:dl2 dl2:131072:32:1:l -cache:il1 il1:256:32:1:l -cache:il2 dl2 double_multi_mergesort769158355
	sim-cache -cache:dl1 dl1:256:32:1:l -cache:dl2 dl2:65536:32:1:l -cache:il1 il1:256:32:1:l -cache:il2 dl2 double_multi_mergesort769158355
	sim-cache -cache:dl1 dl1:1:32:256:l -cache:dl2 dl2:1:32:131072:l -cache:il1 il1:1:32:256:l -cache:il2 dl2 double_multi_mergesort769158355
	sim-cache -cache:dl1 dl1:1:32:256:l -cache:dl2 dl2:1:32:65536:l -cache:il1 il1:1:32:256:l -cache:il2 dl2 double_multi_mergesort769158355
	sim-bpred -bpred bimod -bpred:bimod 512 double_multi_mergesort769158355
	sim-bpred -bpred bimod -bpred:bimod 1024 double_multi_mergesort769158355
	sim-bpred -bpred bimod -bpred:bimod 2048 double_multi_mergesort769158355
	sim-bpred -bpred 2lev -bpred:2lev 1 512 10 1 double_multi_mergesort769158355
	sim-bpred -bpred 2lev -bpred:2lev 1 1024 10 1 double_multi_mergesort769158355
	sim-bpred -bpred 2lev -bpred:2lev 1 2048 10 1 double_multi_mergesort769158355
	sim-bpred -bpred 2lev -bpred:2lev 1 4096 10 1 double_multi_mergesort769158355
	sslittle-na-sstrix-gcc -Wall -O3 -funroll-loops -finline-functions  -DRANDOM_SIZE=8192 -DOFFSET=8 -DSORT=double_multi_mergesort sorts/double_multi_mergesort732983533.c simpleMain.c -o double_multi_mergesort769158355
	sim-cache -cache:dl1 dl1:256:32:1:l -cache:dl2 dl2:131072:32:1:l -cache:il1 il1:256:32:1:l -cache:il2 dl2 double_multi_mergesort769158355
	sim-cache -cache:dl1 dl1:256:32:1:l -cache:dl2 dl2:65536:32:1:l -cache:il1 il1:256:32:1:l -cache:il2 dl2 double_multi_mergesort769158355
	sim-cache -cache:dl1 dl1:1:32:256:l -cache:dl2 dl2:1:32:131072:l -cache:il1 il1:1:32:256:l -cache:il2 dl2 double_multi_mergesort769158355
	sim-cache -cache:dl1 dl1:1:32:256:l -cache:dl2 dl2:1:32:65536:l -cache:il1 il1:1:32:256:l -cache:il2 dl2 double_multi_mergesort769158355
	sim-bpred -bpred bimod -bpred:bimod 512 double_multi_mergesort769158355
	sim-bpred -bpred bimod -bpred:bimod 1024 double_multi_mergesort769158355
	sim-bpred -bpred bimod -bpred:bimod 2048 double_multi_mergesort769158355
	sim-bpred -bpred 2lev -bpred:2lev 1 512 10 1 double_multi_mergesort769158355
	sim-bpred -bpred 2lev -bpred:2lev 1 1024 10 1 double_multi_mergesort769158355
	sim-bpred -bpred 2lev -bpred:2lev 1 2048 10 1 double_multi_mergesort769158355
	sim-bpred -bpred 2lev -bpred:2lev 1 4096 10 1 double_multi_mergesort769158355
	sslittle-na-sstrix-gcc -Wall -O3 -funroll-loops -finline-functions  -DRANDOM_SIZE=16384 -DOFFSET=8 -DSORT=double_multi_mergesort sorts/double_multi_mergesort732983533.c simpleMain.c -o double_multi_mergesort769158355
	sim-cache -cache:dl1 dl1:256:32:1:l -cache:dl2 dl2:131072:32:1:l -cache:il1 il1:256:32:1:l -cache:il2 dl2 double_multi_mergesort769158355
	sim-cache -cache:dl1 dl1:256:32:1:l -cache:dl2 dl2:65536:32:1:l -cache:il1 il1:256:32:1:l -cache:il2 dl2 double_multi_mergesort769158355
	sim-cache -cache:dl1 dl1:1:32:256:l -cache:dl2 dl2:1:32:131072:l -cache:il1 il1:1:32:256:l -cache:il2 dl2 double_multi_mergesort769158355
	sim-cache -cache:dl1 dl1:1:32:256:l -cache:dl2 dl2:1:32:65536:l -cache:il1 il1:1:32:256:l -cache:il2 dl2 double_multi_mergesort769158355
	sim-bpred -bpred bimod -bpred:bimod 512 double_multi_mergesort769158355
	sim-bpred -bpred bimod -bpred:bimod 1024 double_multi_mergesort769158355
	sim-bpred -bpred bimod -bpred:bimod 2048 double_multi_mergesort769158355
	sim-bpred -bpred 2lev -bpred:2lev 1 512 10 1 double_multi_mergesort769158355
	sim-bpred -bpred 2lev -bpred:2lev 1 1024 10 1 double_multi_mergesort769158355
	sim-bpred -bpred 2lev -bpred:2lev 1 2048 10 1 double_multi_mergesort769158355
	sim-bpred -bpred 2lev -bpred:2lev 1 4096 10 1 double_multi_mergesort769158355
	sslittle-na-sstrix-gcc -Wall -O3 -funroll-loops -finline-functions  -DRANDOM_SIZE=32768 -DOFFSET=8 -DSORT=double_multi_mergesort sorts/double_multi_mergesort732983533.c simpleMain.c -o double_multi_mergesort769158355
	sim-cache -cache:dl1 dl1:256:32:1:l -cache:dl2 dl2:131072:32:1:l -cache:il1 il1:256:32:1:l -cache:il2 dl2 double_multi_mergesort769158355
	sim-cache -cache:dl1 dl1:256:32:1:l -cache:dl2 dl2:65536:32:1:l -cache:il1 il1:256:32:1:l -cache:il2 dl2 double_multi_mergesort769158355
	sim-cache -cache:dl1 dl1:1:32:256:l -cache:dl2 dl2:1:32:131072:l -cache:il1 il1:1:32:256:l -cache:il2 dl2 double_multi_mergesort769158355
	sim-cache -cache:dl1 dl1:1:32:256:l -cache:dl2 dl2:1:32:65536:l -cache:il1 il1:1:32:256:l -cache:il2 dl2 double_multi_mergesort769158355
	sim-bpred -bpred bimod -bpred:bimod 512 double_multi_mergesort769158355
	sim-bpred -bpred bimod -bpred:bimod 1024 double_multi_mergesort769158355
	sim-bpred -bpred bimod -bpred:bimod 2048 double_multi_mergesort769158355
	sim-bpred -bpred 2lev -bpred:2lev 1 512 10 1 double_multi_mergesort769158355
	sim-bpred -bpred 2lev -bpred:2lev 1 1024 10 1 double_multi_mergesort769158355
	sim-bpred -bpred 2lev -bpred:2lev 1 2048 10 1 double_multi_mergesort769158355
	sim-bpred -bpred 2lev -bpred:2lev 1 4096 10 1 double_multi_mergesort769158355
	sslittle-na-sstrix-gcc -Wall -O3 -funroll-loops -finline-functions  -DRANDOM_SIZE=65536 -DOFFSET=8 -DSORT=double_multi_mergesort sorts/double_multi_mergesort732983533.c simpleMain.c -o double_multi_mergesort769158355
	sim-cache -cache:dl1 dl1:256:32:1:l -cache:dl2 dl2:131072:32:1:l -cache:il1 il1:256:32:1:l -cache:il2 dl2 double_multi_mergesort769158355
	sim-cache -cache:dl1 dl1:256:32:1:l -cache:dl2 dl2:65536:32:1:l -cache:il1 il1:256:32:1:l -cache:il2 dl2 double_multi_mergesort769158355
	sim-cache -cache:dl1 dl1:1:32:256:l -cache:dl2 dl2:1:32:131072:l -cache:il1 il1:1:32:256:l -cache:il2 dl2 double_multi_mergesort769158355
	sim-cache -cache:dl1 dl1:1:32:256:l -cache:dl2 dl2:1:32:65536:l -cache:il1 il1:1:32:256:l -cache:il2 dl2 double_multi_mergesort769158355
	sim-bpred -bpred bimod -bpred:bimod 512 double_multi_mergesort769158355
	sim-bpred -bpred bimod -bpred:bimod 1024 double_multi_mergesort769158355
	sim-bpred -bpred bimod -bpred:bimod 2048 double_multi_mergesort769158355
	sim-bpred -bpred 2lev -bpred:2lev 1 512 10 1 double_multi_mergesort769158355
	sim-bpred -bpred 2lev -bpred:2lev 1 1024 10 1 double_multi_mergesort769158355
	sim-bpred -bpred 2lev -bpred:2lev 1 2048 10 1 double_multi_mergesort769158355
	sim-bpred -bpred 2lev -bpred:2lev 1 4096 10 1 double_multi_mergesort769158355
	sslittle-na-sstrix-gcc -Wall -O3 -funroll-loops -finline-functions  -DRANDOM_SIZE=131072 -DOFFSET=8 -DSORT=double_multi_mergesort sorts/double_multi_mergesort732983533.c simpleMain.c -o double_multi_mergesort769158355
	sim-cache -cache:dl1 dl1:256:32:1:l -cache:dl2 dl2:131072:32:1:l -cache:il1 il1:256:32:1:l -cache:il2 dl2 double_multi_mergesort769158355
	sim-cache -cache:dl1 dl1:256:32:1:l -cache:dl2 dl2:65536:32:1:l -cache:il1 il1:256:32:1:l -cache:il2 dl2 double_multi_mergesort769158355
	sim-cache -cache:dl1 dl1:1:32:256:l -cache:dl2 dl2:1:32:131072:l -cache:il1 il1:1:32:256:l -cache:il2 dl2 double_multi_mergesort769158355
	sim-cache -cache:dl1 dl1:1:32:256:l -cache:dl2 dl2:1:32:65536:l -cache:il1 il1:1:32:256:l -cache:il2 dl2 double_multi_mergesort769158355
	sim-bpred -bpred bimod -bpred:bimod 512 double_multi_mergesort769158355
	sim-bpred -bpred bimod -bpred:bimod 1024 double_multi_mergesort769158355
	sim-bpred -bpred bimod -bpred:bimod 2048 double_multi_mergesort769158355
	sim-bpred -bpred 2lev -bpred:2lev 1 512 10 1 double_multi_mergesort769158355
	sim-bpred -bpred 2lev -bpred:2lev 1 1024 10 1 double_multi_mergesort769158355
	sim-bpred -bpred 2lev -bpred:2lev 1 2048 10 1 double_multi_mergesort769158355
	sim-bpred -bpred 2lev -bpred:2lev 1 4096 10 1 double_multi_mergesort769158355
	sslittle-na-sstrix-gcc -Wall -O3 -funroll-loops -finline-functions  -DRANDOM_SIZE=262144 -DOFFSET=8 -DSORT=double_multi_mergesort sorts/double_multi_mergesort732983533.c simpleMain.c -o double_multi_mergesort769158355
	sim-cache -cache:dl1 dl1:256:32:1:l -cache:dl2 dl2:131072:32:1:l -cache:il1 il1:256:32:1:l -cache:il2 dl2 double_multi_mergesort769158355
	sim-cache -cache:dl1 dl1:256:32:1:l -cache:dl2 dl2:65536:32:1:l -cache:il1 il1:256:32:1:l -cache:il2 dl2 double_multi_mergesort769158355
	sim-cache -cache:dl1 dl1:1:32:256:l -cache:dl2 dl2:1:32:131072:l -cache:il1 il1:1:32:256:l -cache:il2 dl2 double_multi_mergesort769158355
	sim-cache -cache:dl1 dl1:1:32:256:l -cache:dl2 dl2:1:32:65536:l -cache:il1 il1:1:32:256:l -cache:il2 dl2 double_multi_mergesort769158355
	sim-bpred -bpred bimod -bpred:bimod 512 double_multi_mergesort769158355
	sim-bpred -bpred bimod -bpred:bimod 1024 double_multi_mergesort769158355
	sim-bpred -bpred bimod -bpred:bimod 2048 double_multi_mergesort769158355
	sim-bpred -bpred 2lev -bpred:2lev 1 512 10 1 double_multi_mergesort769158355
	sim-bpred -bpred 2lev -bpred:2lev 1 1024 10 1 double_multi_mergesort769158355
	sim-bpred -bpred 2lev -bpred:2lev 1 2048 10 1 double_multi_mergesort769158355
	sim-bpred -bpred 2lev -bpred:2lev 1 4096 10 1 double_multi_mergesort769158355
	sslittle-na-sstrix-gcc -Wall -O3 -funroll-loops -finline-functions  -DRANDOM_SIZE=524288 -DOFFSET=8 -DSORT=double_multi_mergesort sorts/double_multi_mergesort732983533.c simpleMain.c -o double_multi_mergesort769158355
	sim-cache -cache:dl1 dl1:256:32:1:l -cache:dl2 dl2:131072:32:1:l -cache:il1 il1:256:32:1:l -cache:il2 dl2 double_multi_mergesort769158355
	sim-cache -cache:dl1 dl1:256:32:1:l -cache:dl2 dl2:65536:32:1:l -cache:il1 il1:256:32:1:l -cache:il2 dl2 double_multi_mergesort769158355
	sim-cache -cache:dl1 dl1:1:32:256:l -cache:dl2 dl2:1:32:131072:l -cache:il1 il1:1:32:256:l -cache:il2 dl2 double_multi_mergesort769158355
	sim-cache -cache:dl1 dl1:1:32:256:l -cache:dl2 dl2:1:32:65536:l -cache:il1 il1:1:32:256:l -cache:il2 dl2 double_multi_mergesort769158355
	sim-bpred -bpred bimod -bpred:bimod 512 double_multi_mergesort769158355
	sim-bpred -bpred bimod -bpred:bimod 1024 double_multi_mergesort769158355
	sim-bpred -bpred bimod -bpred:bimod 2048 double_multi_mergesort769158355
	sim-bpred -bpred 2lev -bpred:2lev 1 512 10 1 double_multi_mergesort769158355
	sim-bpred -bpred 2lev -bpred:2lev 1 1024 10 1 double_multi_mergesort769158355
	sim-bpred -bpred 2lev -bpred:2lev 1 2048 10 1 double_multi_mergesort769158355
	sim-bpred -bpred 2lev -bpred:2lev 1 4096 10 1 double_multi_mergesort769158355
	sslittle-na-sstrix-gcc -Wall -O3 -funroll-loops -finline-functions  -DRANDOM_SIZE=1048576 -DOFFSET=8 -DSORT=double_multi_mergesort sorts/double_multi_mergesort732983533.c simpleMain.c -o double_multi_mergesort769158355
	sim-cache -cache:dl1 dl1:256:32:1:l -cache:dl2 dl2:131072:32:1:l -cache:il1 il1:256:32:1:l -cache:il2 dl2 double_multi_mergesort769158355
	sim-cache -cache:dl1 dl1:256:32:1:l -cache:dl2 dl2:65536:32:1:l -cache:il1 il1:256:32:1:l -cache:il2 dl2 double_multi_mergesort769158355
	sim-cache -cache:dl1 dl1:1:32:256:l -cache:dl2 dl2:1:32:131072:l -cache:il1 il1:1:32:256:l -cache:il2 dl2 double_multi_mergesort769158355
	sim-cache -cache:dl1 dl1:1:32:256:l -cache:dl2 dl2:1:32:65536:l -cache:il1 il1:1:32:256:l -cache:il2 dl2 double_multi_mergesort769158355
	sim-bpred -bpred bimod -bpred:bimod 512 double_multi_mergesort769158355
	sim-bpred -bpred bimod -bpred:bimod 1024 double_multi_mergesort769158355
	sim-bpred -bpred bimod -bpred:bimod 2048 double_multi_mergesort769158355
	sim-bpred -bpred 2lev -bpred:2lev 1 512 10 1 double_multi_mergesort769158355
	sim-bpred -bpred 2lev -bpred:2lev 1 1024 10 1 double_multi_mergesort769158355
	sim-bpred -bpred 2lev -bpred:2lev 1 2048 10 1 double_multi_mergesort769158355
	sim-bpred -bpred 2lev -bpred:2lev 1 4096 10 1 double_multi_mergesort769158355
	sslittle-na-sstrix-gcc -Wall -O3 -funroll-loops -finline-functions  -DRANDOM_SIZE=2097152 -DOFFSET=8 -DSORT=double_multi_mergesort sorts/double_multi_mergesort732983533.c simpleMain.c -o double_multi_mergesort769158355
	sim-cache -cache:dl1 dl1:256:32:1:l -cache:dl2 dl2:131072:32:1:l -cache:il1 il1:256:32:1:l -cache:il2 dl2 double_multi_mergesort769158355
	sim-cache -cache:dl1 dl1:256:32:1:l -cache:dl2 dl2:65536:32:1:l -cache:il1 il1:256:32:1:l -cache:il2 dl2 double_multi_mergesort769158355
	sim-cache -cache:dl1 dl1:1:32:256:l -cache:dl2 dl2:1:32:131072:l -cache:il1 il1:1:32:256:l -cache:il2 dl2 double_multi_mergesort769158355
	sim-cache -cache:dl1 dl1:1:32:256:l -cache:dl2 dl2:1:32:65536:l -cache:il1 il1:1:32:256:l -cache:il2 dl2 double_multi_mergesort769158355
	sim-bpred -bpred bimod -bpred:bimod 512 double_multi_mergesort769158355
	sim-bpred -bpred bimod -bpred:bimod 1024 double_multi_mergesort769158355
	sim-bpred -bpred bimod -bpred:bimod 2048 double_multi_mergesort769158355
	sim-bpred -bpred 2lev -bpred:2lev 1 512 10 1 double_multi_mergesort769158355
	sim-bpred -bpred 2lev -bpred:2lev 1 1024 10 1 double_multi_mergesort769158355
	sim-bpred -bpred 2lev -bpred:2lev 1 2048 10 1 double_multi_mergesort769158355
	sim-bpred -bpred 2lev -bpred:2lev 1 4096 10 1 double_multi_mergesort769158355
	sslittle-na-sstrix-gcc -Wall -O3 -funroll-loops -finline-functions  -DRANDOM_SIZE=4194304 -DOFFSET=8 -DSORT=double_multi_mergesort sorts/double_multi_mergesort732983533.c simpleMain.c -o double_multi_mergesort769158355
	sim-cache -cache:dl1 dl1:256:32:1:l -cache:dl2 dl2:131072:32:1:l -cache:il1 il1:256:32:1:l -cache:il2 dl2 double_multi_mergesort769158355
	sim-cache -cache:dl1 dl1:256:32:1:l -cache:dl2 dl2:65536:32:1:l -cache:il1 il1:256:32:1:l -cache:il2 dl2 double_multi_mergesort769158355
	sim-cache -cache:dl1 dl1:1:32:256:l -cache:dl2 dl2:1:32:131072:l -cache:il1 il1:1:32:256:l -cache:il2 dl2 double_multi_mergesort769158355
	sim-cache -cache:dl1 dl1:1:32:256:l -cache:dl2 dl2:1:32:65536:l -cache:il1 il1:1:32:256:l -cache:il2 dl2 double_multi_mergesort769158355
	sim-bpred -bpred bimod -bpred:bimod 512 double_multi_mergesort769158355
	sim-bpred -bpred bimod -bpred:bimod 1024 double_multi_mergesort769158355
	sim-bpred -bpred bimod -bpred:bimod 2048 double_multi_mergesort769158355
	sim-bpred -bpred 2lev -bpred:2lev 1 512 10 1 double_multi_mergesort769158355
	sim-bpred -bpred 2lev -bpred:2lev 1 1024 10 1 double_multi_mergesort769158355
	sim-bpred -bpred 2lev -bpred:2lev 1 2048 10 1 double_multi_mergesort769158355
	sim-bpred -bpred 2lev -bpred:2lev 1 4096 10 1 double_multi_mergesort769158355
