Tue Jun 28 11:42:39 2005
Run as: "./do_simple -c random.org2 -o 2 double_tiled_mergesort"
-------------------------------------------------------------------------------------------------
sim-cache                                     4096 |         4096 |         4096 |         4096 |         8192 |         8192 |         8192 |         8192 |        16384 |        16384 |        16384 |        16384 |        32768 |        32768 |        32768 |        32768 |        65536 |        65536 |        65536 |        65536 |       131072 |       131072 |       131072 |       131072 |       262144 |       262144 |       262144 |       262144 |       524288 |       524288 |       524288 |       524288 |      1048576 |      1048576 |      1048576 |      1048576 |      2097152 |      2097152 |      2097152 |      2097152 |      4194304 |      4194304 |      4194304 |      4194304 |
-cache:dl1 dl1:256:32:1:l -cache:dl2 dl2:131072:32:1:l -cache:il1 il1:256:32:1:l -cache:il2 dl2
-cache:dl1 dl1:256:32:1:l -cache:dl2 dl2:65536:32:1:l -cache:il1 il1:256:32:1:l -cache:il2 dl2
-cache:dl1 dl1:1:32:256:l -cache:dl2 dl2:1:32:131072:l -cache:il1 il1:1:32:256:l -cache:il2 dl2
-cache:dl1 dl1:1:32:256:l -cache:dl2 dl2:1:32:65536:l -cache:il1 il1:1:32:256:l -cache:il2 dl2
-------------------------------------------------------------------------------------------------
sim_num_insn                                861166 |       861166 |       861166 |       861166 |      1753124 |      1753124 |      1753124 |      1753124 |      3961049 |      3961049 |      3961049 |      3961049 |      8060268 |      8060268 |      8060268 |      8060268 |     17981863 |     17981863 |     17981863 |     17981863 |     36569886 |     36569886 |     36569886 |     36569886 |     80537336 |     80537336 |     80537336 |     80537336 |    168416625 |    168416625 |    168416625 |    168416625 |    366458230 |    366458230 |    366458230 |    366458230 |    742824652 |    742824652 |    742824652 |    742824652 |   1604546136 |   1604546136 |   1604546136 |   1604546136 |
sim_num_refs                                229237 |       229237 |       229237 |       229237 |       472400 |       472400 |       472400 |       472400 |      1051903 |      1051903 |      1051903 |      1051903 |      2170319 |      2170319 |      2170319 |      2170319 |      4784615 |      4784615 |      4784615 |      4784615 |      9854537 |      9854537 |      9854537 |      9854537 |     21481099 |     21481099 |     21481099 |     21481099 |     45705558 |     45705558 |     45705558 |     45705558 |     98506196 |     98506196 |     98506196 |     98506196 |    201658207 |    201658207 |    201658207 |    201658207 |    431808547 |    431808547 |    431808547 |    431808547 |
sim_elapsed_time                                 1 |            1 |            9 |            4 |            1 |            1 |           15 |            7 |            1 |            1 |           26 |           13 |            2 |            2 |           46 |           23 |            4 |            5 |           84 |           42 |            9 |            9 |          154 |           72 |           20 |           21 |          265 |          102 |           43 |           43 |          367 |          125 |           92 |           91 |          420 |          180 |          187 |          187 |          524 |          285 |          402 |          403 |          764 |          526 |
sim_inst_rate                          861166.0000 |  861166.0000 |   95685.1111 |  215291.5000 | 1753124.0000 | 1753124.0000 |  116874.9333 |  250446.2857 | 3961049.0000 | 3961049.0000 |  152348.0385 |  304696.0769 | 4030134.0000 | 4030134.0000 |  175223.2174 |  350446.4348 | 4495465.7500 | 3596372.6000 |  214069.7976 |  428139.5952 | 4063320.6667 | 4063320.6667 |  237466.7922 |  507915.0833 | 4026866.8000 | 3835111.2381 |  303914.4755 |  789581.7255 | 3916665.6977 | 3916665.6977 |  458900.8856 | 1347333.0000 | 3983241.6304 | 4027013.5165 |  872519.5952 | 2035879.0556 | 3972324.3422 | 3972324.3422 | 1417604.2977 | 2606402.2877 | 3991408.2985 | 3981504.0596 | 2100191.2775 | 3050467.9392 |
il1.accesses                                861166 |       861166 |       861166 |       861166 |      1753124 |      1753124 |      1753124 |      1753124 |      3961049 |      3961049 |      3961049 |      3961049 |      8060268 |      8060268 |      8060268 |      8060268 |     17981863 |     17981863 |     17981863 |     17981863 |     36569886 |     36569886 |     36569886 |     36569886 |     80537336 |     80537336 |     80537336 |     80537336 |    168416625 |    168416625 |    168416625 |    168416625 |    366458230 |    366458230 |    366458230 |    366458230 |    742824652 |    742824652 |    742824652 |    742824652 |   1604546136 |   1604546136 |   1604546136 |   1604546136 |
il1.hits                                    860494 |       860494 |       860589 |       860589 |      1752431 |      1752431 |      1752523 |      1752523 |      3960373 |      3960373 |      3960473 |      3960473 |      8059575 |      8059575 |      8059667 |      8059667 |     17981188 |     17981188 |     17981283 |     17981283 |     36569191 |     36569191 |     36569284 |     36569284 |     80536661 |     80536661 |     80536757 |     80536757 |    168414343 |    168414343 |    168415949 |    168415949 |    366454422 |    366454422 |    366457572 |    366457572 |    742817726 |    742817726 |    742823976 |    742823976 |   1604533064 |   1604533064 |   1604545478 |   1604545478 |
il1.misses                                     672 |          672 |          577 |          577 |          693 |          693 |          601 |          601 |          676 |          676 |          576 |          576 |          693 |          693 |          601 |          601 |          675 |          675 |          580 |          580 |          695 |          695 |          602 |          602 |          675 |          675 |          579 |          579 |         2282 |         2282 |          676 |          676 |         3808 |         3808 |          658 |          658 |         6926 |         6926 |          676 |          676 |        13072 |        13072 |          658 |          658 |
il1.replacements                               429 |          429 |          321 |          321 |          449 |          449 |          345 |          345 |          435 |          435 |          320 |          320 |          449 |          449 |          345 |          345 |          433 |          433 |          324 |          324 |          451 |          451 |          346 |          346 |          446 |          446 |          323 |          323 |         2057 |         2057 |          420 |          420 |         3585 |         3585 |          402 |          402 |         6701 |         6701 |          420 |          420 |        12849 |        12849 |          402 |          402 |
il1.writebacks                                   0 |            0 |            0 |            0 |            0 |            0 |            0 |            0 |            0 |            0 |            0 |            0 |            0 |            0 |            0 |            0 |            0 |            0 |            0 |            0 |            0 |            0 |            0 |            0 |            0 |            0 |            0 |            0 |            0 |            0 |            0 |            0 |            0 |            0 |            0 |            0 |            0 |            0 |            0 |            0 |            0 |            0 |            0 |            0 |
il1.invalidations                                0 |            0 |            0 |            0 |            0 |            0 |            0 |            0 |            0 |            0 |            0 |            0 |            0 |            0 |            0 |            0 |            0 |            0 |            0 |            0 |            0 |            0 |            0 |            0 |            0 |            0 |            0 |            0 |            0 |            0 |            0 |            0 |            0 |            0 |            0 |            0 |            0 |            0 |            0 |            0 |            0 |            0 |            0 |            0 |
il1.miss_rate                               0.0008 |       0.0008 |       0.0007 |       0.0007 |       0.0004 |       0.0004 |       0.0003 |       0.0003 |       0.0002 |       0.0002 |       0.0001 |       0.0001 |       0.0001 |       0.0001 |       0.0001 |       0.0001 |       0.0000 |       0.0000 |       0.0000 |       0.0000 |       0.0000 |       0.0000 |       0.0000 |       0.0000 |       0.0000 |       0.0000 |       0.0000 |       0.0000 |       0.0000 |       0.0000 |       0.0000 |       0.0000 |       0.0000 |       0.0000 |       0.0000 |       0.0000 |       0.0000 |       0.0000 |       0.0000 |       0.0000 |       0.0000 |       0.0000 |       0.0000 |       0.0000 |
il1.repl_rate                               0.0005 |       0.0005 |       0.0004 |       0.0004 |       0.0003 |       0.0003 |       0.0002 |       0.0002 |       0.0001 |       0.0001 |       0.0001 |       0.0001 |       0.0001 |       0.0001 |       0.0000 |       0.0000 |       0.0000 |       0.0000 |       0.0000 |       0.0000 |       0.0000 |       0.0000 |       0.0000 |       0.0000 |       0.0000 |       0.0000 |       0.0000 |       0.0000 |       0.0000 |       0.0000 |       0.0000 |       0.0000 |       0.0000 |       0.0000 |       0.0000 |       0.0000 |       0.0000 |       0.0000 |       0.0000 |       0.0000 |       0.0000 |       0.0000 |       0.0000 |       0.0000 |
il1.wb_rate                                 0.0000 |       0.0000 |       0.0000 |       0.0000 |       0.0000 |       0.0000 |       0.0000 |       0.0000 |       0.0000 |       0.0000 |       0.0000 |       0.0000 |       0.0000 |       0.0000 |       0.0000 |       0.0000 |       0.0000 |       0.0000 |       0.0000 |       0.0000 |       0.0000 |       0.0000 |       0.0000 |       0.0000 |       0.0000 |       0.0000 |       0.0000 |       0.0000 |       0.0000 |       0.0000 |       0.0000 |       0.0000 |       0.0000 |       0.0000 |       0.0000 |       0.0000 |       0.0000 |       0.0000 |       0.0000 |       0.0000 |       0.0000 |       0.0000 |       0.0000 |       0.0000 |
il1.inv_rate                                0.0000 |       0.0000 |       0.0000 |       0.0000 |       0.0000 |       0.0000 |       0.0000 |       0.0000 |       0.0000 |       0.0000 |       0.0000 |       0.0000 |       0.0000 |       0.0000 |       0.0000 |       0.0000 |       0.0000 |       0.0000 |       0.0000 |       0.0000 |       0.0000 |       0.0000 |       0.0000 |       0.0000 |       0.0000 |       0.0000 |       0.0000 |       0.0000 |       0.0000 |       0.0000 |       0.0000 |       0.0000 |       0.0000 |       0.0000 |       0.0000 |       0.0000 |       0.0000 |       0.0000 |       0.0000 |       0.0000 |       0.0000 |       0.0000 |       0.0000 |       0.0000 |
dl1.accesses                                245703 |       245703 |       245703 |       245703 |       505250 |       505250 |       505250 |       505250 |      1117521 |      1117521 |      1117521 |      1117521 |      2301473 |      2301473 |      2301473 |      2301473 |      5046841 |      5046841 |      5046841 |      5046841 |     10378907 |     10378907 |     10378907 |     10378907 |     22529757 |     22529757 |     22529757 |     22529757 |     47802792 |     47802792 |     47802792 |     47802792 |    102700582 |    102700582 |    102700582 |    102700582 |    210046897 |    210046897 |    210046897 |    210046897 |    448585845 |    448585845 |    448585845 |    448585845 |
dl1.hits                                    240267 |       240267 |       238744 |       238744 |       492728 |       492728 |       491017 |       491017 |      1088044 |      1088044 |      1082937 |      1082937 |      2234710 |      2234710 |      2229664 |      2229664 |      4894588 |      4894588 |      4877198 |      4877198 |     10040286 |     10040286 |     10027608 |     10027608 |     21777650 |     21777650 |     21721679 |     21721679 |     46019289 |     46019289 |     46004824 |     46004824 |     98833992 |     98833992 |     98681701 |     98681701 |    201747768 |    201747768 |    201810265 |    201810265 |    430796388 |    430796388 |    430416209 |    430416209 |
dl1.misses                                    5436 |         5436 |         6959 |         6959 |        12522 |        12522 |        14233 |        14233 |        29477 |        29477 |        34584 |        34584 |        66763 |        66763 |        71809 |        71809 |       152253 |       152253 |       169643 |       169643 |       338621 |       338621 |       351299 |       351299 |       752107 |       752107 |       808078 |       808078 |      1783503 |      1783503 |      1797968 |      1797968 |      3866590 |      3866590 |      4018881 |      4018881 |      8299129 |      8299129 |      8236632 |      8236632 |     17789457 |     17789457 |     18169636 |     18169636 |
dl1.replacements                              5180 |         5180 |         6703 |         6703 |        12266 |        12266 |        13977 |        13977 |        29221 |        29221 |        34328 |        34328 |        66507 |        66507 |        71553 |        71553 |       151997 |       151997 |       169387 |       169387 |       338365 |       338365 |       351043 |       351043 |       751851 |       751851 |       807822 |       807822 |      1783247 |      1783247 |      1797712 |      1797712 |      3866334 |      3866334 |      4018625 |      4018625 |      8298873 |      8298873 |      8236376 |      8236376 |     17789201 |     17789201 |     18169380 |     18169380 |
dl1.writebacks                                3505 |         3505 |         5058 |         5058 |         7766 |         7766 |         9807 |         9807 |        17443 |        17443 |        23384 |        23384 |        38772 |        38772 |        46405 |        46405 |        86021 |        86021 |       108962 |       108962 |       188813 |       188813 |       217374 |       217374 |       412399 |       412399 |       500359 |       500359 |       960594 |       960594 |      1065878 |      1065878 |      2060861 |      2060861 |      2394926 |      2394926 |      4393770 |      4393770 |      4785552 |      4785552 |      9348362 |      9348362 |     10627161 |     10627161 |
dl1.invalidations                                0 |            0 |            0 |            0 |            0 |            0 |            0 |            0 |            0 |            0 |            0 |            0 |            0 |            0 |            0 |            0 |            0 |            0 |            0 |            0 |            0 |            0 |            0 |            0 |            0 |            0 |            0 |            0 |            0 |            0 |            0 |            0 |            0 |            0 |            0 |            0 |            0 |            0 |            0 |            0 |            0 |            0 |            0 |            0 |
dl1.miss_rate                               0.0221 |       0.0221 |       0.0283 |       0.0283 |       0.0248 |       0.0248 |       0.0282 |       0.0282 |       0.0264 |       0.0264 |       0.0309 |       0.0309 |       0.0290 |       0.0290 |       0.0312 |       0.0312 |       0.0302 |       0.0302 |       0.0336 |       0.0336 |       0.0326 |       0.0326 |       0.0338 |       0.0338 |       0.0334 |       0.0334 |       0.0359 |       0.0359 |       0.0373 |       0.0373 |       0.0376 |       0.0376 |       0.0376 |       0.0376 |       0.0391 |       0.0391 |       0.0395 |       0.0395 |       0.0392 |       0.0392 |       0.0397 |       0.0397 |       0.0405 |       0.0405 |
dl1.repl_rate                               0.0211 |       0.0211 |       0.0273 |       0.0273 |       0.0243 |       0.0243 |       0.0277 |       0.0277 |       0.0261 |       0.0261 |       0.0307 |       0.0307 |       0.0289 |       0.0289 |       0.0311 |       0.0311 |       0.0301 |       0.0301 |       0.0336 |       0.0336 |       0.0326 |       0.0326 |       0.0338 |       0.0338 |       0.0334 |       0.0334 |       0.0359 |       0.0359 |       0.0373 |       0.0373 |       0.0376 |       0.0376 |       0.0376 |       0.0376 |       0.0391 |       0.0391 |       0.0395 |       0.0395 |       0.0392 |       0.0392 |       0.0397 |       0.0397 |       0.0405 |       0.0405 |
dl1.wb_rate                                 0.0143 |       0.0143 |       0.0206 |       0.0206 |       0.0154 |       0.0154 |       0.0194 |       0.0194 |       0.0156 |       0.0156 |       0.0209 |       0.0209 |       0.0168 |       0.0168 |       0.0202 |       0.0202 |       0.0170 |       0.0170 |       0.0216 |       0.0216 |       0.0182 |       0.0182 |       0.0209 |       0.0209 |       0.0183 |       0.0183 |       0.0222 |       0.0222 |       0.0201 |       0.0201 |       0.0223 |       0.0223 |       0.0201 |       0.0201 |       0.0233 |       0.0233 |       0.0209 |       0.0209 |       0.0228 |       0.0228 |       0.0208 |       0.0208 |       0.0237 |       0.0237 |
dl1.inv_rate                                0.0000 |       0.0000 |       0.0000 |       0.0000 |       0.0000 |       0.0000 |       0.0000 |       0.0000 |       0.0000 |       0.0000 |       0.0000 |       0.0000 |       0.0000 |       0.0000 |       0.0000 |       0.0000 |       0.0000 |       0.0000 |       0.0000 |       0.0000 |       0.0000 |       0.0000 |       0.0000 |       0.0000 |       0.0000 |       0.0000 |       0.0000 |       0.0000 |       0.0000 |       0.0000 |       0.0000 |       0.0000 |       0.0000 |       0.0000 |       0.0000 |       0.0000 |       0.0000 |       0.0000 |       0.0000 |       0.0000 |       0.0000 |       0.0000 |       0.0000 |       0.0000 |
dl2.accesses                                  9613 |         9613 |        12594 |        12594 |        20981 |        20981 |        24641 |        24641 |        47596 |        47596 |        58544 |        58544 |       106228 |       106228 |       118815 |       118815 |       238949 |       238949 |       279185 |       279185 |       528129 |       528129 |       569275 |       569275 |      1165181 |      1165181 |      1309016 |      1309016 |      2746379 |      2746379 |      2864522 |      2864522 |      5931259 |      5931259 |      6414465 |      6414465 |     12699825 |     12699825 |     13022860 |     13022860 |     27150891 |     27150891 |     28797455 |     28797455 |
dl2.hits                                      7633 |         7633 |        10632 |        10632 |        17957 |        17957 |        21636 |        21636 |        42545 |        42545 |        53511 |        53511 |        97060 |        97060 |       109665 |       109665 |       221606 |       221606 |       261860 |       261860 |       494384 |       494384 |       535549 |       535549 |      1098687 |      1096150 |      1242541 |      1205683 |      2504674 |      2334589 |      2697239 |      2342684 |      4947109 |      4740445 |      5232994 |      5111376 |      9817121 |      9794604 |     10136597 |      9894843 |     20293985 |     20292794 |     21977483 |     21494354 |
dl2.misses                                    1980 |         1980 |         1962 |         1962 |         3024 |         3024 |         3005 |         3005 |         5051 |         5051 |         5033 |         5033 |         9168 |         9168 |         9150 |         9150 |        17343 |        17343 |        17325 |        17325 |        33745 |        33745 |        33726 |        33726 |        66494 |        69031 |        66475 |       103333 |       241705 |       411790 |       167283 |       521838 |       984150 |      1190814 |      1181471 |      1303089 |      2882704 |      2905221 |      2886263 |      3128017 |      6856906 |      6858097 |      6819972 |      7303101 |
dl2.replacements                               165 |          165 |            0 |            0 |          184 |          184 |            0 |            0 |          166 |          166 |            0 |            0 |          184 |          184 |            0 |            0 |          168 |          168 |            0 |            0 |          184 |          184 |            0 |            0 |          167 |         3612 |            0 |        37797 |       141857 |       346254 |        36211 |       456302 |       853078 |      1125278 |      1050399 |      1237553 |      2751632 |      2839685 |      2755191 |      3062481 |      6725834 |      6792561 |      6688900 |      7237565 |
dl2.writebacks                                 114 |          114 |            0 |            0 |          131 |          131 |            0 |            0 |          114 |          114 |            0 |            0 |          131 |          131 |            0 |            0 |          115 |          115 |            0 |            0 |          131 |          131 |            0 |            0 |          114 |         2211 |            0 |        37366 |        98219 |       267289 |        35741 |       357256 |       727959 |       760013 |       722136 |       876286 |      1813566 |      1813727 |      1771483 |      2045662 |      4184498 |      4184822 |      4132322 |      4647538 |
dl2.invalidations                                0 |            0 |            0 |            0 |            0 |            0 |            0 |            0 |            0 |            0 |            0 |            0 |            0 |            0 |            0 |            0 |            0 |            0 |            0 |            0 |            0 |            0 |            0 |            0 |            0 |            0 |            0 |            0 |            0 |            0 |            0 |            0 |            0 |            0 |            0 |            0 |            0 |            0 |            0 |            0 |            0 |            0 |            0 |            0 |
dl2.miss_rate                               0.2060 |       0.2060 |       0.1558 |       0.1558 |       0.1441 |       0.1441 |       0.1220 |       0.1220 |       0.1061 |       0.1061 |       0.0860 |       0.0860 |       0.0863 |       0.0863 |       0.0770 |       0.0770 |       0.0726 |       0.0726 |       0.0621 |       0.0621 |       0.0639 |       0.0639 |       0.0592 |       0.0592 |       0.0571 |       0.0592 |       0.0508 |       0.0789 |       0.0880 |       0.1499 |       0.0584 |       0.1822 |       0.1659 |       0.2008 |       0.1842 |       0.2031 |       0.2270 |       0.2288 |       0.2216 |       0.2402 |       0.2525 |       0.2526 |       0.2368 |       0.2536 |
dl2.repl_rate                               0.0172 |       0.0172 |       0.0000 |       0.0000 |       0.0088 |       0.0088 |       0.0000 |       0.0000 |       0.0035 |       0.0035 |       0.0000 |       0.0000 |       0.0017 |       0.0017 |       0.0000 |       0.0000 |       0.0007 |       0.0007 |       0.0000 |       0.0000 |       0.0003 |       0.0003 |       0.0000 |       0.0000 |       0.0001 |       0.0031 |       0.0000 |       0.0289 |       0.0517 |       0.1261 |       0.0126 |       0.1593 |       0.1438 |       0.1897 |       0.1638 |       0.1929 |       0.2167 |       0.2236 |       0.2116 |       0.2352 |       0.2477 |       0.2502 |       0.2323 |       0.2513 |
dl2.wb_rate                                 0.0119 |       0.0119 |       0.0000 |       0.0000 |       0.0062 |       0.0062 |       0.0000 |       0.0000 |       0.0024 |       0.0024 |       0.0000 |       0.0000 |       0.0012 |       0.0012 |       0.0000 |       0.0000 |       0.0005 |       0.0005 |       0.0000 |       0.0000 |       0.0002 |       0.0002 |       0.0000 |       0.0000 |       0.0001 |       0.0019 |       0.0000 |       0.0285 |       0.0358 |       0.0973 |       0.0125 |       0.1247 |       0.1227 |       0.1281 |       0.1126 |       0.1366 |       0.1428 |       0.1428 |       0.1360 |       0.1571 |       0.1541 |       0.1541 |       0.1435 |       0.1614 |
dl2.inv_rate                                0.0000 |       0.0000 |       0.0000 |       0.0000 |       0.0000 |       0.0000 |       0.0000 |       0.0000 |       0.0000 |       0.0000 |       0.0000 |       0.0000 |       0.0000 |       0.0000 |       0.0000 |       0.0000 |       0.0000 |       0.0000 |       0.0000 |       0.0000 |       0.0000 |       0.0000 |       0.0000 |       0.0000 |       0.0000 |       0.0000 |       0.0000 |       0.0000 |       0.0000 |       0.0000 |       0.0000 |       0.0000 |       0.0000 |       0.0000 |       0.0000 |       0.0000 |       0.0000 |       0.0000 |       0.0000 |       0.0000 |       0.0000 |       0.0000 |       0.0000 |       0.0000 |
itlb.accesses                               861166 |       861166 |       861166 |       861166 |      1753124 |      1753124 |      1753124 |      1753124 |      3961049 |      3961049 |      3961049 |      3961049 |      8060268 |      8060268 |      8060268 |      8060268 |     17981863 |     17981863 |     17981863 |     17981863 |     36569886 |     36569886 |     36569886 |     36569886 |     80537336 |     80537336 |     80537336 |     80537336 |    168416625 |    168416625 |    168416625 |    168416625 |    366458230 |    366458230 |    366458230 |    366458230 |    742824652 |    742824652 |    742824652 |    742824652 |   1604546136 |   1604546136 |   1604546136 |   1604546136 |
itlb.hits                                   861154 |       861154 |       861154 |       861154 |      1753112 |      1753112 |      1753112 |      1753112 |      3961037 |      3961037 |      3961037 |      3961037 |      8060256 |      8060256 |      8060256 |      8060256 |     17981851 |     17981851 |     17981851 |     17981851 |     36569874 |     36569874 |     36569874 |     36569874 |     80537324 |     80537324 |     80537324 |     80537324 |    168416613 |    168416613 |    168416613 |    168416613 |    366458218 |    366458218 |    366458218 |    366458218 |    742824640 |    742824640 |    742824640 |    742824640 |   1604546124 |   1604546124 |   1604546124 |   1604546124 |
itlb.misses                                     12 |           12 |           12 |           12 |           12 |           12 |           12 |           12 |           12 |           12 |           12 |           12 |           12 |           12 |           12 |           12 |           12 |           12 |           12 |           12 |           12 |           12 |           12 |           12 |           12 |           12 |           12 |           12 |           12 |           12 |           12 |           12 |           12 |           12 |           12 |           12 |           12 |           12 |           12 |           12 |           12 |           12 |           12 |           12 |
itlb.replacements                                0 |            0 |            0 |            0 |            0 |            0 |            0 |            0 |            0 |            0 |            0 |            0 |            0 |            0 |            0 |            0 |            0 |            0 |            0 |            0 |            0 |            0 |            0 |            0 |            0 |            0 |            0 |            0 |            0 |            0 |            0 |            0 |            0 |            0 |            0 |            0 |            0 |            0 |            0 |            0 |            0 |            0 |            0 |            0 |
itlb.writebacks                                  0 |            0 |            0 |            0 |            0 |            0 |            0 |            0 |            0 |            0 |            0 |            0 |            0 |            0 |            0 |            0 |            0 |            0 |            0 |            0 |            0 |            0 |            0 |            0 |            0 |            0 |            0 |            0 |            0 |            0 |            0 |            0 |            0 |            0 |            0 |            0 |            0 |            0 |            0 |            0 |            0 |            0 |            0 |            0 |
itlb.invalidations                               0 |            0 |            0 |            0 |            0 |            0 |            0 |            0 |            0 |            0 |            0 |            0 |            0 |            0 |            0 |            0 |            0 |            0 |            0 |            0 |            0 |            0 |            0 |            0 |            0 |            0 |            0 |            0 |            0 |            0 |            0 |            0 |            0 |            0 |            0 |            0 |            0 |            0 |            0 |            0 |            0 |            0 |            0 |            0 |
itlb.miss_rate                              0.0000 |       0.0000 |       0.0000 |       0.0000 |       0.0000 |       0.0000 |       0.0000 |       0.0000 |       0.0000 |       0.0000 |       0.0000 |       0.0000 |       0.0000 |       0.0000 |       0.0000 |       0.0000 |       0.0000 |       0.0000 |       0.0000 |       0.0000 |       0.0000 |       0.0000 |       0.0000 |       0.0000 |       0.0000 |       0.0000 |       0.0000 |       0.0000 |       0.0000 |       0.0000 |       0.0000 |       0.0000 |       0.0000 |       0.0000 |       0.0000 |       0.0000 |       0.0000 |       0.0000 |       0.0000 |       0.0000 |       0.0000 |       0.0000 |       0.0000 |       0.0000 |
itlb.repl_rate                              0.0000 |       0.0000 |       0.0000 |       0.0000 |       0.0000 |       0.0000 |       0.0000 |       0.0000 |       0.0000 |       0.0000 |       0.0000 |       0.0000 |       0.0000 |       0.0000 |       0.0000 |       0.0000 |       0.0000 |       0.0000 |       0.0000 |       0.0000 |       0.0000 |       0.0000 |       0.0000 |       0.0000 |       0.0000 |       0.0000 |       0.0000 |       0.0000 |       0.0000 |       0.0000 |       0.0000 |       0.0000 |       0.0000 |       0.0000 |       0.0000 |       0.0000 |       0.0000 |       0.0000 |       0.0000 |       0.0000 |       0.0000 |       0.0000 |       0.0000 |       0.0000 |
itlb.wb_rate                                0.0000 |       0.0000 |       0.0000 |       0.0000 |       0.0000 |       0.0000 |       0.0000 |       0.0000 |       0.0000 |       0.0000 |       0.0000 |       0.0000 |       0.0000 |       0.0000 |       0.0000 |       0.0000 |       0.0000 |       0.0000 |       0.0000 |       0.0000 |       0.0000 |       0.0000 |       0.0000 |       0.0000 |       0.0000 |       0.0000 |       0.0000 |       0.0000 |       0.0000 |       0.0000 |       0.0000 |       0.0000 |       0.0000 |       0.0000 |       0.0000 |       0.0000 |       0.0000 |       0.0000 |       0.0000 |       0.0000 |       0.0000 |       0.0000 |       0.0000 |       0.0000 |
itlb.inv_rate                               0.0000 |       0.0000 |       0.0000 |       0.0000 |       0.0000 |       0.0000 |       0.0000 |       0.0000 |       0.0000 |       0.0000 |       0.0000 |       0.0000 |       0.0000 |       0.0000 |       0.0000 |       0.0000 |       0.0000 |       0.0000 |       0.0000 |       0.0000 |       0.0000 |       0.0000 |       0.0000 |       0.0000 |       0.0000 |       0.0000 |       0.0000 |       0.0000 |       0.0000 |       0.0000 |       0.0000 |       0.0000 |       0.0000 |       0.0000 |       0.0000 |       0.0000 |       0.0000 |       0.0000 |       0.0000 |       0.0000 |       0.0000 |       0.0000 |       0.0000 |       0.0000 |
dtlb.accesses                               245703 |       245703 |       245703 |       245703 |       505250 |       505250 |       505250 |       505250 |      1117521 |      1117521 |      1117521 |      1117521 |      2301473 |      2301473 |      2301473 |      2301473 |      5046841 |      5046841 |      5046841 |      5046841 |     10378907 |     10378907 |     10378907 |     10378907 |     22529757 |     22529757 |     22529757 |     22529757 |     47802792 |     47802792 |     47802792 |     47802792 |    102700582 |    102700582 |    102700582 |    102700582 |    210046897 |    210046897 |    210046897 |    210046897 |    448585845 |    448585845 |    448585845 |    448585845 |
dtlb.hits                                   245687 |       245687 |       245687 |       245687 |       505226 |       505226 |       505226 |       505226 |      1117481 |      1117481 |      1117481 |      1117481 |      2301401 |      2301401 |      2301401 |      2301401 |      5046638 |      5046638 |      5046638 |      5046638 |     10376480 |     10376480 |     10376480 |     10376480 |     22524343 |     22524343 |     22524343 |     22524343 |     47790043 |     47790043 |     47790043 |     47790043 |    102673050 |    102673050 |    102673050 |    102673050 |    209987751 |    209987751 |    209987751 |    209987751 |    448459363 |    448459363 |    448459363 |    448459363 |
dtlb.misses                                     16 |           16 |           16 |           16 |           24 |           24 |           24 |           24 |           40 |           40 |           40 |           40 |           72 |           72 |           72 |           72 |          203 |          203 |          203 |          203 |         2427 |         2427 |         2427 |         2427 |         5414 |         5414 |         5414 |         5414 |        12749 |        12749 |        12749 |        12749 |        27532 |        27532 |        27532 |        27532 |        59146 |        59146 |        59146 |        59146 |       126482 |       126482 |       126482 |       126482 |
dtlb.replacements                                0 |            0 |            0 |            0 |            0 |            0 |            0 |            0 |            0 |            0 |            0 |            0 |            0 |            0 |            0 |            0 |           75 |           75 |           75 |           75 |         2299 |         2299 |         2299 |         2299 |         5286 |         5286 |         5286 |         5286 |        12621 |        12621 |        12621 |        12621 |        27404 |        27404 |        27404 |        27404 |        59018 |        59018 |        59018 |        59018 |       126354 |       126354 |       126354 |       126354 |
dtlb.writebacks                                  0 |            0 |            0 |            0 |            0 |            0 |            0 |            0 |            0 |            0 |            0 |            0 |            0 |            0 |            0 |            0 |           50 |           50 |           50 |           50 |         1335 |         1335 |         1335 |         1335 |         3030 |         3030 |         3030 |         3030 |         7085 |         7085 |         7085 |         7085 |        15249 |        15249 |        15249 |        15249 |        32598 |        32598 |        32598 |        32598 |        69359 |        69359 |        69359 |        69359 |
dtlb.invalidations                               0 |            0 |            0 |            0 |            0 |            0 |            0 |            0 |            0 |            0 |            0 |            0 |            0 |            0 |            0 |            0 |            0 |            0 |            0 |            0 |            0 |            0 |            0 |            0 |            0 |            0 |            0 |            0 |            0 |            0 |            0 |            0 |            0 |            0 |            0 |            0 |            0 |            0 |            0 |            0 |            0 |            0 |            0 |            0 |
dtlb.miss_rate                              0.0001 |       0.0001 |       0.0001 |       0.0001 |       0.0000 |       0.0000 |       0.0000 |       0.0000 |       0.0000 |       0.0000 |       0.0000 |       0.0000 |       0.0000 |       0.0000 |       0.0000 |       0.0000 |       0.0000 |       0.0000 |       0.0000 |       0.0000 |       0.0002 |       0.0002 |       0.0002 |       0.0002 |       0.0002 |       0.0002 |       0.0002 |       0.0002 |       0.0003 |       0.0003 |       0.0003 |       0.0003 |       0.0003 |       0.0003 |       0.0003 |       0.0003 |       0.0003 |       0.0003 |       0.0003 |       0.0003 |       0.0003 |       0.0003 |       0.0003 |       0.0003 |
dtlb.repl_rate                              0.0000 |       0.0000 |       0.0000 |       0.0000 |       0.0000 |       0.0000 |       0.0000 |       0.0000 |       0.0000 |       0.0000 |       0.0000 |       0.0000 |       0.0000 |       0.0000 |       0.0000 |       0.0000 |       0.0000 |       0.0000 |       0.0000 |       0.0000 |       0.0002 |       0.0002 |       0.0002 |       0.0002 |       0.0002 |       0.0002 |       0.0002 |       0.0002 |       0.0003 |       0.0003 |       0.0003 |       0.0003 |       0.0003 |       0.0003 |       0.0003 |       0.0003 |       0.0003 |       0.0003 |       0.0003 |       0.0003 |       0.0003 |       0.0003 |       0.0003 |       0.0003 |
dtlb.wb_rate                                0.0000 |       0.0000 |       0.0000 |       0.0000 |       0.0000 |       0.0000 |       0.0000 |       0.0000 |       0.0000 |       0.0000 |       0.0000 |       0.0000 |       0.0000 |       0.0000 |       0.0000 |       0.0000 |       0.0000 |       0.0000 |       0.0000 |       0.0000 |       0.0001 |       0.0001 |       0.0001 |       0.0001 |       0.0001 |       0.0001 |       0.0001 |       0.0001 |       0.0001 |       0.0001 |       0.0001 |       0.0001 |       0.0001 |       0.0001 |       0.0001 |       0.0001 |       0.0002 |       0.0002 |       0.0002 |       0.0002 |       0.0002 |       0.0002 |       0.0002 |       0.0002 |
dtlb.inv_rate                               0.0000 |       0.0000 |       0.0000 |       0.0000 |       0.0000 |       0.0000 |       0.0000 |       0.0000 |       0.0000 |       0.0000 |       0.0000 |       0.0000 |       0.0000 |       0.0000 |       0.0000 |       0.0000 |       0.0000 |       0.0000 |       0.0000 |       0.0000 |       0.0000 |       0.0000 |       0.0000 |       0.0000 |       0.0000 |       0.0000 |       0.0000 |       0.0000 |       0.0000 |       0.0000 |       0.0000 |       0.0000 |       0.0000 |       0.0000 |       0.0000 |       0.0000 |       0.0000 |       0.0000 |       0.0000 |       0.0000 |       0.0000 |       0.0000 |       0.0000 |       0.0000 |
ld_text_base                            0x00400000 |   0x00400000 |   0x00400000 |   0x00400000 |   0x00400000 |   0x00400000 |   0x00400000 |   0x00400000 |   0x00400000 |   0x00400000 |   0x00400000 |   0x00400000 |   0x00400000 |   0x00400000 |   0x00400000 |   0x00400000 |   0x00400000 |   0x00400000 |   0x00400000 |   0x00400000 |   0x00400000 |   0x00400000 |   0x00400000 |   0x00400000 |   0x00400000 |   0x00400000 |   0x00400000 |   0x00400000 |   0x00400000 |   0x00400000 |   0x00400000 |   0x00400000 |   0x00400000 |   0x00400000 |   0x00400000 |   0x00400000 |   0x00400000 |   0x00400000 |   0x00400000 |   0x00400000 |   0x00400000 |   0x00400000 |   0x00400000 |   0x00400000 |
ld_text_size                                 87648 |        87648 |        87648 |        87648 |        87680 |        87680 |        87680 |        87680 |        87696 |        87696 |        87696 |        87696 |        87712 |        87712 |        87712 |        87712 |        87712 |        87712 |        87712 |        87712 |        87712 |        87712 |        87712 |        87712 |        87712 |        87712 |        87712 |        87712 |        87712 |        87712 |        87712 |        87712 |        87712 |        87712 |        87712 |        87712 |        87712 |        87712 |        87712 |        87712 |        87712 |        87712 |        87712 |        87712 |
ld_data_base                            0x10000000 |   0x10000000 |   0x10000000 |   0x10000000 |   0x10000000 |   0x10000000 |   0x10000000 |   0x10000000 |   0x10000000 |   0x10000000 |   0x10000000 |   0x10000000 |   0x10000000 |   0x10000000 |   0x10000000 |   0x10000000 |   0x10000000 |   0x10000000 |   0x10000000 |   0x10000000 |   0x10000000 |   0x10000000 |   0x10000000 |   0x10000000 |   0x10000000 |   0x10000000 |   0x10000000 |   0x10000000 |   0x10000000 |   0x10000000 |   0x10000000 |   0x10000000 |   0x10000000 |   0x10000000 |   0x10000000 |   0x10000000 |   0x10000000 |   0x10000000 |   0x10000000 |   0x10000000 |   0x10000000 |   0x10000000 |   0x10000000 |   0x10000000 |
ld_data_size                                  8192 |         8192 |         8192 |         8192 |         8192 |         8192 |         8192 |         8192 |         8192 |         8192 |         8192 |         8192 |         8192 |         8192 |         8192 |         8192 |         8192 |         8192 |         8192 |         8192 |         8192 |         8192 |         8192 |         8192 |         8192 |         8192 |         8192 |         8192 |         8192 |         8192 |         8192 |         8192 |         8192 |         8192 |         8192 |         8192 |         8192 |         8192 |         8192 |         8192 |         8192 |         8192 |         8192 |         8192 |
ld_stack_base                           0x7fffc000 |   0x7fffc000 |   0x7fffc000 |   0x7fffc000 |   0x7fffc000 |   0x7fffc000 |   0x7fffc000 |   0x7fffc000 |   0x7fffc000 |   0x7fffc000 |   0x7fffc000 |   0x7fffc000 |   0x7fffc000 |   0x7fffc000 |   0x7fffc000 |   0x7fffc000 |   0x7fffc000 |   0x7fffc000 |   0x7fffc000 |   0x7fffc000 |   0x7fffc000 |   0x7fffc000 |   0x7fffc000 |   0x7fffc000 |   0x7fffc000 |   0x7fffc000 |   0x7fffc000 |   0x7fffc000 |   0x7fffc000 |   0x7fffc000 |   0x7fffc000 |   0x7fffc000 |   0x7fffc000 |   0x7fffc000 |   0x7fffc000 |   0x7fffc000 |   0x7fffc000 |   0x7fffc000 |   0x7fffc000 |   0x7fffc000 |   0x7fffc000 |   0x7fffc000 |   0x7fffc000 |   0x7fffc000 |
ld_stack_size                                16384 |        16384 |        16384 |        16384 |        16384 |        16384 |        16384 |        16384 |        16384 |        16384 |        16384 |        16384 |        16384 |        16384 |        16384 |        16384 |        16384 |        16384 |        16384 |        16384 |        16384 |        16384 |        16384 |        16384 |        16384 |        16384 |        16384 |        16384 |        16384 |        16384 |        16384 |        16384 |        16384 |        16384 |        16384 |        16384 |        16384 |        16384 |        16384 |        16384 |        16384 |        16384 |        16384 |        16384 |
ld_prog_entry                           0x00400140 |   0x00400140 |   0x00400140 |   0x00400140 |   0x00400140 |   0x00400140 |   0x00400140 |   0x00400140 |   0x00400140 |   0x00400140 |   0x00400140 |   0x00400140 |   0x00400140 |   0x00400140 |   0x00400140 |   0x00400140 |   0x00400140 |   0x00400140 |   0x00400140 |   0x00400140 |   0x00400140 |   0x00400140 |   0x00400140 |   0x00400140 |   0x00400140 |   0x00400140 |   0x00400140 |   0x00400140 |   0x00400140 |   0x00400140 |   0x00400140 |   0x00400140 |   0x00400140 |   0x00400140 |   0x00400140 |   0x00400140 |   0x00400140 |   0x00400140 |   0x00400140 |   0x00400140 |   0x00400140 |   0x00400140 |   0x00400140 |   0x00400140 |
ld_environ_base                         0x7fff8000 |   0x7fff8000 |   0x7fff8000 |   0x7fff8000 |   0x7fff8000 |   0x7fff8000 |   0x7fff8000 |   0x7fff8000 |   0x7fff8000 |   0x7fff8000 |   0x7fff8000 |   0x7fff8000 |   0x7fff8000 |   0x7fff8000 |   0x7fff8000 |   0x7fff8000 |   0x7fff8000 |   0x7fff8000 |   0x7fff8000 |   0x7fff8000 |   0x7fff8000 |   0x7fff8000 |   0x7fff8000 |   0x7fff8000 |   0x7fff8000 |   0x7fff8000 |   0x7fff8000 |   0x7fff8000 |   0x7fff8000 |   0x7fff8000 |   0x7fff8000 |   0x7fff8000 |   0x7fff8000 |   0x7fff8000 |   0x7fff8000 |   0x7fff8000 |   0x7fff8000 |   0x7fff8000 |   0x7fff8000 |   0x7fff8000 |   0x7fff8000 |   0x7fff8000 |   0x7fff8000 |   0x7fff8000 |
ld_target_big_endian                             0 |            0 |            0 |            0 |            0 |            0 |            0 |            0 |            0 |            0 |            0 |            0 |            0 |            0 |            0 |            0 |            0 |            0 |            0 |            0 |            0 |            0 |            0 |            0 |            0 |            0 |            0 |            0 |            0 |            0 |            0 |            0 |            0 |            0 |            0 |            0 |            0 |            0 |            0 |            0 |            0 |            0 |            0 |            0 |
mem.page_count                                  38 |           38 |           38 |           38 |           46 |           46 |           46 |           46 |           62 |           62 |           62 |           62 |           94 |           94 |           94 |           94 |          158 |          158 |          158 |          158 |          286 |          286 |          286 |          286 |          542 |          542 |          542 |          542 |         1060 |         1060 |         1060 |         1060 |         2084 |         2084 |         2084 |         2084 |         4138 |         4138 |         4138 |         4138 |         8246 |         8246 |         8246 |         8246 |
mem.page_mem                                  152k |         152k |         152k |         152k |         184k |         184k |         184k |         184k |         248k |         248k |         248k |         248k |         376k |         376k |         376k |         376k |         632k |         632k |         632k |         632k |        1144k |        1144k |        1144k |        1144k |        2168k |        2168k |        2168k |        2168k |        4240k |        4240k |        4240k |        4240k |        8336k |        8336k |        8336k |        8336k |       16552k |       16552k |       16552k |       16552k |       32984k |       32984k |       32984k |       32984k |
mem.ptab_misses                                 38 |           38 |           38 |           38 |           46 |           46 |           46 |           46 |           62 |           62 |           62 |           62 |           94 |           94 |           94 |           94 |          158 |          158 |          158 |          158 |          286 |          286 |          286 |          286 |          542 |          542 |          542 |          542 |         1078 |         1078 |         1078 |         1078 |       111096 |       111096 |       111096 |       111096 |       114540 |       114540 |       114540 |       114540 |       126026 |       126026 |       126026 |       126026 |
mem.ptab_accesses                          4476594 |      4476594 |      4476594 |      4476594 |      8563712 |      8563712 |      8563712 |      8563712 |     18620050 |     18620050 |     18620050 |     18620050 |     37384926 |     37384926 |     37384926 |     37384926 |     82562042 |     82562042 |     82562042 |     82562042 |    167578266 |    167578266 |    167578266 |    167578266 |    367749766 |    367749766 |    367749766 |    367749766 |    769812992 |    769812992 |    769812992 |    769812992 |   1671774992 |   1671774992 |   1671774992 |   1671774992 |   3391933310 |   3391933310 |   3391933310 |   3391933310 |   7315897142 |   7315897142 |   7315897142 |   7315897142 |
mem.ptab_miss_rate                          0.0000 |       0.0000 |       0.0000 |       0.0000 |       0.0000 |       0.0000 |       0.0000 |       0.0000 |       0.0000 |       0.0000 |       0.0000 |       0.0000 |       0.0000 |       0.0000 |       0.0000 |       0.0000 |       0.0000 |       0.0000 |       0.0000 |       0.0000 |       0.0000 |       0.0000 |       0.0000 |       0.0000 |       0.0000 |       0.0000 |       0.0000 |       0.0000 |       0.0000 |       0.0000 |       0.0000 |       0.0000 |       0.0001 |       0.0001 |       0.0001 |       0.0001 |       0.0000 |       0.0000 |       0.0000 |       0.0000 |       0.0000 |       0.0000 |       0.0000 |       0.0000 |
-------------------------------------------------------------------------------------------------
sim-bpred                                     4096 |         4096 |         4096 |         4096 |         4096 |         4096 |         4096 |         8192 |         8192 |         8192 |         8192 |         8192 |         8192 |         8192 |        16384 |        16384 |        16384 |        16384 |        16384 |        16384 |        16384 |        32768 |        32768 |        32768 |        32768 |        32768 |        32768 |        32768 |        65536 |        65536 |        65536 |        65536 |        65536 |        65536 |        65536 |       131072 |       131072 |       131072 |       131072 |       131072 |       131072 |       131072 |       262144 |       262144 |       262144 |       262144 |       262144 |       262144 |       262144 |       524288 |       524288 |       524288 |       524288 |       524288 |       524288 |       524288 |      1048576 |      1048576 |      1048576 |      1048576 |      1048576 |      1048576 |      1048576 |      2097152 |      2097152 |      2097152 |      2097152 |      2097152 |      2097152 |      2097152 |      4194304 |      4194304 |      4194304 |      4194304 |      4194304 |      4194304 |      4194304 |
-bpred bimod -bpred:bimod 512
-bpred bimod -bpred:bimod 1024
-bpred bimod -bpred:bimod 2048
-bpred 2lev -bpred:2lev 1 512 10 1
-bpred 2lev -bpred:2lev 1 1024 10 1
-bpred 2lev -bpred:2lev 1 2048 10 1
-bpred 2lev -bpred:2lev 1 4096 10 1
-------------------------------------------------------------------------------------------------
sim_num_insn                                861166 |       861166 |       861166 |       861166 |       861166 |       861166 |       861166 |      1753124 |      1753124 |      1753124 |      1753124 |      1753124 |      1753124 |      1753124 |      3961049 |      3961049 |      3961049 |      3961049 |      3961049 |      3961049 |      3961049 |      8060268 |      8060268 |      8060268 |      8060268 |      8060268 |      8060268 |      8060268 |     17981863 |     17981863 |     17981863 |     17981863 |     17981863 |     17981863 |     17981863 |     36569886 |     36569886 |     36569886 |     36569886 |     36569886 |     36569886 |     36569886 |     80537336 |     80537336 |     80537336 |     80537336 |     80537336 |     80537336 |     80537336 |    168416625 |    168416625 |    168416625 |    168416625 |    168416625 |    168416625 |    168416625 |    366458230 |    366458230 |    366458230 |    366458230 |    366458230 |    366458230 |    366458230 |    742824652 |    742824652 |    742824652 |    742824652 |    742824652 |    742824652 |    742824652 |   1604546136 |   1604546136 |   1604546136 |   1604546136 |   1604546136 |   1604546136 |   1604546136 |
sim_num_refs                                229237 |       229237 |       229237 |       229237 |       229237 |       229237 |       229237 |       472400 |       472400 |       472400 |       472400 |       472400 |       472400 |       472400 |      1051903 |      1051903 |      1051903 |      1051903 |      1051903 |      1051903 |      1051903 |      2170319 |      2170319 |      2170319 |      2170319 |      2170319 |      2170319 |      2170319 |      4784615 |      4784615 |      4784615 |      4784615 |      4784615 |      4784615 |      4784615 |      9854537 |      9854537 |      9854537 |      9854537 |      9854537 |      9854537 |      9854537 |     21481099 |     21481099 |     21481099 |     21481099 |     21481099 |     21481099 |     21481099 |     45705558 |     45705558 |     45705558 |     45705558 |     45705558 |     45705558 |     45705558 |     98506196 |     98506196 |     98506196 |     98506196 |     98506196 |     98506196 |     98506196 |    201658207 |    201658207 |    201658207 |    201658207 |    201658207 |    201658207 |    201658207 |    431808547 |    431808547 |    431808547 |    431808547 |    431808547 |    431808547 |    431808547 |
sim_elapsed_time                                 1 |            1 |            1 |            1 |            1 |            1 |            1 |            1 |            1 |            1 |            1 |            1 |            1 |            1 |            1 |            1 |            1 |            1 |            1 |            1 |            1 |            1 |            1 |            1 |            1 |            1 |            1 |            1 |            2 |            2 |            2 |            2 |            2 |            2 |            1 |            4 |            4 |            4 |            4 |            4 |            4 |            4 |            9 |            8 |            9 |            8 |            9 |            8 |            9 |           18 |           18 |           18 |           18 |           17 |           18 |           18 |           39 |           38 |           39 |           38 |           39 |           39 |           39 |           78 |           79 |           78 |           79 |           79 |           79 |           79 |          168 |          168 |          168 |          170 |          169 |          170 |          168 |
sim_inst_rate                          861166.0000 |  861166.0000 |  861166.0000 |  861166.0000 |  861166.0000 |  861166.0000 |  861166.0000 | 1753124.0000 | 1753124.0000 | 1753124.0000 | 1753124.0000 | 1753124.0000 | 1753124.0000 | 1753124.0000 | 3961049.0000 | 3961049.0000 | 3961049.0000 | 3961049.0000 | 3961049.0000 | 3961049.0000 | 3961049.0000 | 8060268.0000 | 8060268.0000 | 8060268.0000 | 8060268.0000 | 8060268.0000 | 8060268.0000 | 8060268.0000 | 8990931.5000 | 8990931.5000 | 8990931.5000 | 8990931.5000 | 8990931.5000 | 8990931.5000 |17981863.0000 | 9142471.5000 | 9142471.5000 | 9142471.5000 | 9142471.5000 | 9142471.5000 | 9142471.5000 | 9142471.5000 | 8948592.8889 |10067167.0000 | 8948592.8889 |10067167.0000 | 8948592.8889 |10067167.0000 | 8948592.8889 | 9356479.1667 | 9356479.1667 | 9356479.1667 | 9356479.1667 | 9906860.2941 | 9356479.1667 | 9356479.1667 | 9396364.8718 | 9643637.6316 | 9396364.8718 | 9643637.6316 | 9396364.8718 | 9396364.8718 | 9396364.8718 | 9523392.9744 | 9402843.6962 | 9523392.9744 | 9402843.6962 | 9402843.6962 | 9402843.6962 | 9402843.6962 | 9550869.8571 | 9550869.8571 | 9550869.8571 | 9438506.6824 | 9494355.8343 | 9438506.6824 | 9550869.8571 |
sim_num_branches                            113170 |       113170 |       113170 |       113170 |       113170 |       113170 |       113170 |       235995 |       235995 |       235995 |       235995 |       235995 |       235995 |       235995 |       515083 |       515083 |       515083 |       515083 |       515083 |       515083 |       515083 |      1071270 |      1071270 |      1071270 |      1071270 |      1071270 |      1071270 |      1071270 |      2319557 |      2319557 |      2319557 |      2319557 |      2319557 |      2319557 |      2319557 |      4812074 |      4812074 |      4812074 |      4812074 |      4812074 |      4812074 |      4812074 |     10322634 |     10322634 |     10322634 |     10322634 |     10322634 |     10322634 |     10322634 |     21936963 |     21936963 |     21936963 |     21936963 |     21936963 |     21936963 |     21936963 |     46672716 |     46672716 |     46672716 |     46672716 |     46672716 |     46672716 |     46672716 |     96146671 |     96146671 |     96146671 |     96146671 |     96146671 |     96146671 |     96146671 |    203539933 |    203539933 |    203539933 |    203539933 |    203539933 |    203539933 |    203539933 |
sim_IPB                                     7.6095 |       7.6095 |       7.6095 |       7.6095 |       7.6095 |       7.6095 |       7.6095 |       7.4286 |       7.4286 |       7.4286 |       7.4286 |       7.4286 |       7.4286 |       7.4286 |       7.6901 |       7.6901 |       7.6901 |       7.6901 |       7.6901 |       7.6901 |       7.6901 |       7.5240 |       7.5240 |       7.5240 |       7.5240 |       7.5240 |       7.5240 |       7.5240 |       7.7523 |       7.7523 |       7.7523 |       7.7523 |       7.7523 |       7.7523 |       7.7523 |       7.5996 |       7.5996 |       7.5996 |       7.5996 |       7.5996 |       7.5996 |       7.5996 |       7.8020 |       7.8020 |       7.8020 |       7.8020 |       7.8020 |       7.8020 |       7.8020 |       7.6773 |       7.6773 |       7.6773 |       7.6773 |       7.6773 |       7.6773 |       7.6773 |       7.8517 |       7.8517 |       7.8517 |       7.8517 |       7.8517 |       7.8517 |       7.8517 |       7.7260 |       7.7260 |       7.7260 |       7.7260 |       7.7260 |       7.7260 |       7.7260 |       7.8832 |       7.8832 |       7.8832 |       7.8832 |       7.8832 |       7.8832 |       7.8832 |
bpred_bimod.lookups                         113170 |       113170 |       113170 |xxxxxxxxxxxxx |xxxxxxxxxxxxx |xxxxxxxxxxxxx |xxxxxxxxxxxxx |       235995 |       235995 |       235995 |xxxxxxxxxxxxx |xxxxxxxxxxxxx |xxxxxxxxxxxxx |xxxxxxxxxxxxx |       515083 |       515083 |       515083 |xxxxxxxxxxxxx |xxxxxxxxxxxxx |xxxxxxxxxxxxx |xxxxxxxxxxxxx |      1071270 |      1071270 |      1071270 |xxxxxxxxxxxxx |xxxxxxxxxxxxx |xxxxxxxxxxxxx |xxxxxxxxxxxxx |      2319557 |      2319557 |      2319557 |xxxxxxxxxxxxx |xxxxxxxxxxxxx |xxxxxxxxxxxxx |xxxxxxxxxxxxx |      4812074 |      4812074 |      4812074 |xxxxxxxxxxxxx |xxxxxxxxxxxxx |xxxxxxxxxxxxx |xxxxxxxxxxxxx |     10322634 |     10322634 |     10322634 |xxxxxxxxxxxxx |xxxxxxxxxxxxx |xxxxxxxxxxxxx |xxxxxxxxxxxxx |     21936963 |     21936963 |     21936963 |xxxxxxxxxxxxx |xxxxxxxxxxxxx |xxxxxxxxxxxxx |xxxxxxxxxxxxx |     46672716 |     46672716 |     46672716 |xxxxxxxxxxxxx |xxxxxxxxxxxxx |xxxxxxxxxxxxx |xxxxxxxxxxxxx |     96146671 |     96146671 |     96146671 |xxxxxxxxxxxxx |xxxxxxxxxxxxx |xxxxxxxxxxxxx |xxxxxxxxxxxxx |    203539933 |    203539933 |    203539933 |
bpred_bimod.updates                         113170 |       113170 |       113170 |xxxxxxxxxxxxx |xxxxxxxxxxxxx |xxxxxxxxxxxxx |xxxxxxxxxxxxx |       235995 |       235995 |       235995 |xxxxxxxxxxxxx |xxxxxxxxxxxxx |xxxxxxxxxxxxx |xxxxxxxxxxxxx |       515083 |       515083 |       515083 |xxxxxxxxxxxxx |xxxxxxxxxxxxx |xxxxxxxxxxxxx |xxxxxxxxxxxxx |      1071270 |      1071270 |      1071270 |xxxxxxxxxxxxx |xxxxxxxxxxxxx |xxxxxxxxxxxxx |xxxxxxxxxxxxx |      2319557 |      2319557 |      2319557 |xxxxxxxxxxxxx |xxxxxxxxxxxxx |xxxxxxxxxxxxx |xxxxxxxxxxxxx |      4812074 |      4812074 |      4812074 |xxxxxxxxxxxxx |xxxxxxxxxxxxx |xxxxxxxxxxxxx |xxxxxxxxxxxxx |     10322634 |     10322634 |     10322634 |xxxxxxxxxxxxx |xxxxxxxxxxxxx |xxxxxxxxxxxxx |xxxxxxxxxxxxx |     21936963 |     21936963 |     21936963 |xxxxxxxxxxxxx |xxxxxxxxxxxxx |xxxxxxxxxxxxx |xxxxxxxxxxxxx |     46672716 |     46672716 |     46672716 |xxxxxxxxxxxxx |xxxxxxxxxxxxx |xxxxxxxxxxxxx |xxxxxxxxxxxxx |     96146671 |     96146671 |     96146671 |xxxxxxxxxxxxx |xxxxxxxxxxxxx |xxxxxxxxxxxxx |xxxxxxxxxxxxx |    203539933 |    203539933 |    203539933 |
bpred_bimod.addr_hits                        87539 |        87553 |        87555 |xxxxxxxxxxxxx |xxxxxxxxxxxxx |xxxxxxxxxxxxx |xxxxxxxxxxxxx |       184257 |       184264 |       184263 |xxxxxxxxxxxxx |xxxxxxxxxxxxx |xxxxxxxxxxxxx |xxxxxxxxxxxxx |       396770 |       396795 |       396799 |xxxxxxxxxxxxx |xxxxxxxxxxxxx |xxxxxxxxxxxxx |xxxxxxxxxxxxx |       832649 |       832665 |       832667 |xxxxxxxxxxxxx |xxxxxxxxxxxxx |xxxxxxxxxxxxx |xxxxxxxxxxxxx |      1781797 |      1781868 |      1781871 |xxxxxxxxxxxxx |xxxxxxxxxxxxx |xxxxxxxxxxxxx |xxxxxxxxxxxxx |      3726279 |      3726337 |      3726338 |xxxxxxxxxxxxx |xxxxxxxxxxxxx |xxxxxxxxxxxxx |xxxxxxxxxxxxx |      7911667 |      7911938 |      7911941 |xxxxxxxxxxxxx |xxxxxxxxxxxxx |xxxxxxxxxxxxx |xxxxxxxxxxxxx |     17071084 |     17071249 |     17071251 |xxxxxxxxxxxxx |xxxxxxxxxxxxx |xxxxxxxxxxxxx |xxxxxxxxxxxxx |     35979840 |     35980881 |     35980881 |xxxxxxxxxxxxx |xxxxxxxxxxxxx |xxxxxxxxxxxxx |xxxxxxxxxxxxx |     74588658 |     74589305 |     74589310 |xxxxxxxxxxxxx |xxxxxxxxxxxxx |xxxxxxxxxxxxx |xxxxxxxxxxxxx |    156564907 |    156568909 |    156568909 |
bpred_bimod.dir_hits                         87688 |        87703 |        87705 |xxxxxxxxxxxxx |xxxxxxxxxxxxx |xxxxxxxxxxxxx |xxxxxxxxxxxxx |       184409 |       184419 |       184419 |xxxxxxxxxxxxx |xxxxxxxxxxxxx |xxxxxxxxxxxxx |xxxxxxxxxxxxx |       396921 |       396943 |       396950 |xxxxxxxxxxxxx |xxxxxxxxxxxxx |xxxxxxxxxxxxx |xxxxxxxxxxxxx |       832801 |       832819 |       832823 |xxxxxxxxxxxxx |xxxxxxxxxxxxx |xxxxxxxxxxxxx |xxxxxxxxxxxxx |      1781946 |      1782017 |      1782023 |xxxxxxxxxxxxx |xxxxxxxxxxxxx |xxxxxxxxxxxxx |xxxxxxxxxxxxx |      3726433 |      3726493 |      3726496 |xxxxxxxxxxxxx |xxxxxxxxxxxxx |xxxxxxxxxxxxx |xxxxxxxxxxxxx |      7911813 |      7912084 |      7912090 |xxxxxxxxxxxxx |xxxxxxxxxxxxx |xxxxxxxxxxxxx |xxxxxxxxxxxxx |     17071261 |     17071426 |     17071429 |xxxxxxxxxxxxx |xxxxxxxxxxxxx |xxxxxxxxxxxxx |xxxxxxxxxxxxx |     35980017 |     35981056 |     35981056 |xxxxxxxxxxxxx |xxxxxxxxxxxxx |xxxxxxxxxxxxx |xxxxxxxxxxxxx |     74588836 |     74589483 |     74589489 |xxxxxxxxxxxxx |xxxxxxxxxxxxx |xxxxxxxxxxxxx |xxxxxxxxxxxxx |    156565083 |    156569083 |    156569084 |
bpred_bimod.misses                           25482 |        25467 |        25465 |xxxxxxxxxxxxx |xxxxxxxxxxxxx |xxxxxxxxxxxxx |xxxxxxxxxxxxx |        51586 |        51576 |        51576 |xxxxxxxxxxxxx |xxxxxxxxxxxxx |xxxxxxxxxxxxx |xxxxxxxxxxxxx |       118162 |       118140 |       118133 |xxxxxxxxxxxxx |xxxxxxxxxxxxx |xxxxxxxxxxxxx |xxxxxxxxxxxxx |       238469 |       238451 |       238447 |xxxxxxxxxxxxx |xxxxxxxxxxxxx |xxxxxxxxxxxxx |xxxxxxxxxxxxx |       537611 |       537540 |       537534 |xxxxxxxxxxxxx |xxxxxxxxxxxxx |xxxxxxxxxxxxx |xxxxxxxxxxxxx |      1085641 |      1085581 |      1085578 |xxxxxxxxxxxxx |xxxxxxxxxxxxx |xxxxxxxxxxxxx |xxxxxxxxxxxxx |      2410821 |      2410550 |      2410544 |xxxxxxxxxxxxx |xxxxxxxxxxxxx |xxxxxxxxxxxxx |xxxxxxxxxxxxx |      4865702 |      4865537 |      4865534 |xxxxxxxxxxxxx |xxxxxxxxxxxxx |xxxxxxxxxxxxx |xxxxxxxxxxxxx |     10692699 |     10691660 |     10691660 |xxxxxxxxxxxxx |xxxxxxxxxxxxx |xxxxxxxxxxxxx |xxxxxxxxxxxxx |     21557835 |     21557188 |     21557182 |xxxxxxxxxxxxx |xxxxxxxxxxxxx |xxxxxxxxxxxxx |xxxxxxxxxxxxx |     46974850 |     46970850 |     46970849 |
bpred_bimod.jr_hits                             79 |           79 |           79 |xxxxxxxxxxxxx |xxxxxxxxxxxxx |xxxxxxxxxxxxx |xxxxxxxxxxxxx |           87 |           87 |           87 |xxxxxxxxxxxxx |xxxxxxxxxxxxx |xxxxxxxxxxxxx |xxxxxxxxxxxxx |          103 |          103 |          103 |xxxxxxxxxxxxx |xxxxxxxxxxxxx |xxxxxxxxxxxxx |xxxxxxxxxxxxx |          135 |          135 |          135 |xxxxxxxxxxxxx |xxxxxxxxxxxxx |xxxxxxxxxxxxx |xxxxxxxxxxxxx |          199 |          199 |          199 |xxxxxxxxxxxxx |xxxxxxxxxxxxx |xxxxxxxxxxxxx |xxxxxxxxxxxxx |          327 |          327 |          327 |xxxxxxxxxxxxx |xxxxxxxxxxxxx |xxxxxxxxxxxxx |xxxxxxxxxxxxx |          583 |          583 |          583 |xxxxxxxxxxxxx |xxxxxxxxxxxxx |xxxxxxxxxxxxx |xxxxxxxxxxxxx |         1100 |         1100 |         1100 |xxxxxxxxxxxxx |xxxxxxxxxxxxx |xxxxxxxxxxxxx |xxxxxxxxxxxxx |         2126 |         2126 |         2126 |xxxxxxxxxxxxx |xxxxxxxxxxxxx |xxxxxxxxxxxxx |xxxxxxxxxxxxx |         4178 |         4178 |         4178 |xxxxxxxxxxxxx |xxxxxxxxxxxxx |xxxxxxxxxxxxx |xxxxxxxxxxxxx |         8282 |         8282 |         8282 |
bpred_bimod.jr_seen                             80 |           80 |           80 |xxxxxxxxxxxxx |xxxxxxxxxxxxx |xxxxxxxxxxxxx |xxxxxxxxxxxxx |           88 |           88 |           88 |xxxxxxxxxxxxx |xxxxxxxxxxxxx |xxxxxxxxxxxxx |xxxxxxxxxxxxx |          104 |          104 |          104 |xxxxxxxxxxxxx |xxxxxxxxxxxxx |xxxxxxxxxxxxx |xxxxxxxxxxxxx |          136 |          136 |          136 |xxxxxxxxxxxxx |xxxxxxxxxxxxx |xxxxxxxxxxxxx |xxxxxxxxxxxxx |          200 |          200 |          200 |xxxxxxxxxxxxx |xxxxxxxxxxxxx |xxxxxxxxxxxxx |xxxxxxxxxxxxx |          328 |          328 |          328 |xxxxxxxxxxxxx |xxxxxxxxxxxxx |xxxxxxxxxxxxx |xxxxxxxxxxxxx |          584 |          584 |          584 |xxxxxxxxxxxxx |xxxxxxxxxxxxx |xxxxxxxxxxxxx |xxxxxxxxxxxxx |         1101 |         1101 |         1101 |xxxxxxxxxxxxx |xxxxxxxxxxxxx |xxxxxxxxxxxxx |xxxxxxxxxxxxx |         2127 |         2127 |         2127 |xxxxxxxxxxxxx |xxxxxxxxxxxxx |xxxxxxxxxxxxx |xxxxxxxxxxxxx |         4179 |         4179 |         4179 |xxxxxxxxxxxxx |xxxxxxxxxxxxx |xxxxxxxxxxxxx |xxxxxxxxxxxxx |         8283 |         8283 |         8283 |
bpred_bimod.jr_non_ras_hits.PP                   0 |            0 |            0 |xxxxxxxxxxxxx |xxxxxxxxxxxxx |xxxxxxxxxxxxx |xxxxxxxxxxxxx |            0 |            0 |            0 |xxxxxxxxxxxxx |xxxxxxxxxxxxx |xxxxxxxxxxxxx |xxxxxxxxxxxxx |            0 |            0 |            0 |xxxxxxxxxxxxx |xxxxxxxxxxxxx |xxxxxxxxxxxxx |xxxxxxxxxxxxx |            0 |            0 |            0 |xxxxxxxxxxxxx |xxxxxxxxxxxxx |xxxxxxxxxxxxx |xxxxxxxxxxxxx |            0 |            0 |            0 |xxxxxxxxxxxxx |xxxxxxxxxxxxx |xxxxxxxxxxxxx |xxxxxxxxxxxxx |            0 |            0 |            0 |xxxxxxxxxxxxx |xxxxxxxxxxxxx |xxxxxxxxxxxxx |xxxxxxxxxxxxx |            0 |            0 |            0 |xxxxxxxxxxxxx |xxxxxxxxxxxxx |xxxxxxxxxxxxx |xxxxxxxxxxxxx |            0 |            0 |            0 |xxxxxxxxxxxxx |xxxxxxxxxxxxx |xxxxxxxxxxxxx |xxxxxxxxxxxxx |            0 |            0 |            0 |xxxxxxxxxxxxx |xxxxxxxxxxxxx |xxxxxxxxxxxxx |xxxxxxxxxxxxx |            0 |            0 |            0 |xxxxxxxxxxxxx |xxxxxxxxxxxxx |xxxxxxxxxxxxx |xxxxxxxxxxxxx |            0 |            0 |            0 |
bpred_bimod.jr_non_ras_seen.PP                   0 |            0 |            0 |xxxxxxxxxxxxx |xxxxxxxxxxxxx |xxxxxxxxxxxxx |xxxxxxxxxxxxx |            0 |            0 |            0 |xxxxxxxxxxxxx |xxxxxxxxxxxxx |xxxxxxxxxxxxx |xxxxxxxxxxxxx |            0 |            0 |            0 |xxxxxxxxxxxxx |xxxxxxxxxxxxx |xxxxxxxxxxxxx |xxxxxxxxxxxxx |            0 |            0 |            0 |xxxxxxxxxxxxx |xxxxxxxxxxxxx |xxxxxxxxxxxxx |xxxxxxxxxxxxx |            0 |            0 |            0 |xxxxxxxxxxxxx |xxxxxxxxxxxxx |xxxxxxxxxxxxx |xxxxxxxxxxxxx |            0 |            0 |            0 |xxxxxxxxxxxxx |xxxxxxxxxxxxx |xxxxxxxxxxxxx |xxxxxxxxxxxxx |            0 |            0 |            0 |xxxxxxxxxxxxx |xxxxxxxxxxxxx |xxxxxxxxxxxxx |xxxxxxxxxxxxx |            1 |            1 |            1 |xxxxxxxxxxxxx |xxxxxxxxxxxxx |xxxxxxxxxxxxx |xxxxxxxxxxxxx |            1 |            1 |            1 |xxxxxxxxxxxxx |xxxxxxxxxxxxx |xxxxxxxxxxxxx |xxxxxxxxxxxxx |            1 |            1 |            1 |xxxxxxxxxxxxx |xxxxxxxxxxxxx |xxxxxxxxxxxxx |xxxxxxxxxxxxx |            1 |            1 |            1 |
bpred_bimod.bpred_addr_rate                 0.7735 |       0.7736 |       0.7737 |xxxxxxxxxxxxx |xxxxxxxxxxxxx |xxxxxxxxxxxxx |xxxxxxxxxxxxx |       0.7808 |       0.7808 |       0.7808 |xxxxxxxxxxxxx |xxxxxxxxxxxxx |xxxxxxxxxxxxx |xxxxxxxxxxxxx |       0.7703 |       0.7704 |       0.7704 |xxxxxxxxxxxxx |xxxxxxxxxxxxx |xxxxxxxxxxxxx |xxxxxxxxxxxxx |       0.7773 |       0.7773 |       0.7773 |xxxxxxxxxxxxx |xxxxxxxxxxxxx |xxxxxxxxxxxxx |xxxxxxxxxxxxx |       0.7682 |       0.7682 |       0.7682 |xxxxxxxxxxxxx |xxxxxxxxxxxxx |xxxxxxxxxxxxx |xxxxxxxxxxxxx |       0.7744 |       0.7744 |       0.7744 |xxxxxxxxxxxxx |xxxxxxxxxxxxx |xxxxxxxxxxxxx |xxxxxxxxxxxxx |       0.7664 |       0.7665 |       0.7665 |xxxxxxxxxxxxx |xxxxxxxxxxxxx |xxxxxxxxxxxxx |xxxxxxxxxxxxx |       0.7782 |       0.7782 |       0.7782 |xxxxxxxxxxxxx |xxxxxxxxxxxxx |xxxxxxxxxxxxx |xxxxxxxxxxxxx |       0.7709 |       0.7709 |       0.7709 |xxxxxxxxxxxxx |xxxxxxxxxxxxx |xxxxxxxxxxxxx |xxxxxxxxxxxxx |       0.7758 |       0.7758 |       0.7758 |xxxxxxxxxxxxx |xxxxxxxxxxxxx |xxxxxxxxxxxxx |xxxxxxxxxxxxx |       0.7692 |       0.7692 |       0.7692 |
bpred_bimod.bpred_dir_rate                  0.7748 |       0.7750 |       0.7750 |xxxxxxxxxxxxx |xxxxxxxxxxxxx |xxxxxxxxxxxxx |xxxxxxxxxxxxx |       0.7814 |       0.7815 |       0.7815 |xxxxxxxxxxxxx |xxxxxxxxxxxxx |xxxxxxxxxxxxx |xxxxxxxxxxxxx |       0.7706 |       0.7706 |       0.7707 |xxxxxxxxxxxxx |xxxxxxxxxxxxx |xxxxxxxxxxxxx |xxxxxxxxxxxxx |       0.7774 |       0.7774 |       0.7774 |xxxxxxxxxxxxx |xxxxxxxxxxxxx |xxxxxxxxxxxxx |xxxxxxxxxxxxx |       0.7682 |       0.7683 |       0.7683 |xxxxxxxxxxxxx |xxxxxxxxxxxxx |xxxxxxxxxxxxx |xxxxxxxxxxxxx |       0.7744 |       0.7744 |       0.7744 |xxxxxxxxxxxxx |xxxxxxxxxxxxx |xxxxxxxxxxxxx |xxxxxxxxxxxxx |       0.7665 |       0.7665 |       0.7665 |xxxxxxxxxxxxx |xxxxxxxxxxxxx |xxxxxxxxxxxxx |xxxxxxxxxxxxx |       0.7782 |       0.7782 |       0.7782 |xxxxxxxxxxxxx |xxxxxxxxxxxxx |xxxxxxxxxxxxx |xxxxxxxxxxxxx |       0.7709 |       0.7709 |       0.7709 |xxxxxxxxxxxxx |xxxxxxxxxxxxx |xxxxxxxxxxxxx |xxxxxxxxxxxxx |       0.7758 |       0.7758 |       0.7758 |xxxxxxxxxxxxx |xxxxxxxxxxxxx |xxxxxxxxxxxxx |xxxxxxxxxxxxx |       0.7692 |       0.7692 |       0.7692 |
bpred_bimod.bpred_jr_rate                   0.9875 |       0.9875 |       0.9875 |xxxxxxxxxxxxx |xxxxxxxxxxxxx |xxxxxxxxxxxxx |xxxxxxxxxxxxx |       0.9886 |       0.9886 |       0.9886 |xxxxxxxxxxxxx |xxxxxxxxxxxxx |xxxxxxxxxxxxx |xxxxxxxxxxxxx |       0.9904 |       0.9904 |       0.9904 |xxxxxxxxxxxxx |xxxxxxxxxxxxx |xxxxxxxxxxxxx |xxxxxxxxxxxxx |       0.9926 |       0.9926 |       0.9926 |xxxxxxxxxxxxx |xxxxxxxxxxxxx |xxxxxxxxxxxxx |xxxxxxxxxxxxx |       0.9950 |       0.9950 |       0.9950 |xxxxxxxxxxxxx |xxxxxxxxxxxxx |xxxxxxxxxxxxx |xxxxxxxxxxxxx |       0.9970 |       0.9970 |       0.9970 |xxxxxxxxxxxxx |xxxxxxxxxxxxx |xxxxxxxxxxxxx |xxxxxxxxxxxxx |       0.9983 |       0.9983 |       0.9983 |xxxxxxxxxxxxx |xxxxxxxxxxxxx |xxxxxxxxxxxxx |xxxxxxxxxxxxx |       0.9991 |       0.9991 |       0.9991 |xxxxxxxxxxxxx |xxxxxxxxxxxxx |xxxxxxxxxxxxx |xxxxxxxxxxxxx |       0.9995 |       0.9995 |       0.9995 |xxxxxxxxxxxxx |xxxxxxxxxxxxx |xxxxxxxxxxxxx |xxxxxxxxxxxxx |       0.9998 |       0.9998 |       0.9998 |xxxxxxxxxxxxx |xxxxxxxxxxxxx |xxxxxxxxxxxxx |xxxxxxxxxxxxx |       0.9999 |       0.9999 |       0.9999 |
bpred_bimod.bpred_jr_non_ras_rate.PP       <error: |      <error: |      <error: |xxxxxxxxxxxxx |xxxxxxxxxxxxx |xxxxxxxxxxxxx |xxxxxxxxxxxxx |      <error: |      <error: |      <error: |xxxxxxxxxxxxx |xxxxxxxxxxxxx |xxxxxxxxxxxxx |xxxxxxxxxxxxx |      <error: |      <error: |      <error: |xxxxxxxxxxxxx |xxxxxxxxxxxxx |xxxxxxxxxxxxx |xxxxxxxxxxxxx |      <error: |      <error: |      <error: |xxxxxxxxxxxxx |xxxxxxxxxxxxx |xxxxxxxxxxxxx |xxxxxxxxxxxxx |      <error: |      <error: |      <error: |xxxxxxxxxxxxx |xxxxxxxxxxxxx |xxxxxxxxxxxxx |xxxxxxxxxxxxx |      <error: |      <error: |      <error: |xxxxxxxxxxxxx |xxxxxxxxxxxxx |xxxxxxxxxxxxx |xxxxxxxxxxxxx |      <error: |      <error: |      <error: |xxxxxxxxxxxxx |xxxxxxxxxxxxx |xxxxxxxxxxxxx |xxxxxxxxxxxxx |       0.0000 |       0.0000 |       0.0000 |xxxxxxxxxxxxx |xxxxxxxxxxxxx |xxxxxxxxxxxxx |xxxxxxxxxxxxx |       0.0000 |       0.0000 |       0.0000 |xxxxxxxxxxxxx |xxxxxxxxxxxxx |xxxxxxxxxxxxx |xxxxxxxxxxxxx |       0.0000 |       0.0000 |       0.0000 |xxxxxxxxxxxxx |xxxxxxxxxxxxx |xxxxxxxxxxxxx |xxxxxxxxxxxxx |       0.0000 |       0.0000 |       0.0000 |
bpred_bimod.retstack_pushes                     82 |           82 |           82 |xxxxxxxxxxxxx |xxxxxxxxxxxxx |xxxxxxxxxxxxx |xxxxxxxxxxxxx |           90 |           90 |           90 |xxxxxxxxxxxxx |xxxxxxxxxxxxx |xxxxxxxxxxxxx |xxxxxxxxxxxxx |          106 |          106 |          106 |xxxxxxxxxxxxx |xxxxxxxxxxxxx |xxxxxxxxxxxxx |xxxxxxxxxxxxx |          138 |          138 |          138 |xxxxxxxxxxxxx |xxxxxxxxxxxxx |xxxxxxxxxxxxx |xxxxxxxxxxxxx |          202 |          202 |          202 |xxxxxxxxxxxxx |xxxxxxxxxxxxx |xxxxxxxxxxxxx |xxxxxxxxxxxxx |          330 |          330 |          330 |xxxxxxxxxxxxx |xxxxxxxxxxxxx |xxxxxxxxxxxxx |xxxxxxxxxxxxx |          586 |          586 |          586 |xxxxxxxxxxxxx |xxxxxxxxxxxxx |xxxxxxxxxxxxx |xxxxxxxxxxxxx |         1102 |         1102 |         1102 |xxxxxxxxxxxxx |xxxxxxxxxxxxx |xxxxxxxxxxxxx |xxxxxxxxxxxxx |         2128 |         2128 |         2128 |xxxxxxxxxxxxx |xxxxxxxxxxxxx |xxxxxxxxxxxxx |xxxxxxxxxxxxx |         4180 |         4180 |         4180 |xxxxxxxxxxxxx |xxxxxxxxxxxxx |xxxxxxxxxxxxx |xxxxxxxxxxxxx |         8284 |         8284 |         8284 |
bpred_bimod.retstack_pops                       80 |           80 |           80 |xxxxxxxxxxxxx |xxxxxxxxxxxxx |xxxxxxxxxxxxx |xxxxxxxxxxxxx |           88 |           88 |           88 |xxxxxxxxxxxxx |xxxxxxxxxxxxx |xxxxxxxxxxxxx |xxxxxxxxxxxxx |          104 |          104 |          104 |xxxxxxxxxxxxx |xxxxxxxxxxxxx |xxxxxxxxxxxxx |xxxxxxxxxxxxx |          136 |          136 |          136 |xxxxxxxxxxxxx |xxxxxxxxxxxxx |xxxxxxxxxxxxx |xxxxxxxxxxxxx |          200 |          200 |          200 |xxxxxxxxxxxxx |xxxxxxxxxxxxx |xxxxxxxxxxxxx |xxxxxxxxxxxxx |          328 |          328 |          328 |xxxxxxxxxxxxx |xxxxxxxxxxxxx |xxxxxxxxxxxxx |xxxxxxxxxxxxx |          584 |          584 |          584 |xxxxxxxxxxxxx |xxxxxxxxxxxxx |xxxxxxxxxxxxx |xxxxxxxxxxxxx |         1100 |         1100 |         1100 |xxxxxxxxxxxxx |xxxxxxxxxxxxx |xxxxxxxxxxxxx |xxxxxxxxxxxxx |         2126 |         2126 |         2126 |xxxxxxxxxxxxx |xxxxxxxxxxxxx |xxxxxxxxxxxxx |xxxxxxxxxxxxx |         4178 |         4178 |         4178 |xxxxxxxxxxxxx |xxxxxxxxxxxxx |xxxxxxxxxxxxx |xxxxxxxxxxxxx |         8282 |         8282 |         8282 |
bpred_bimod.used_ras.PP                         80 |           80 |           80 |xxxxxxxxxxxxx |xxxxxxxxxxxxx |xxxxxxxxxxxxx |xxxxxxxxxxxxx |           88 |           88 |           88 |xxxxxxxxxxxxx |xxxxxxxxxxxxx |xxxxxxxxxxxxx |xxxxxxxxxxxxx |          104 |          104 |          104 |xxxxxxxxxxxxx |xxxxxxxxxxxxx |xxxxxxxxxxxxx |xxxxxxxxxxxxx |          136 |          136 |          136 |xxxxxxxxxxxxx |xxxxxxxxxxxxx |xxxxxxxxxxxxx |xxxxxxxxxxxxx |          200 |          200 |          200 |xxxxxxxxxxxxx |xxxxxxxxxxxxx |xxxxxxxxxxxxx |xxxxxxxxxxxxx |          328 |          328 |          328 |xxxxxxxxxxxxx |xxxxxxxxxxxxx |xxxxxxxxxxxxx |xxxxxxxxxxxxx |          584 |          584 |          584 |xxxxxxxxxxxxx |xxxxxxxxxxxxx |xxxxxxxxxxxxx |xxxxxxxxxxxxx |         1100 |         1100 |         1100 |xxxxxxxxxxxxx |xxxxxxxxxxxxx |xxxxxxxxxxxxx |xxxxxxxxxxxxx |         2126 |         2126 |         2126 |xxxxxxxxxxxxx |xxxxxxxxxxxxx |xxxxxxxxxxxxx |xxxxxxxxxxxxx |         4178 |         4178 |         4178 |xxxxxxxxxxxxx |xxxxxxxxxxxxx |xxxxxxxxxxxxx |xxxxxxxxxxxxx |         8282 |         8282 |         8282 |
bpred_bimod.ras_hits.PP                         79 |           79 |           79 |xxxxxxxxxxxxx |xxxxxxxxxxxxx |xxxxxxxxxxxxx |xxxxxxxxxxxxx |           87 |           87 |           87 |xxxxxxxxxxxxx |xxxxxxxxxxxxx |xxxxxxxxxxxxx |xxxxxxxxxxxxx |          103 |          103 |          103 |xxxxxxxxxxxxx |xxxxxxxxxxxxx |xxxxxxxxxxxxx |xxxxxxxxxxxxx |          135 |          135 |          135 |xxxxxxxxxxxxx |xxxxxxxxxxxxx |xxxxxxxxxxxxx |xxxxxxxxxxxxx |          199 |          199 |          199 |xxxxxxxxxxxxx |xxxxxxxxxxxxx |xxxxxxxxxxxxx |xxxxxxxxxxxxx |          327 |          327 |          327 |xxxxxxxxxxxxx |xxxxxxxxxxxxx |xxxxxxxxxxxxx |xxxxxxxxxxxxx |          583 |          583 |          583 |xxxxxxxxxxxxx |xxxxxxxxxxxxx |xxxxxxxxxxxxx |xxxxxxxxxxxxx |         1100 |         1100 |         1100 |xxxxxxxxxxxxx |xxxxxxxxxxxxx |xxxxxxxxxxxxx |xxxxxxxxxxxxx |         2126 |         2126 |         2126 |xxxxxxxxxxxxx |xxxxxxxxxxxxx |xxxxxxxxxxxxx |xxxxxxxxxxxxx |         4178 |         4178 |         4178 |xxxxxxxxxxxxx |xxxxxxxxxxxxx |xxxxxxxxxxxxx |xxxxxxxxxxxxx |         8282 |         8282 |         8282 |
bpred_bimod.ras_rate.PP                     0.9875 |       0.9875 |       0.9875 |xxxxxxxxxxxxx |xxxxxxxxxxxxx |xxxxxxxxxxxxx |xxxxxxxxxxxxx |       0.9886 |       0.9886 |       0.9886 |xxxxxxxxxxxxx |xxxxxxxxxxxxx |xxxxxxxxxxxxx |xxxxxxxxxxxxx |       0.9904 |       0.9904 |       0.9904 |xxxxxxxxxxxxx |xxxxxxxxxxxxx |xxxxxxxxxxxxx |xxxxxxxxxxxxx |       0.9926 |       0.9926 |       0.9926 |xxxxxxxxxxxxx |xxxxxxxxxxxxx |xxxxxxxxxxxxx |xxxxxxxxxxxxx |       0.9950 |       0.9950 |       0.9950 |xxxxxxxxxxxxx |xxxxxxxxxxxxx |xxxxxxxxxxxxx |xxxxxxxxxxxxx |       0.9970 |       0.9970 |       0.9970 |xxxxxxxxxxxxx |xxxxxxxxxxxxx |xxxxxxxxxxxxx |xxxxxxxxxxxxx |       0.9983 |       0.9983 |       0.9983 |xxxxxxxxxxxxx |xxxxxxxxxxxxx |xxxxxxxxxxxxx |xxxxxxxxxxxxx |       1.0000 |       1.0000 |       1.0000 |xxxxxxxxxxxxx |xxxxxxxxxxxxx |xxxxxxxxxxxxx |xxxxxxxxxxxxx |       1.0000 |       1.0000 |       1.0000 |xxxxxxxxxxxxx |xxxxxxxxxxxxx |xxxxxxxxxxxxx |xxxxxxxxxxxxx |       1.0000 |       1.0000 |       1.0000 |xxxxxxxxxxxxx |xxxxxxxxxxxxx |xxxxxxxxxxxxx |xxxxxxxxxxxxx |       1.0000 |       1.0000 |       1.0000 |
bpred_2lev.lookups                   xxxxxxxxxxxxx |xxxxxxxxxxxxx |xxxxxxxxxxxxx |       113170 |       113170 |       113170 |       113170 |xxxxxxxxxxxxx |xxxxxxxxxxxxx |xxxxxxxxxxxxx |       235995 |       235995 |       235995 |       235995 |xxxxxxxxxxxxx |xxxxxxxxxxxxx |xxxxxxxxxxxxx |       515083 |       515083 |       515083 |       515083 |xxxxxxxxxxxxx |xxxxxxxxxxxxx |xxxxxxxxxxxxx |      1071270 |      1071270 |      1071270 |      1071270 |xxxxxxxxxxxxx |xxxxxxxxxxxxx |xxxxxxxxxxxxx |      2319557 |      2319557 |      2319557 |      2319557 |xxxxxxxxxxxxx |xxxxxxxxxxxxx |xxxxxxxxxxxxx |      4812074 |      4812074 |      4812074 |      4812074 |xxxxxxxxxxxxx |xxxxxxxxxxxxx |xxxxxxxxxxxxx |     10322634 |     10322634 |     10322634 |     10322634 |xxxxxxxxxxxxx |xxxxxxxxxxxxx |xxxxxxxxxxxxx |     21936963 |     21936963 |     21936963 |     21936963 |xxxxxxxxxxxxx |xxxxxxxxxxxxx |xxxxxxxxxxxxx |     46672716 |     46672716 |     46672716 |     46672716 |xxxxxxxxxxxxx |xxxxxxxxxxxxx |xxxxxxxxxxxxx |     96146671 |     96146671 |     96146671 |     96146671 |xxxxxxxxxxxxx |xxxxxxxxxxxxx |xxxxxxxxxxxxx |    203539933 |    203539933 |    203539933 |    203539933 |
[...]
bpred_2lev.retstack_pops             xxxxxxxxxxxxx |xxxxxxxxxxxxx |xxxxxxxxxxxxx |           80 |           80 |           80 |           80 |xxxxxxxxxxxxx |xxxxxxxxxxxxx |xxxxxxxxxxxxx |           88 |           88 |           88 |           88 |xxxxxxxxxxxxx |xxxxxxxxxxxxx |xxxxxxxxxxxxx |          104 |          104 |          104 |          104 |xxxxxxxxxxxxx |xxxxxxxxxxxxx |xxxxxxxxxxxxx |          136 |          136 |          136 |          136 |xxxxxxxxxxxxx |xxxxxxxxxxxxx |xxxxxxxxxxxxx |          200 |          200 |          200 |          200 |xxxxxxxxxxxxx |xxxxxxxxxxxxx |xxxxxxxxxxxxx |          328 |          328 |          328 |          328 |xxxxxxxxxxxxx |xxxxxxxxxxxxx |xxxxxxxxxxxxx |          584 |          584 |          584 |          584 |xxxxxxxxxxxxx |xxxxxxxxxxxxx |xxxxxxxxxxxxx |         1100 |         1100 |         1100 |         1100 |xxxxxxxxxxxxx |xxxxxxxxxxxxx |xxxxxxxxxxxxx |         2126 |         2126 |         2126 |         2126 |xxxxxxxxxxxxx |xxxxxxxxxxxxx |xxxxxxxxxxxxx |         4178 |         4178 |         4178 |         4178 |xxxxxxxxxxxxx |xxxxxxxxxxxxx |xxxxxxxxxxxxx |         8282 |         8282 |         8282 |         8282 |
bpred_2lev.used_ras.PP               xxxxxxxxxxxxx |xxxxxxxxxxxxx |xxxxxxxxxxxxx |           80 |           80 |           80 |           80 |xxxxxxxxxxxxx |xxxxxxxxxxxxx |xxxxxxxxxxxxx |           88 |           88 |           88 |           88 |xxxxxxxxxxxxx |xxxxxxxxxxxxx |xxxxxxxxxxxxx |          104 |          104 |          104 |          104 |xxxxxxxxxxxxx |xxxxxxxxxxxxx |xxxxxxxxxxxxx |          136 |          136 |          136 |          136 |xxxxxxxxxxxxx |xxxxxxxxxxxxx |xxxxxxxxxxxxx |          200 |          200 |          200 |          200 |xxxxxxxxxxxxx |xxxxxxxxxxxxx |xxxxxxxxxxxxx |          328 |          328 |          328 |          328 |xxxxxxxxxxxxx |xxxxxxxxxxxxx |xxxxxxxxxxxxx |          584 |          584 |          584 |          584 |xxxxxxxxxxxxx |xxxxxxxxxxxxx |xxxxxxxxxxxxx |         1100 |         1100 |         1100 |         1100 |xxxxxxxxxxxxx |xxxxxxxxxxxxx |xxxxxxxxxxxxx |         2126 |         2126 |         2126 |         2126 |xxxxxxxxxxxxx |xxxxxxxxxxxxx |xxxxxxxxxxxxx |         4178 |         4178 |         4178 |         4178 |xxxxxxxxxxxxx |xxxxxxxxxxxxx |xxxxxxxxxxxxx |         8282 |         8282 |         8282 |         8282 |
bpred_2lev.ras_hits.PP               xxxxxxxxxxxxx |xxxxxxxxxxxxx |xxxxxxxxxxxxx |           79 |           79 |           79 |           79 |xxxxxxxxxxxxx |xxxxxxxxxxxxx |xxxxxxxxxxxxx |           87 |           87 |           87 |           87 |xxxxxxxxxxxxx |xxxxxxxxxxxxx |xxxxxxxxxxxxx |          103 |          103 |          103 |          103 |xxxxxxxxxxxxx |xxxxxxxxxxxxx |xxxxxxxxxxxxx |          135 |          135 |          135 |          135 |xxxxxxxxxxxxx |xxxxxxxxxxxxx |xxxxxxxxxxxxx |          199 |          199 |          199 |          199 |xxxxxxxxxxxxx |xxxxxxxxxxxxx |xxxxxxxxxxxxx |          327 |          327 |          327 |          327 |xxxxxxxxxxxxx |xxxxxxxxxxxxx |xxxxxxxxxxxxx |          583 |          583 |          583 |          583 |xxxxxxxxxxxxx |xxxxxxxxxxxxx |xxxxxxxxxxxxx |         1100 |         1100 |         1100 |         1100 |xxxxxxxxxxxxx |xxxxxxxxxxxxx |xxxxxxxxxxxxx |         2126 |         2126 |         2126 |         2126 |xxxxxxxxxxxxx |xxxxxxxxxxxxx |xxxxxxxxxxxxx |         4178 |         4178 |         4178 |         4178 |xxxxxxxxxxxxx |xxxxxxxxxxxxx |xxxxxxxxxxxxx |         8282 |         8282 |         8282 |         8282 |
bpred_2lev.ras_rate.PP               xxxxxxxxxxxxx |xxxxxxxxxxxxx |xxxxxxxxxxxxx |       0.9875 |       0.9875 |       0.9875 |       0.9875 |xxxxxxxxxxxxx |xxxxxxxxxxxxx |xxxxxxxxxxxxx |       0.9886 |       0.9886 |       0.9886 |       0.9886 |xxxxxxxxxxxxx |xxxxxxxxxxxxx |xxxxxxxxxxxxx |       0.9904 |       0.9904 |       0.9904 |       0.9904 |xxxxxxxxxxxxx |xxxxxxxxxxxxx |xxxxxxxxxxxxx |       0.9926 |       0.9926 |       0.9926 |       0.9926 |xxxxxxxxxxxxx |xxxxxxxxxxxxx |xxxxxxxxxxxxx |       0.9950 |       0.9950 |       0.9950 |       0.9950 |xxxxxxxxxxxxx |xxxxxxxxxxxxx |xxxxxxxxxxxxx |       0.9970 |       0.9970 |       0.9970 |       0.9970 |xxxxxxxxxxxxx |xxxxxxxxxxxxx |xxxxxxxxxxxxx |       0.9983 |       0.9983 |       0.9983 |       0.9983 |xxxxxxxxxxxxx |xxxxxxxxxxxxx |xxxxxxxxxxxxx |       1.0000 |       1.0000 |       1.0000 |       1.0000 |xxxxxxxxxxxxx |xxxxxxxxxxxxx |xxxxxxxxxxxxx |       1.0000 |       1.0000 |       1.0000 |       1.0000 |xxxxxxxxxxxxx |xxxxxxxxxxxxx |xxxxxxxxxxxxx |       1.0000 |       1.0000 |       1.0000 |       1.0000 |xxxxxxxxxxxxx |xxxxxxxxxxxxx |xxxxxxxxxxxxx |       1.0000 |       1.0000 |       1.0000 |       1.0000 |

Command list: 
	sslittle-na-sstrix-gcc -Wall -O3 -funroll-loops -finline-functions  -DRANDOM_SIZE=4096 -DOFFSET=2 -DSORT=double_tiled_mergesort sorts/double_tiled_mergesort2125118285.c simpleMain.c -o double_tiled_mergesort834426803
	sim-cache -cache:dl1 dl1:256:32:1:l -cache:dl2 dl2:131072:32:1:l -cache:il1 il1:256:32:1:l -cache:il2 dl2 double_tiled_mergesort834426803
	sim-cache -cache:dl1 dl1:256:32:1:l -cache:dl2 dl2:65536:32:1:l -cache:il1 il1:256:32:1:l -cache:il2 dl2 double_tiled_mergesort834426803
	sim-cache -cache:dl1 dl1:1:32:256:l -cache:dl2 dl2:1:32:131072:l -cache:il1 il1:1:32:256:l -cache:il2 dl2 double_tiled_mergesort834426803
	sim-cache -cache:dl1 dl1:1:32:256:l -cache:dl2 dl2:1:32:65536:l -cache:il1 il1:1:32:256:l -cache:il2 dl2 double_tiled_mergesort834426803
	sim-bpred -bpred bimod -bpred:bimod 512 double_tiled_mergesort834426803
	sim-bpred -bpred bimod -bpred:bimod 1024 double_tiled_mergesort834426803
	sim-bpred -bpred bimod -bpred:bimod 2048 double_tiled_mergesort834426803
	sim-bpred -bpred 2lev -bpred:2lev 1 512 10 1 double_tiled_mergesort834426803
	sim-bpred -bpred 2lev -bpred:2lev 1 1024 10 1 double_tiled_mergesort834426803
	sim-bpred -bpred 2lev -bpred:2lev 1 2048 10 1 double_tiled_mergesort834426803
	sim-bpred -bpred 2lev -bpred:2lev 1 4096 10 1 double_tiled_mergesort834426803
	sslittle-na-sstrix-gcc -Wall -O3 -funroll-loops -finline-functions  -DRANDOM_SIZE=8192 -DOFFSET=2 -DSORT=double_tiled_mergesort sorts/double_tiled_mergesort2125118285.c simpleMain.c -o double_tiled_mergesort834426803
	sim-cache -cache:dl1 dl1:256:32:1:l -cache:dl2 dl2:131072:32:1:l -cache:il1 il1:256:32:1:l -cache:il2 dl2 double_tiled_mergesort834426803
	sim-cache -cache:dl1 dl1:256:32:1:l -cache:dl2 dl2:65536:32:1:l -cache:il1 il1:256:32:1:l -cache:il2 dl2 double_tiled_mergesort834426803
	sim-cache -cache:dl1 dl1:1:32:256:l -cache:dl2 dl2:1:32:131072:l -cache:il1 il1:1:32:256:l -cache:il2 dl2 double_tiled_mergesort834426803
	sim-cache -cache:dl1 dl1:1:32:256:l -cache:dl2 dl2:1:32:65536:l -cache:il1 il1:1:32:256:l -cache:il2 dl2 double_tiled_mergesort834426803
	sim-bpred -bpred bimod -bpred:bimod 512 double_tiled_mergesort834426803
	sim-bpred -bpred bimod -bpred:bimod 1024 double_tiled_mergesort834426803
	sim-bpred -bpred bimod -bpred:bimod 2048 double_tiled_mergesort834426803
	sim-bpred -bpred 2lev -bpred:2lev 1 512 10 1 double_tiled_mergesort834426803
	sim-bpred -bpred 2lev -bpred:2lev 1 1024 10 1 double_tiled_mergesort834426803
	sim-bpred -bpred 2lev -bpred:2lev 1 2048 10 1 double_tiled_mergesort834426803
	sim-bpred -bpred 2lev -bpred:2lev 1 4096 10 1 double_tiled_mergesort834426803
	sslittle-na-sstrix-gcc -Wall -O3 -funroll-loops -finline-functions  -DRANDOM_SIZE=16384 -DOFFSET=2 -DSORT=double_tiled_mergesort sorts/double_tiled_mergesort2125118285.c simpleMain.c -o double_tiled_mergesort834426803
	sim-cache -cache:dl1 dl1:256:32:1:l -cache:dl2 dl2:131072:32:1:l -cache:il1 il1:256:32:1:l -cache:il2 dl2 double_tiled_mergesort834426803
	sim-cache -cache:dl1 dl1:256:32:1:l -cache:dl2 dl2:65536:32:1:l -cache:il1 il1:256:32:1:l -cache:il2 dl2 double_tiled_mergesort834426803
	sim-cache -cache:dl1 dl1:1:32:256:l -cache:dl2 dl2:1:32:131072:l -cache:il1 il1:1:32:256:l -cache:il2 dl2 double_tiled_mergesort834426803
	sim-cache -cache:dl1 dl1:1:32:256:l -cache:dl2 dl2:1:32:65536:l -cache:il1 il1:1:32:256:l -cache:il2 dl2 double_tiled_mergesort834426803
	sim-bpred -bpred bimod -bpred:bimod 512 double_tiled_mergesort834426803
	sim-bpred -bpred bimod -bpred:bimod 1024 double_tiled_mergesort834426803
	sim-bpred -bpred bimod -bpred:bimod 2048 double_tiled_mergesort834426803
	sim-bpred -bpred 2lev -bpred:2lev 1 512 10 1 double_tiled_mergesort834426803
	sim-bpred -bpred 2lev -bpred:2lev 1 1024 10 1 double_tiled_mergesort834426803
	sim-bpred -bpred 2lev -bpred:2lev 1 2048 10 1 double_tiled_mergesort834426803
	sim-bpred -bpred 2lev -bpred:2lev 1 4096 10 1 double_tiled_mergesort834426803
	sslittle-na-sstrix-gcc -Wall -O3 -funroll-loops -finline-functions  -DRANDOM_SIZE=32768 -DOFFSET=2 -DSORT=double_tiled_mergesort sorts/double_tiled_mergesort2125118285.c simpleMain.c -o double_tiled_mergesort834426803
	sim-cache -cache:dl1 dl1:256:32:1:l -cache:dl2 dl2:131072:32:1:l -cache:il1 il1:256:32:1:l -cache:il2 dl2 double_tiled_mergesort834426803
	sim-cache -cache:dl1 dl1:256:32:1:l -cache:dl2 dl2:65536:32:1:l -cache:il1 il1:256:32:1:l -cache:il2 dl2 double_tiled_mergesort834426803
	sim-cache -cache:dl1 dl1:1:32:256:l -cache:dl2 dl2:1:32:131072:l -cache:il1 il1:1:32:256:l -cache:il2 dl2 double_tiled_mergesort834426803
	sim-cache -cache:dl1 dl1:1:32:256:l -cache:dl2 dl2:1:32:65536:l -cache:il1 il1:1:32:256:l -cache:il2 dl2 double_tiled_mergesort834426803
	sim-bpred -bpred bimod -bpred:bimod 512 double_tiled_mergesort834426803
	sim-bpred -bpred bimod -bpred:bimod 1024 double_tiled_mergesort834426803
	sim-bpred -bpred bimod -bpred:bimod 2048 double_tiled_mergesort834426803
	sim-bpred -bpred 2lev -bpred:2lev 1 512 10 1 double_tiled_mergesort834426803
	sim-bpred -bpred 2lev -bpred:2lev 1 1024 10 1 double_tiled_mergesort834426803
	sim-bpred -bpred 2lev -bpred:2lev 1 2048 10 1 double_tiled_mergesort834426803
	sim-bpred -bpred 2lev -bpred:2lev 1 4096 10 1 double_tiled_mergesort834426803
	sslittle-na-sstrix-gcc -Wall -O3 -funroll-loops -finline-functions  -DRANDOM_SIZE=65536 -DOFFSET=2 -DSORT=double_tiled_mergesort sorts/double_tiled_mergesort2125118285.c simpleMain.c -o double_tiled_mergesort834426803
	sim-cache -cache:dl1 dl1:256:32:1:l -cache:dl2 dl2:131072:32:1:l -cache:il1 il1:256:32:1:l -cache:il2 dl2 double_tiled_mergesort834426803
	sim-cache -cache:dl1 dl1:256:32:1:l -cache:dl2 dl2:65536:32:1:l -cache:il1 il1:256:32:1:l -cache:il2 dl2 double_tiled_mergesort834426803
	sim-cache -cache:dl1 dl1:1:32:256:l -cache:dl2 dl2:1:32:131072:l -cache:il1 il1:1:32:256:l -cache:il2 dl2 double_tiled_mergesort834426803
	sim-cache -cache:dl1 dl1:1:32:256:l -cache:dl2 dl2:1:32:65536:l -cache:il1 il1:1:32:256:l -cache:il2 dl2 double_tiled_mergesort834426803
	sim-bpred -bpred bimod -bpred:bimod 512 double_tiled_mergesort834426803
	sim-bpred -bpred bimod -bpred:bimod 1024 double_tiled_mergesort834426803
	sim-bpred -bpred bimod -bpred:bimod 2048 double_tiled_mergesort834426803
	sim-bpred -bpred 2lev -bpred:2lev 1 512 10 1 double_tiled_mergesort834426803
	sim-bpred -bpred 2lev -bpred:2lev 1 1024 10 1 double_tiled_mergesort834426803
	sim-bpred -bpred 2lev -bpred:2lev 1 2048 10 1 double_tiled_mergesort834426803
	sim-bpred -bpred 2lev -bpred:2lev 1 4096 10 1 double_tiled_mergesort834426803
	sslittle-na-sstrix-gcc -Wall -O3 -funroll-loops -finline-functions  -DRANDOM_SIZE=131072 -DOFFSET=2 -DSORT=double_tiled_mergesort sorts/double_tiled_mergesort2125118285.c simpleMain.c -o double_tiled_mergesort834426803
	sim-cache -cache:dl1 dl1:256:32:1:l -cache:dl2 dl2:131072:32:1:l -cache:il1 il1:256:32:1:l -cache:il2 dl2 double_tiled_mergesort834426803
	sim-cache -cache:dl1 dl1:256:32:1:l -cache:dl2 dl2:65536:32:1:l -cache:il1 il1:256:32:1:l -cache:il2 dl2 double_tiled_mergesort834426803
	sim-cache -cache:dl1 dl1:1:32:256:l -cache:dl2 dl2:1:32:131072:l -cache:il1 il1:1:32:256:l -cache:il2 dl2 double_tiled_mergesort834426803
	sim-cache -cache:dl1 dl1:1:32:256:l -cache:dl2 dl2:1:32:65536:l -cache:il1 il1:1:32:256:l -cache:il2 dl2 double_tiled_mergesort834426803
	sim-bpred -bpred bimod -bpred:bimod 512 double_tiled_mergesort834426803
	sim-bpred -bpred bimod -bpred:bimod 1024 double_tiled_mergesort834426803
	sim-bpred -bpred bimod -bpred:bimod 2048 double_tiled_mergesort834426803
	sim-bpred -bpred 2lev -bpred:2lev 1 512 10 1 double_tiled_mergesort834426803
	sim-bpred -bpred 2lev -bpred:2lev 1 1024 10 1 double_tiled_mergesort834426803
	sim-bpred -bpred 2lev -bpred:2lev 1 2048 10 1 double_tiled_mergesort834426803
	sim-bpred -bpred 2lev -bpred:2lev 1 4096 10 1 double_tiled_mergesort834426803
	sslittle-na-sstrix-gcc -Wall -O3 -funroll-loops -finline-functions  -DRANDOM_SIZE=262144 -DOFFSET=2 -DSORT=double_tiled_mergesort sorts/double_tiled_mergesort2125118285.c simpleMain.c -o double_tiled_mergesort834426803
	sim-cache -cache:dl1 dl1:256:32:1:l -cache:dl2 dl2:131072:32:1:l -cache:il1 il1:256:32:1:l -cache:il2 dl2 double_tiled_mergesort834426803
	sim-cache -cache:dl1 dl1:256:32:1:l -cache:dl2 dl2:65536:32:1:l -cache:il1 il1:256:32:1:l -cache:il2 dl2 double_tiled_mergesort834426803
	sim-cache -cache:dl1 dl1:1:32:256:l -cache:dl2 dl2:1:32:131072:l -cache:il1 il1:1:32:256:l -cache:il2 dl2 double_tiled_mergesort834426803
	sim-cache -cache:dl1 dl1:1:32:256:l -cache:dl2 dl2:1:32:65536:l -cache:il1 il1:1:32:256:l -cache:il2 dl2 double_tiled_mergesort834426803
	sim-bpred -bpred bimod -bpred:bimod 512 double_tiled_mergesort834426803
	sim-bpred -bpred bimod -bpred:bimod 1024 double_tiled_mergesort834426803
	sim-bpred -bpred bimod -bpred:bimod 2048 double_tiled_mergesort834426803
	sim-bpred -bpred 2lev -bpred:2lev 1 512 10 1 double_tiled_mergesort834426803
	sim-bpred -bpred 2lev -bpred:2lev 1 1024 10 1 double_tiled_mergesort834426803
	sim-bpred -bpred 2lev -bpred:2lev 1 2048 10 1 double_tiled_mergesort834426803
	sim-bpred -bpred 2lev -bpred:2lev 1 4096 10 1 double_tiled_mergesort834426803
	sslittle-na-sstrix-gcc -Wall -O3 -funroll-loops -finline-functions  -DRANDOM_SIZE=524288 -DOFFSET=2 -DSORT=double_tiled_mergesort sorts/double_tiled_mergesort2125118285.c simpleMain.c -o double_tiled_mergesort834426803
	sim-cache -cache:dl1 dl1:256:32:1:l -cache:dl2 dl2:131072:32:1:l -cache:il1 il1:256:32:1:l -cache:il2 dl2 double_tiled_mergesort834426803
	sim-cache -cache:dl1 dl1:256:32:1:l -cache:dl2 dl2:65536:32:1:l -cache:il1 il1:256:32:1:l -cache:il2 dl2 double_tiled_mergesort834426803
	sim-cache -cache:dl1 dl1:1:32:256:l -cache:dl2 dl2:1:32:131072:l -cache:il1 il1:1:32:256:l -cache:il2 dl2 double_tiled_mergesort834426803
	sim-cache -cache:dl1 dl1:1:32:256:l -cache:dl2 dl2:1:32:65536:l -cache:il1 il1:1:32:256:l -cache:il2 dl2 double_tiled_mergesort834426803
	sim-bpred -bpred bimod -bpred:bimod 512 double_tiled_mergesort834426803
	sim-bpred -bpred bimod -bpred:bimod 1024 double_tiled_mergesort834426803
	sim-bpred -bpred bimod -bpred:bimod 2048 double_tiled_mergesort834426803
	sim-bpred -bpred 2lev -bpred:2lev 1 512 10 1 double_tiled_mergesort834426803
	sim-bpred -bpred 2lev -bpred:2lev 1 1024 10 1 double_tiled_mergesort834426803
	sim-bpred -bpred 2lev -bpred:2lev 1 2048 10 1 double_tiled_mergesort834426803
	sim-bpred -bpred 2lev -bpred:2lev 1 4096 10 1 double_tiled_mergesort834426803
	sslittle-na-sstrix-gcc -Wall -O3 -funroll-loops -finline-functions  -DRANDOM_SIZE=1048576 -DOFFSET=2 -DSORT=double_tiled_mergesort sorts/double_tiled_mergesort2125118285.c simpleMain.c -o double_tiled_mergesort834426803
	sim-cache -cache:dl1 dl1:256:32:1:l -cache:dl2 dl2:131072:32:1:l -cache:il1 il1:256:32:1:l -cache:il2 dl2 double_tiled_mergesort834426803
	sim-cache -cache:dl1 dl1:256:32:1:l -cache:dl2 dl2:65536:32:1:l -cache:il1 il1:256:32:1:l -cache:il2 dl2 double_tiled_mergesort834426803
	sim-cache -cache:dl1 dl1:1:32:256:l -cache:dl2 dl2:1:32:131072:l -cache:il1 il1:1:32:256:l -cache:il2 dl2 double_tiled_mergesort834426803
	sim-cache -cache:dl1 dl1:1:32:256:l -cache:dl2 dl2:1:32:65536:l -cache:il1 il1:1:32:256:l -cache:il2 dl2 double_tiled_mergesort834426803
	sim-bpred -bpred bimod -bpred:bimod 512 double_tiled_mergesort834426803
	sim-bpred -bpred bimod -bpred:bimod 1024 double_tiled_mergesort834426803
	sim-bpred -bpred bimod -bpred:bimod 2048 double_tiled_mergesort834426803
	sim-bpred -bpred 2lev -bpred:2lev 1 512 10 1 double_tiled_mergesort834426803
	sim-bpred -bpred 2lev -bpred:2lev 1 1024 10 1 double_tiled_mergesort834426803
	sim-bpred -bpred 2lev -bpred:2lev 1 2048 10 1 double_tiled_mergesort834426803
	sim-bpred -bpred 2lev -bpred:2lev 1 4096 10 1 double_tiled_mergesort834426803
	sslittle-na-sstrix-gcc -Wall -O3 -funroll-loops -finline-functions  -DRANDOM_SIZE=2097152 -DOFFSET=2 -DSORT=double_tiled_mergesort sorts/double_tiled_mergesort2125118285.c simpleMain.c -o double_tiled_mergesort834426803
	sim-cache -cache:dl1 dl1:256:32:1:l -cache:dl2 dl2:131072:32:1:l -cache:il1 il1:256:32:1:l -cache:il2 dl2 double_tiled_mergesort834426803
	sim-cache -cache:dl1 dl1:256:32:1:l -cache:dl2 dl2:65536:32:1:l -cache:il1 il1:256:32:1:l -cache:il2 dl2 double_tiled_mergesort834426803
	sim-cache -cache:dl1 dl1:1:32:256:l -cache:dl2 dl2:1:32:131072:l -cache:il1 il1:1:32:256:l -cache:il2 dl2 double_tiled_mergesort834426803
	sim-cache -cache:dl1 dl1:1:32:256:l -cache:dl2 dl2:1:32:65536:l -cache:il1 il1:1:32:256:l -cache:il2 dl2 double_tiled_mergesort834426803
	sim-bpred -bpred bimod -bpred:bimod 512 double_tiled_mergesort834426803
	sim-bpred -bpred bimod -bpred:bimod 1024 double_tiled_mergesort834426803
	sim-bpred -bpred bimod -bpred:bimod 2048 double_tiled_mergesort834426803
	sim-bpred -bpred 2lev -bpred:2lev 1 512 10 1 double_tiled_mergesort834426803
	sim-bpred -bpred 2lev -bpred:2lev 1 1024 10 1 double_tiled_mergesort834426803
	sim-bpred -bpred 2lev -bpred:2lev 1 2048 10 1 double_tiled_mergesort834426803
	sim-bpred -bpred 2lev -bpred:2lev 1 4096 10 1 double_tiled_mergesort834426803
	sslittle-na-sstrix-gcc -Wall -O3 -funroll-loops -finline-functions  -DRANDOM_SIZE=4194304 -DOFFSET=2 -DSORT=double_tiled_mergesort sorts/double_tiled_mergesort2125118285.c simpleMain.c -o double_tiled_mergesort834426803
	sim-cache -cache:dl1 dl1:256:32:1:l -cache:dl2 dl2:131072:32:1:l -cache:il1 il1:256:32:1:l -cache:il2 dl2 double_tiled_mergesort834426803
	sim-cache -cache:dl1 dl1:256:32:1:l -cache:dl2 dl2:65536:32:1:l -cache:il1 il1:256:32:1:l -cache:il2 dl2 double_tiled_mergesort834426803
	sim-cache -cache:dl1 dl1:1:32:256:l -cache:dl2 dl2:1:32:131072:l -cache:il1 il1:1:32:256:l -cache:il2 dl2 double_tiled_mergesort834426803
	sim-cache -cache:dl1 dl1:1:32:256:l -cache:dl2 dl2:1:32:65536:l -cache:il1 il1:1:32:256:l -cache:il2 dl2 double_tiled_mergesort834426803
	sim-bpred -bpred bimod -bpred:bimod 512 double_tiled_mergesort834426803
	sim-bpred -bpred bimod -bpred:bimod 1024 double_tiled_mergesort834426803
	sim-bpred -bpred bimod -bpred:bimod 2048 double_tiled_mergesort834426803
	sim-bpred -bpred 2lev -bpred:2lev 1 512 10 1 double_tiled_mergesort834426803
	sim-bpred -bpred 2lev -bpred:2lev 1 1024 10 1 double_tiled_mergesort834426803
	sim-bpred -bpred 2lev -bpred:2lev 1 2048 10 1 double_tiled_mergesort834426803
	sim-bpred -bpred 2lev -bpred:2lev 1 4096 10 1 double_tiled_mergesort834426803
