Wed Jun 22 08:45:03 2005
Run as: "./do_simple -c random.org1 -o 1 double_aligned_multi_mergsort"
-------------------------------------------------------------------------------------------------
sim-cache                                     4096 |         4096 |         4096 |         4096 |         8192 |         8192 |         8192 |         8192 |        16384 |        16384 |        16384 |        16384 |        32768 |        32768 |        32768 |        32768 |        65536 |        65536 |        65536 |        65536 |       131072 |       131072 |       131072 |       131072 |       262144 |       262144 |       262144 |       262144 |       524288 |       524288 |       524288 |       524288 |      1048576 |      1048576 |      1048576 |      1048576 |      2097152 |      2097152 |      2097152 |      2097152 |      4194304 |      4194304 |      4194304 |      4194304 |
-cache:dl1 dl1:256:32:1:l -cache:dl2 dl2:131072:32:1:l -cache:il1 il1:256:32:1:l -cache:il2 dl2
-cache:dl1 dl1:256:32:1:l -cache:dl2 dl2:65536:32:1:l -cache:il1 il1:256:32:1:l -cache:il2 dl2
-cache:dl1 dl1:1:32:256:l -cache:dl2 dl2:1:32:131072:l -cache:il1 il1:1:32:256:l -cache:il2 dl2
-cache:dl1 dl1:1:32:256:l -cache:dl2 dl2:1:32:65536:l -cache:il1 il1:1:32:256:l -cache:il2 dl2
-------------------------------------------------------------------------------------------------
sim_num_insn                                858485 |       858485 |       858485 |       858485 |      1751916 |      1751916 |      1751916 |      1751916 |      3960253 |      3960253 |      3960253 |      3960253 |      8067488 |      8067488 |      8067488 |      8067488 |     17982609 |     17982609 |     17982609 |     17982609 |     36563239 |     36563239 |     36563239 |     36563239 |     77445243 |     77445243 |     77445243 |     77445243 |    223404009 |    223404009 |    223404009 |    223404009 |    473148797 |    473148797 |    473148797 |    473148797 |   1035575729 |   1035575729 |   1035575729 |   1035575729 |   2186548656 |   2186548656 |   2186548656 |   2186548656 |
sim_num_refs                                228654 |       228654 |       228654 |       228654 |       472292 |       472292 |       472292 |       472292 |      1051633 |      1051633 |      1051633 |      1051633 |      2172080 |      2172080 |      2172080 |      2172080 |      4784709 |      4784709 |      4784709 |      4784709 |      9853419 |      9853419 |      9853419 |      9853419 |     20882086 |     20882086 |     20882086 |     20882086 |     60947726 |     60947726 |     60947726 |     60947726 |    130147577 |    130147577 |    130147577 |    130147577 |    283154125 |    283154125 |    283154125 |    283154125 |    604281978 |    604281978 |    604281978 |    604281978 |
sim_elapsed_time                                 1 |            1 |           10 |            5 |            1 |            1 |           15 |            8 |            1 |            1 |           25 |           13 |            2 |            2 |           46 |           23 |            4 |            5 |           84 |           42 |            9 |            9 |          154 |           72 |           19 |           19 |          265 |          101 |           56 |           57 |          382 |          140 |          120 |          120 |          448 |          208 |          263 |          263 |          600 |          362 |          557 |          556 |          913 |          677 |
sim_inst_rate                          858485.0000 |  858485.0000 |   85848.5000 |  171697.0000 | 1751916.0000 | 1751916.0000 |  116794.4000 |  218989.5000 | 3960253.0000 | 3960253.0000 |  158410.1200 |  304634.8462 | 4033744.0000 | 4033744.0000 |  175380.1739 |  350760.3478 | 4495652.2500 | 3596521.8000 |  214078.6786 |  428157.3571 | 4062582.1111 | 4062582.1111 |  237423.6299 |  507822.7639 | 4076065.4211 | 4076065.4211 |  292246.2000 |  766784.5842 | 3989357.3036 | 3919368.5789 |  584827.2487 | 1595742.9214 | 3942906.6417 | 3942906.6417 | 1056135.7076 | 2274753.8317 | 3937550.3004 | 3937550.3004 | 1725959.5483 | 2860706.4337 | 3925581.0700 | 3932641.4676 | 2394905.4283 | 3229761.6780 |
il1.accesses                                858485 |       858485 |       858485 |       858485 |      1751916 |      1751916 |      1751916 |      1751916 |      3960253 |      3960253 |      3960253 |      3960253 |      8067488 |      8067488 |      8067488 |      8067488 |     17982609 |     17982609 |     17982609 |     17982609 |     36563239 |     36563239 |     36563239 |     36563239 |     77445243 |     77445243 |     77445243 |     77445243 |    223404009 |    223404009 |    223404009 |    223404009 |    473148797 |    473148797 |    473148797 |    473148797 |   1035575729 |   1035575729 |   1035575729 |   1035575729 |   2186548656 |   2186548656 |   2186548656 |   2186548656 |
il1.hits                                    857802 |       857802 |       857907 |       857907 |      1751188 |      1751188 |      1751317 |      1751317 |      3959510 |      3959510 |      3959682 |      3959682 |      8066613 |      8066613 |      8066886 |      8066886 |     17981562 |     17981562 |     17982025 |     17982025 |     36561786 |     36561786 |     36562636 |     36562636 |     77443532 |     77443532 |     77444643 |     77444643 |    222092281 |    222092281 |    223403120 |    223403120 |    470526298 |    470526298 |    473147863 |    473147863 |   1030331803 |   1030331803 |   1035574811 |   1035574811 |   2176061823 |   2176061823 |   2186547720 |   2186547720 |
il1.misses                                     683 |          683 |          578 |          578 |          728 |          728 |          599 |          599 |          743 |          743 |          571 |          571 |          875 |          875 |          602 |          602 |         1047 |         1047 |          584 |          584 |         1453 |         1453 |          603 |          603 |         1711 |         1711 |          600 |          600 |      1311728 |      1311728 |          889 |          889 |      2622499 |      2622499 |          934 |          934 |      5243926 |      5243926 |          918 |          918 |     10486833 |     10486833 |          936 |          936 |
il1.replacements                               449 |          449 |          322 |          322 |          492 |          492 |          343 |          343 |          508 |          508 |          315 |          315 |          639 |          639 |          346 |          346 |          812 |          812 |          328 |          328 |         1217 |         1217 |          347 |          347 |         1474 |         1474 |          344 |          344 |      1311472 |      1311472 |          633 |          633 |      2622243 |      2622243 |          678 |          678 |      5243670 |      5243670 |          662 |          662 |     10486577 |     10486577 |          680 |          680 |
il1.writebacks                                   0 |            0 |            0 |            0 |            0 |            0 |            0 |            0 |            0 |            0 |            0 |            0 |            0 |            0 |            0 |            0 |            0 |            0 |            0 |            0 |            0 |            0 |            0 |            0 |            0 |            0 |            0 |            0 |            0 |            0 |            0 |            0 |            0 |            0 |            0 |            0 |            0 |            0 |            0 |            0 |            0 |            0 |            0 |            0 |
il1.invalidations                                0 |            0 |            0 |            0 |            0 |            0 |            0 |            0 |            0 |            0 |            0 |            0 |            0 |            0 |            0 |            0 |            0 |            0 |            0 |            0 |            0 |            0 |            0 |            0 |            0 |            0 |            0 |            0 |            0 |            0 |            0 |            0 |            0 |            0 |            0 |            0 |            0 |            0 |            0 |            0 |            0 |            0 |            0 |            0 |
il1.miss_rate                               0.0008 |       0.0008 |       0.0007 |       0.0007 |       0.0004 |       0.0004 |       0.0003 |       0.0003 |       0.0002 |       0.0002 |       0.0001 |       0.0001 |       0.0001 |       0.0001 |       0.0001 |       0.0001 |       0.0001 |       0.0001 |       0.0000 |       0.0000 |       0.0000 |       0.0000 |       0.0000 |       0.0000 |       0.0000 |       0.0000 |       0.0000 |       0.0000 |       0.0059 |       0.0059 |       0.0000 |       0.0000 |       0.0055 |       0.0055 |       0.0000 |       0.0000 |       0.0051 |       0.0051 |       0.0000 |       0.0000 |       0.0048 |       0.0048 |       0.0000 |       0.0000 |
il1.repl_rate                               0.0005 |       0.0005 |       0.0004 |       0.0004 |       0.0003 |       0.0003 |       0.0002 |       0.0002 |       0.0001 |       0.0001 |       0.0001 |       0.0001 |       0.0001 |       0.0001 |       0.0000 |       0.0000 |       0.0000 |       0.0000 |       0.0000 |       0.0000 |       0.0000 |       0.0000 |       0.0000 |       0.0000 |       0.0000 |       0.0000 |       0.0000 |       0.0000 |       0.0059 |       0.0059 |       0.0000 |       0.0000 |       0.0055 |       0.0055 |       0.0000 |       0.0000 |       0.0051 |       0.0051 |       0.0000 |       0.0000 |       0.0048 |       0.0048 |       0.0000 |       0.0000 |
il1.wb_rate                                 0.0000 |       0.0000 |       0.0000 |       0.0000 |       0.0000 |       0.0000 |       0.0000 |       0.0000 |       0.0000 |       0.0000 |       0.0000 |       0.0000 |       0.0000 |       0.0000 |       0.0000 |       0.0000 |       0.0000 |       0.0000 |       0.0000 |       0.0000 |       0.0000 |       0.0000 |       0.0000 |       0.0000 |       0.0000 |       0.0000 |       0.0000 |       0.0000 |       0.0000 |       0.0000 |       0.0000 |       0.0000 |       0.0000 |       0.0000 |       0.0000 |       0.0000 |       0.0000 |       0.0000 |       0.0000 |       0.0000 |       0.0000 |       0.0000 |       0.0000 |       0.0000 |
il1.inv_rate                                0.0000 |       0.0000 |       0.0000 |       0.0000 |       0.0000 |       0.0000 |       0.0000 |       0.0000 |       0.0000 |       0.0000 |       0.0000 |       0.0000 |       0.0000 |       0.0000 |       0.0000 |       0.0000 |       0.0000 |       0.0000 |       0.0000 |       0.0000 |       0.0000 |       0.0000 |       0.0000 |       0.0000 |       0.0000 |       0.0000 |       0.0000 |       0.0000 |       0.0000 |       0.0000 |       0.0000 |       0.0000 |       0.0000 |       0.0000 |       0.0000 |       0.0000 |       0.0000 |       0.0000 |       0.0000 |       0.0000 |       0.0000 |       0.0000 |       0.0000 |       0.0000 |
dl1.accesses                                245120 |       245120 |       245120 |       245120 |       505142 |       505142 |       505142 |       505142 |      1117251 |      1117251 |      1117251 |      1117251 |      2303234 |      2303234 |      2303234 |      2303234 |      5046935 |      5046935 |      5046935 |      5046935 |     10377789 |     10377789 |     10377789 |     10377789 |     21930744 |     21930744 |     21930744 |     21930744 |     63044960 |     63044960 |     63044960 |     63044960 |    134341963 |    134341963 |    134341963 |    134341963 |    291542815 |    291542815 |    291542815 |    291542815 |    621059276 |    621059276 |    621059276 |    621059276 |
dl1.hits                                    239713 |       239713 |       238177 |       238177 |       492528 |       492528 |       490939 |       490939 |      1088046 |      1088046 |      1082661 |      1082661 |      2236147 |      2236147 |      2231416 |      2231416 |      4894849 |      4894849 |      4877248 |      4877248 |     10038270 |     10038270 |     10026504 |     10026504 |     21179902 |     21179902 |     21163137 |     21163137 |     61240845 |     61240845 |     61296413 |     61296413 |    130723442 |    130723442 |    131009055 |    131009055 |    284291938 |    284291938 |    284554296 |    284554296 |    606513725 |    606513725 |    607731135 |    607731135 |
dl1.misses                                    5407 |         5407 |         6943 |         6943 |        12614 |        12614 |        14203 |        14203 |        29205 |        29205 |        34590 |        34590 |        67087 |        67087 |        71818 |        71818 |       152086 |       152086 |       169687 |       169687 |       339519 |       339519 |       351285 |       351285 |       750842 |       750842 |       767607 |       767607 |      1804115 |      1804115 |      1748547 |      1748547 |      3618521 |      3618521 |      3332908 |      3332908 |      7250877 |      7250877 |      6988519 |      6988519 |     14545551 |     14545551 |     13328141 |     13328141 |
dl1.replacements                              5151 |         5151 |         6687 |         6687 |        12358 |        12358 |        13947 |        13947 |        28949 |        28949 |        34334 |        34334 |        66831 |        66831 |        71562 |        71562 |       151830 |       151830 |       169431 |       169431 |       339263 |       339263 |       351029 |       351029 |       750586 |       750586 |       767351 |       767351 |      1803859 |      1803859 |      1748291 |      1748291 |      3618265 |      3618265 |      3332652 |      3332652 |      7250621 |      7250621 |      6988263 |      6988263 |     14545295 |     14545295 |     13327885 |     13327885 |
dl1.writebacks                                3499 |         3499 |         5054 |         5054 |         7786 |         7786 |         9775 |         9775 |        17420 |        17420 |        23395 |        23395 |        38841 |        38841 |        46396 |        46396 |        86055 |        86055 |       109022 |       109022 |       188881 |       188881 |       217352 |       217352 |       411924 |       411924 |       467086 |       467086 |      1045081 |      1045081 |      1067392 |      1067392 |      2095564 |      2095564 |      1999756 |      1999756 |      4210993 |      4210993 |      4266285 |      4266285 |      8458649 |      8458649 |      7997962 |      7997962 |
dl1.invalidations                                0 |            0 |            0 |            0 |            0 |            0 |            0 |            0 |            0 |            0 |            0 |            0 |            0 |            0 |            0 |            0 |            0 |            0 |            0 |            0 |            0 |            0 |            0 |            0 |            0 |            0 |            0 |            0 |            0 |            0 |            0 |            0 |            0 |            0 |            0 |            0 |            0 |            0 |            0 |            0 |            0 |            0 |            0 |            0 |
dl1.miss_rate                               0.0221 |       0.0221 |       0.0283 |       0.0283 |       0.0250 |       0.0250 |       0.0281 |       0.0281 |       0.0261 |       0.0261 |       0.0310 |       0.0310 |       0.0291 |       0.0291 |       0.0312 |       0.0312 |       0.0301 |       0.0301 |       0.0336 |       0.0336 |       0.0327 |       0.0327 |       0.0338 |       0.0338 |       0.0342 |       0.0342 |       0.0350 |       0.0350 |       0.0286 |       0.0286 |       0.0277 |       0.0277 |       0.0269 |       0.0269 |       0.0248 |       0.0248 |       0.0249 |       0.0249 |       0.0240 |       0.0240 |       0.0234 |       0.0234 |       0.0215 |       0.0215 |
dl1.repl_rate                               0.0210 |       0.0210 |       0.0273 |       0.0273 |       0.0245 |       0.0245 |       0.0276 |       0.0276 |       0.0259 |       0.0259 |       0.0307 |       0.0307 |       0.0290 |       0.0290 |       0.0311 |       0.0311 |       0.0301 |       0.0301 |       0.0336 |       0.0336 |       0.0327 |       0.0327 |       0.0338 |       0.0338 |       0.0342 |       0.0342 |       0.0350 |       0.0350 |       0.0286 |       0.0286 |       0.0277 |       0.0277 |       0.0269 |       0.0269 |       0.0248 |       0.0248 |       0.0249 |       0.0249 |       0.0240 |       0.0240 |       0.0234 |       0.0234 |       0.0215 |       0.0215 |
dl1.wb_rate                                 0.0143 |       0.0143 |       0.0206 |       0.0206 |       0.0154 |       0.0154 |       0.0194 |       0.0194 |       0.0156 |       0.0156 |       0.0209 |       0.0209 |       0.0169 |       0.0169 |       0.0201 |       0.0201 |       0.0171 |       0.0171 |       0.0216 |       0.0216 |       0.0182 |       0.0182 |       0.0209 |       0.0209 |       0.0188 |       0.0188 |       0.0213 |       0.0213 |       0.0166 |       0.0166 |       0.0169 |       0.0169 |       0.0156 |       0.0156 |       0.0149 |       0.0149 |       0.0144 |       0.0144 |       0.0146 |       0.0146 |       0.0136 |       0.0136 |       0.0129 |       0.0129 |
dl1.inv_rate                                0.0000 |       0.0000 |       0.0000 |       0.0000 |       0.0000 |       0.0000 |       0.0000 |       0.0000 |       0.0000 |       0.0000 |       0.0000 |       0.0000 |       0.0000 |       0.0000 |       0.0000 |       0.0000 |       0.0000 |       0.0000 |       0.0000 |       0.0000 |       0.0000 |       0.0000 |       0.0000 |       0.0000 |       0.0000 |       0.0000 |       0.0000 |       0.0000 |       0.0000 |       0.0000 |       0.0000 |       0.0000 |       0.0000 |       0.0000 |       0.0000 |       0.0000 |       0.0000 |       0.0000 |       0.0000 |       0.0000 |       0.0000 |       0.0000 |       0.0000 |       0.0000 |
dl2.accesses                                  9589 |         9589 |        12575 |        12575 |        21128 |        21128 |        24577 |        24577 |        47368 |        47368 |        58556 |        58556 |       106803 |       106803 |       118816 |       118816 |       239188 |       239188 |       279293 |       279293 |       529853 |       529853 |       569240 |       569240 |      1164477 |      1164477 |      1235293 |      1235293 |      4160924 |      4160924 |      2816828 |      2816828 |      8336584 |      8336584 |      5333598 |      5333598 |     16705796 |     16705796 |     11255722 |     11255722 |     33491033 |     33491033 |     21327039 |     21327039 |
dl2.hits                                      7549 |         7549 |        10610 |        10610 |        18032 |        18032 |        21571 |        21571 |        42259 |        42259 |        53525 |        53525 |        97561 |        97561 |       109664 |       109664 |       221782 |       221782 |       261965 |       261965 |       496034 |       496034 |       535511 |       535511 |      1097901 |      1095318 |      1168800 |      1131951 |      3973279 |      3868356 |      2647568 |      2425203 |      7742896 |      7672770 |      4686361 |      4553951 |     15373537 |     15372912 |      9946257 |      9700004 |     30830102 |     30828035 |     18703076 |     18217771 |
dl2.misses                                    2040 |         2040 |         1965 |         1965 |         3096 |         3096 |         3006 |         3006 |         5109 |         5109 |         5031 |         5031 |         9242 |         9242 |         9152 |         9152 |        17406 |        17406 |        17328 |        17328 |        33819 |        33819 |        33729 |        33729 |        66576 |        69159 |        66493 |       103342 |       187645 |       292568 |       169260 |       391625 |       593688 |       663814 |       647237 |       779647 |      1332259 |      1332884 |      1309465 |      1555718 |      2660931 |      2662998 |      2623963 |      3109268 |
dl2.replacements                               235 |          235 |            0 |            0 |          266 |          266 |            0 |            0 |          238 |          238 |            0 |            0 |          266 |          266 |            0 |            0 |          239 |          239 |            0 |            0 |          267 |          267 |            0 |            0 |          252 |         3739 |            0 |        37806 |        87762 |       227032 |        38188 |       326089 |       462616 |       598278 |       516165 |       714111 |      1201187 |      1267348 |      1178393 |      1490182 |      2529859 |      2597462 |      2492891 |      3043732 |
dl2.writebacks                                 102 |          102 |            0 |            0 |          109 |          109 |            0 |            0 |          105 |          105 |            0 |            0 |          109 |          109 |            0 |            0 |          106 |          106 |            0 |            0 |          110 |          110 |            0 |            0 |          101 |         2231 |            0 |        37315 |        87501 |       190819 |        37354 |       292204 |       393713 |       478251 |       460430 |       614550 |       959948 |      1001783 |       985375 |      1259422 |      2004864 |      2058954 |      2035344 |      2550487 |
dl2.invalidations                                0 |            0 |            0 |            0 |            0 |            0 |            0 |            0 |            0 |            0 |            0 |            0 |            0 |            0 |            0 |            0 |            0 |            0 |            0 |            0 |            0 |            0 |            0 |            0 |            0 |            0 |            0 |            0 |            0 |            0 |            0 |            0 |            0 |            0 |            0 |            0 |            0 |            0 |            0 |            0 |            0 |            0 |            0 |            0 |
dl2.miss_rate                               0.2127 |       0.2127 |       0.1563 |       0.1563 |       0.1465 |       0.1465 |       0.1223 |       0.1223 |       0.1079 |       0.1079 |       0.0859 |       0.0859 |       0.0865 |       0.0865 |       0.0770 |       0.0770 |       0.0728 |       0.0728 |       0.0620 |       0.0620 |       0.0638 |       0.0638 |       0.0593 |       0.0593 |       0.0572 |       0.0594 |       0.0538 |       0.0837 |       0.0451 |       0.0703 |       0.0601 |       0.1390 |       0.0712 |       0.0796 |       0.1214 |       0.1462 |       0.0797 |       0.0798 |       0.1163 |       0.1382 |       0.0795 |       0.0795 |       0.1230 |       0.1458 |
dl2.repl_rate                               0.0245 |       0.0245 |       0.0000 |       0.0000 |       0.0126 |       0.0126 |       0.0000 |       0.0000 |       0.0050 |       0.0050 |       0.0000 |       0.0000 |       0.0025 |       0.0025 |       0.0000 |       0.0000 |       0.0010 |       0.0010 |       0.0000 |       0.0000 |       0.0005 |       0.0005 |       0.0000 |       0.0000 |       0.0002 |       0.0032 |       0.0000 |       0.0306 |       0.0211 |       0.0546 |       0.0136 |       0.1158 |       0.0555 |       0.0718 |       0.0968 |       0.1339 |       0.0719 |       0.0759 |       0.1047 |       0.1324 |       0.0755 |       0.0776 |       0.1169 |       0.1427 |
dl2.wb_rate                                 0.0106 |       0.0106 |       0.0000 |       0.0000 |       0.0052 |       0.0052 |       0.0000 |       0.0000 |       0.0022 |       0.0022 |       0.0000 |       0.0000 |       0.0010 |       0.0010 |       0.0000 |       0.0000 |       0.0004 |       0.0004 |       0.0000 |       0.0000 |       0.0002 |       0.0002 |       0.0000 |       0.0000 |       0.0001 |       0.0019 |       0.0000 |       0.0302 |       0.0210 |       0.0459 |       0.0133 |       0.1037 |       0.0472 |       0.0574 |       0.0863 |       0.1152 |       0.0575 |       0.0600 |       0.0875 |       0.1119 |       0.0599 |       0.0615 |       0.0954 |       0.1196 |
dl2.inv_rate                                0.0000 |       0.0000 |       0.0000 |       0.0000 |       0.0000 |       0.0000 |       0.0000 |       0.0000 |       0.0000 |       0.0000 |       0.0000 |       0.0000 |       0.0000 |       0.0000 |       0.0000 |       0.0000 |       0.0000 |       0.0000 |       0.0000 |       0.0000 |       0.0000 |       0.0000 |       0.0000 |       0.0000 |       0.0000 |       0.0000 |       0.0000 |       0.0000 |       0.0000 |       0.0000 |       0.0000 |       0.0000 |       0.0000 |       0.0000 |       0.0000 |       0.0000 |       0.0000 |       0.0000 |       0.0000 |       0.0000 |       0.0000 |       0.0000 |       0.0000 |       0.0000 |
itlb.accesses                               858485 |       858485 |       858485 |       858485 |      1751916 |      1751916 |      1751916 |      1751916 |      3960253 |      3960253 |      3960253 |      3960253 |      8067488 |      8067488 |      8067488 |      8067488 |     17982609 |     17982609 |     17982609 |     17982609 |     36563239 |     36563239 |     36563239 |     36563239 |     77445243 |     77445243 |     77445243 |     77445243 |    223404009 |    223404009 |    223404009 |    223404009 |    473148797 |    473148797 |    473148797 |    473148797 |   1035575729 |   1035575729 |   1035575729 |   1035575729 |   2186548656 |   2186548656 |   2186548656 |   2186548656 |
itlb.hits                                   858471 |       858471 |       858471 |       858471 |      1751902 |      1751902 |      1751902 |      1751902 |      3960239 |      3960239 |      3960239 |      3960239 |      8067474 |      8067474 |      8067474 |      8067474 |     17982595 |     17982595 |     17982595 |     17982595 |     36563225 |     36563225 |     36563225 |     36563225 |     77445229 |     77445229 |     77445229 |     77445229 |    223403995 |    223403995 |    223403995 |    223403995 |    473148783 |    473148783 |    473148783 |    473148783 |   1035575715 |   1035575715 |   1035575715 |   1035575715 |   2186548642 |   2186548642 |   2186548642 |   2186548642 |
itlb.misses                                     14 |           14 |           14 |           14 |           14 |           14 |           14 |           14 |           14 |           14 |           14 |           14 |           14 |           14 |           14 |           14 |           14 |           14 |           14 |           14 |           14 |           14 |           14 |           14 |           14 |           14 |           14 |           14 |           14 |           14 |           14 |           14 |           14 |           14 |           14 |           14 |           14 |           14 |           14 |           14 |           14 |           14 |           14 |           14 |
itlb.replacements                                0 |            0 |            0 |            0 |            0 |            0 |            0 |            0 |            0 |            0 |            0 |            0 |            0 |            0 |            0 |            0 |            0 |            0 |            0 |            0 |            0 |            0 |            0 |            0 |            0 |            0 |            0 |            0 |            0 |            0 |            0 |            0 |            0 |            0 |            0 |            0 |            0 |            0 |            0 |            0 |            0 |            0 |            0 |            0 |
itlb.writebacks                                  0 |            0 |            0 |            0 |            0 |            0 |            0 |            0 |            0 |            0 |            0 |            0 |            0 |            0 |            0 |            0 |            0 |            0 |            0 |            0 |            0 |            0 |            0 |            0 |            0 |            0 |            0 |            0 |            0 |            0 |            0 |            0 |            0 |            0 |            0 |            0 |            0 |            0 |            0 |            0 |            0 |            0 |            0 |            0 |
itlb.invalidations                               0 |            0 |            0 |            0 |            0 |            0 |            0 |            0 |            0 |            0 |            0 |            0 |            0 |            0 |            0 |            0 |            0 |            0 |            0 |            0 |            0 |            0 |            0 |            0 |            0 |            0 |            0 |            0 |            0 |            0 |            0 |            0 |            0 |            0 |            0 |            0 |            0 |            0 |            0 |            0 |            0 |            0 |            0 |            0 |
itlb.miss_rate                              0.0000 |       0.0000 |       0.0000 |       0.0000 |       0.0000 |       0.0000 |       0.0000 |       0.0000 |       0.0000 |       0.0000 |       0.0000 |       0.0000 |       0.0000 |       0.0000 |       0.0000 |       0.0000 |       0.0000 |       0.0000 |       0.0000 |       0.0000 |       0.0000 |       0.0000 |       0.0000 |       0.0000 |       0.0000 |       0.0000 |       0.0000 |       0.0000 |       0.0000 |       0.0000 |       0.0000 |       0.0000 |       0.0000 |       0.0000 |       0.0000 |       0.0000 |       0.0000 |       0.0000 |       0.0000 |       0.0000 |       0.0000 |       0.0000 |       0.0000 |       0.0000 |
itlb.repl_rate                              0.0000 |       0.0000 |       0.0000 |       0.0000 |       0.0000 |       0.0000 |       0.0000 |       0.0000 |       0.0000 |       0.0000 |       0.0000 |       0.0000 |       0.0000 |       0.0000 |       0.0000 |       0.0000 |       0.0000 |       0.0000 |       0.0000 |       0.0000 |       0.0000 |       0.0000 |       0.0000 |       0.0000 |       0.0000 |       0.0000 |       0.0000 |       0.0000 |       0.0000 |       0.0000 |       0.0000 |       0.0000 |       0.0000 |       0.0000 |       0.0000 |       0.0000 |       0.0000 |       0.0000 |       0.0000 |       0.0000 |       0.0000 |       0.0000 |       0.0000 |       0.0000 |
itlb.wb_rate                                0.0000 |       0.0000 |       0.0000 |       0.0000 |       0.0000 |       0.0000 |       0.0000 |       0.0000 |       0.0000 |       0.0000 |       0.0000 |       0.0000 |       0.0000 |       0.0000 |       0.0000 |       0.0000 |       0.0000 |       0.0000 |       0.0000 |       0.0000 |       0.0000 |       0.0000 |       0.0000 |       0.0000 |       0.0000 |       0.0000 |       0.0000 |       0.0000 |       0.0000 |       0.0000 |       0.0000 |       0.0000 |       0.0000 |       0.0000 |       0.0000 |       0.0000 |       0.0000 |       0.0000 |       0.0000 |       0.0000 |       0.0000 |       0.0000 |       0.0000 |       0.0000 |
itlb.inv_rate                               0.0000 |       0.0000 |       0.0000 |       0.0000 |       0.0000 |       0.0000 |       0.0000 |       0.0000 |       0.0000 |       0.0000 |       0.0000 |       0.0000 |       0.0000 |       0.0000 |       0.0000 |       0.0000 |       0.0000 |       0.0000 |       0.0000 |       0.0000 |       0.0000 |       0.0000 |       0.0000 |       0.0000 |       0.0000 |       0.0000 |       0.0000 |       0.0000 |       0.0000 |       0.0000 |       0.0000 |       0.0000 |       0.0000 |       0.0000 |       0.0000 |       0.0000 |       0.0000 |       0.0000 |       0.0000 |       0.0000 |       0.0000 |       0.0000 |       0.0000 |       0.0000 |
dtlb.accesses                               245120 |       245120 |       245120 |       245120 |       505142 |       505142 |       505142 |       505142 |      1117251 |      1117251 |      1117251 |      1117251 |      2303234 |      2303234 |      2303234 |      2303234 |      5046935 |      5046935 |      5046935 |      5046935 |     10377789 |     10377789 |     10377789 |     10377789 |     21930744 |     21930744 |     21930744 |     21930744 |     63044960 |     63044960 |     63044960 |     63044960 |    134341963 |    134341963 |    134341963 |    134341963 |    291542815 |    291542815 |    291542815 |    291542815 |    621059276 |    621059276 |    621059276 |    621059276 |
dtlb.hits                                   245104 |       245104 |       245104 |       245104 |       505118 |       505118 |       505118 |       505118 |      1117211 |      1117211 |      1117211 |      1117211 |      2303162 |      2303162 |      2303162 |      2303162 |      5046733 |      5046733 |      5046733 |      5046733 |     10375363 |     10375363 |     10375363 |     10375363 |     21925330 |     21925330 |     21925330 |     21925330 |     63033232 |     63033232 |     63033232 |     63033232 |    134318420 |    134318420 |    134318420 |    134318420 |    291478113 |    291478113 |    291478113 |    291478113 |    620582585 |    620582585 |    620582585 |    620582585 |
dtlb.misses                                     16 |           16 |           16 |           16 |           24 |           24 |           24 |           24 |           40 |           40 |           40 |           40 |           72 |           72 |           72 |           72 |          202 |          202 |          202 |          202 |         2426 |         2426 |         2426 |         2426 |         5414 |         5414 |         5414 |         5414 |        11728 |        11728 |        11728 |        11728 |        23543 |        23543 |        23543 |        23543 |        64702 |        64702 |        64702 |        64702 |       476691 |       476691 |       476691 |       476691 |
dtlb.replacements                                0 |            0 |            0 |            0 |            0 |            0 |            0 |            0 |            0 |            0 |            0 |            0 |            0 |            0 |            0 |            0 |           74 |           74 |           74 |           74 |         2298 |         2298 |         2298 |         2298 |         5286 |         5286 |         5286 |         5286 |        11600 |        11600 |        11600 |        11600 |        23415 |        23415 |        23415 |        23415 |        64574 |        64574 |        64574 |        64574 |       476563 |       476563 |       476563 |       476563 |
dtlb.writebacks                                  0 |            0 |            0 |            0 |            0 |            0 |            0 |            0 |            0 |            0 |            0 |            0 |            0 |            0 |            0 |            0 |           50 |           50 |           50 |           50 |         1335 |         1335 |         1335 |         1335 |         3030 |         3030 |         3030 |         3030 |         6579 |         6579 |         6579 |         6579 |        13203 |        13203 |        13203 |        13203 |        26451 |        26451 |        26451 |        26451 |        52937 |        52937 |        52937 |        52937 |
dtlb.invalidations                               0 |            0 |            0 |            0 |            0 |            0 |            0 |            0 |            0 |            0 |            0 |            0 |            0 |            0 |            0 |            0 |            0 |            0 |            0 |            0 |            0 |            0 |            0 |            0 |            0 |            0 |            0 |            0 |            0 |            0 |            0 |            0 |            0 |            0 |            0 |            0 |            0 |            0 |            0 |            0 |            0 |            0 |            0 |            0 |
dtlb.miss_rate                              0.0001 |       0.0001 |       0.0001 |       0.0001 |       0.0000 |       0.0000 |       0.0000 |       0.0000 |       0.0000 |       0.0000 |       0.0000 |       0.0000 |       0.0000 |       0.0000 |       0.0000 |       0.0000 |       0.0000 |       0.0000 |       0.0000 |       0.0000 |       0.0002 |       0.0002 |       0.0002 |       0.0002 |       0.0002 |       0.0002 |       0.0002 |       0.0002 |       0.0002 |       0.0002 |       0.0002 |       0.0002 |       0.0002 |       0.0002 |       0.0002 |       0.0002 |       0.0002 |       0.0002 |       0.0002 |       0.0002 |       0.0008 |       0.0008 |       0.0008 |       0.0008 |
dtlb.repl_rate                              0.0000 |       0.0000 |       0.0000 |       0.0000 |       0.0000 |       0.0000 |       0.0000 |       0.0000 |       0.0000 |       0.0000 |       0.0000 |       0.0000 |       0.0000 |       0.0000 |       0.0000 |       0.0000 |       0.0000 |       0.0000 |       0.0000 |       0.0000 |       0.0002 |       0.0002 |       0.0002 |       0.0002 |       0.0002 |       0.0002 |       0.0002 |       0.0002 |       0.0002 |       0.0002 |       0.0002 |       0.0002 |       0.0002 |       0.0002 |       0.0002 |       0.0002 |       0.0002 |       0.0002 |       0.0002 |       0.0002 |       0.0008 |       0.0008 |       0.0008 |       0.0008 |
dtlb.wb_rate                                0.0000 |       0.0000 |       0.0000 |       0.0000 |       0.0000 |       0.0000 |       0.0000 |       0.0000 |       0.0000 |       0.0000 |       0.0000 |       0.0000 |       0.0000 |       0.0000 |       0.0000 |       0.0000 |       0.0000 |       0.0000 |       0.0000 |       0.0000 |       0.0001 |       0.0001 |       0.0001 |       0.0001 |       0.0001 |       0.0001 |       0.0001 |       0.0001 |       0.0001 |       0.0001 |       0.0001 |       0.0001 |       0.0001 |       0.0001 |       0.0001 |       0.0001 |       0.0001 |       0.0001 |       0.0001 |       0.0001 |       0.0001 |       0.0001 |       0.0001 |       0.0001 |
dtlb.inv_rate                               0.0000 |       0.0000 |       0.0000 |       0.0000 |       0.0000 |       0.0000 |       0.0000 |       0.0000 |       0.0000 |       0.0000 |       0.0000 |       0.0000 |       0.0000 |       0.0000 |       0.0000 |       0.0000 |       0.0000 |       0.0000 |       0.0000 |       0.0000 |       0.0000 |       0.0000 |       0.0000 |       0.0000 |       0.0000 |       0.0000 |       0.0000 |       0.0000 |       0.0000 |       0.0000 |       0.0000 |       0.0000 |       0.0000 |       0.0000 |       0.0000 |       0.0000 |       0.0000 |       0.0000 |       0.0000 |       0.0000 |       0.0000 |       0.0000 |       0.0000 |       0.0000 |
ld_text_base                            0x00400000 |   0x00400000 |   0x00400000 |   0x00400000 |   0x00400000 |   0x00400000 |   0x00400000 |   0x00400000 |   0x00400000 |   0x00400000 |   0x00400000 |   0x00400000 |   0x00400000 |   0x00400000 |   0x00400000 |   0x00400000 |   0x00400000 |   0x00400000 |   0x00400000 |   0x00400000 |   0x00400000 |   0x00400000 |   0x00400000 |   0x00400000 |   0x00400000 |   0x00400000 |   0x00400000 |   0x00400000 |   0x00400000 |   0x00400000 |   0x00400000 |   0x00400000 |   0x00400000 |   0x00400000 |   0x00400000 |   0x00400000 |   0x00400000 |   0x00400000 |   0x00400000 |   0x00400000 |   0x00400000 |   0x00400000 |   0x00400000 |   0x00400000 |
ld_text_size                                 94704 |        94704 |        94704 |        94704 |        94736 |        94736 |        94736 |        94736 |        94752 |        94752 |        94752 |        94752 |        94768 |        94768 |        94768 |        94768 |        94768 |        94768 |        94768 |        94768 |        94768 |        94768 |        94768 |        94768 |        94768 |        94768 |        94768 |        94768 |        94768 |        94768 |        94768 |        94768 |        94768 |        94768 |        94768 |        94768 |        94768 |        94768 |        94768 |        94768 |        94768 |        94768 |        94768 |        94768 |
ld_data_base                            0x10000000 |   0x10000000 |   0x10000000 |   0x10000000 |   0x10000000 |   0x10000000 |   0x10000000 |   0x10000000 |   0x10000000 |   0x10000000 |   0x10000000 |   0x10000000 |   0x10000000 |   0x10000000 |   0x10000000 |   0x10000000 |   0x10000000 |   0x10000000 |   0x10000000 |   0x10000000 |   0x10000000 |   0x10000000 |   0x10000000 |   0x10000000 |   0x10000000 |   0x10000000 |   0x10000000 |   0x10000000 |   0x10000000 |   0x10000000 |   0x10000000 |   0x10000000 |   0x10000000 |   0x10000000 |   0x10000000 |   0x10000000 |   0x10000000 |   0x10000000 |   0x10000000 |   0x10000000 |   0x10000000 |   0x10000000 |   0x10000000 |   0x10000000 |
ld_data_size                                  8192 |         8192 |         8192 |         8192 |         8192 |         8192 |         8192 |         8192 |         8192 |         8192 |         8192 |         8192 |         8192 |         8192 |         8192 |         8192 |         8192 |         8192 |         8192 |         8192 |         8192 |         8192 |         8192 |         8192 |         8192 |         8192 |         8192 |         8192 |         8192 |         8192 |         8192 |         8192 |         8192 |         8192 |         8192 |         8192 |         8192 |         8192 |         8192 |         8192 |         8192 |         8192 |         8192 |         8192 |
ld_stack_base                           0x7fffc000 |   0x7fffc000 |   0x7fffc000 |   0x7fffc000 |   0x7fffc000 |   0x7fffc000 |   0x7fffc000 |   0x7fffc000 |   0x7fffc000 |   0x7fffc000 |   0x7fffc000 |   0x7fffc000 |   0x7fffc000 |   0x7fffc000 |   0x7fffc000 |   0x7fffc000 |   0x7fffc000 |   0x7fffc000 |   0x7fffc000 |   0x7fffc000 |   0x7fffc000 |   0x7fffc000 |   0x7fffc000 |   0x7fffc000 |   0x7fffc000 |   0x7fffc000 |   0x7fffc000 |   0x7fffc000 |   0x7fffc000 |   0x7fffc000 |   0x7fffc000 |   0x7fffc000 |   0x7fffc000 |   0x7fffc000 |   0x7fffc000 |   0x7fffc000 |   0x7fffc000 |   0x7fffc000 |   0x7fffc000 |   0x7fffc000 |   0x7fffc000 |   0x7fffc000 |   0x7fffc000 |   0x7fffc000 |
ld_stack_size                                16384 |        16384 |        16384 |        16384 |        16384 |        16384 |        16384 |        16384 |        16384 |        16384 |        16384 |        16384 |        16384 |        16384 |        16384 |        16384 |        16384 |        16384 |        16384 |        16384 |        16384 |        16384 |        16384 |        16384 |        16384 |        16384 |        16384 |        16384 |        16384 |        16384 |        16384 |        16384 |        16384 |        16384 |        16384 |        16384 |        16384 |        16384 |        16384 |        16384 |        16384 |        16384 |        16384 |        16384 |
ld_prog_entry                           0x00400140 |   0x00400140 |   0x00400140 |   0x00400140 |   0x00400140 |   0x00400140 |   0x00400140 |   0x00400140 |   0x00400140 |   0x00400140 |   0x00400140 |   0x00400140 |   0x00400140 |   0x00400140 |   0x00400140 |   0x00400140 |   0x00400140 |   0x00400140 |   0x00400140 |   0x00400140 |   0x00400140 |   0x00400140 |   0x00400140 |   0x00400140 |   0x00400140 |   0x00400140 |   0x00400140 |   0x00400140 |   0x00400140 |   0x00400140 |   0x00400140 |   0x00400140 |   0x00400140 |   0x00400140 |   0x00400140 |   0x00400140 |   0x00400140 |   0x00400140 |   0x00400140 |   0x00400140 |   0x00400140 |   0x00400140 |   0x00400140 |   0x00400140 |
ld_environ_base                         0x7fff8000 |   0x7fff8000 |   0x7fff8000 |   0x7fff8000 |   0x7fff8000 |   0x7fff8000 |   0x7fff8000 |   0x7fff8000 |   0x7fff8000 |   0x7fff8000 |   0x7fff8000 |   0x7fff8000 |   0x7fff8000 |   0x7fff8000 |   0x7fff8000 |   0x7fff8000 |   0x7fff8000 |   0x7fff8000 |   0x7fff8000 |   0x7fff8000 |   0x7fff8000 |   0x7fff8000 |   0x7fff8000 |   0x7fff8000 |   0x7fff8000 |   0x7fff8000 |   0x7fff8000 |   0x7fff8000 |   0x7fff8000 |   0x7fff8000 |   0x7fff8000 |   0x7fff8000 |   0x7fff8000 |   0x7fff8000 |   0x7fff8000 |   0x7fff8000 |   0x7fff8000 |   0x7fff8000 |   0x7fff8000 |   0x7fff8000 |   0x7fff8000 |   0x7fff8000 |   0x7fff8000 |   0x7fff8000 |
ld_target_big_endian                             0 |            0 |            0 |            0 |            0 |            0 |            0 |            0 |            0 |            0 |            0 |            0 |            0 |            0 |            0 |            0 |            0 |            0 |            0 |            0 |            0 |            0 |            0 |            0 |            0 |            0 |            0 |            0 |            0 |            0 |            0 |            0 |            0 |            0 |            0 |            0 |            0 |            0 |            0 |            0 |            0 |            0 |            0 |            0 |
mem.page_count                                  40 |           40 |           40 |           40 |           48 |           48 |           48 |           48 |           64 |           64 |           64 |           64 |           96 |           96 |           96 |           96 |          160 |          160 |          160 |          160 |          288 |          288 |          288 |          288 |          544 |          544 |          544 |          544 |         1062 |         1062 |         1062 |         1062 |         2086 |         2086 |         2086 |         2086 |         4140 |         4140 |         4140 |         4140 |         8248 |         8248 |         8248 |         8248 |
mem.page_mem                                  160k |         160k |         160k |         160k |         192k |         192k |         192k |         192k |         256k |         256k |         256k |         256k |         384k |         384k |         384k |         384k |         640k |         640k |         640k |         640k |        1152k |        1152k |        1152k |        1152k |        2176k |        2176k |        2176k |        2176k |        4248k |        4248k |        4248k |        4248k |        8344k |        8344k |        8344k |        8344k |       16560k |       16560k |       16560k |       16560k |       32992k |       32992k |       32992k |       32992k |
mem.ptab_misses                                 40 |           40 |           40 |           40 |           48 |           48 |           48 |           48 |           64 |           64 |           64 |           64 |           96 |           96 |           96 |           96 |          160 |          160 |          160 |          160 |          288 |          288 |          288 |          288 |          544 |          544 |          544 |          544 |         1067 |         1067 |         1067 |         1067 |        79365 |        79365 |        79365 |        79365 |        84437 |        84437 |        84437 |        84437 |        85529 |        85529 |        85529 |        85529 |
mem.ptab_accesses                          4507032 |      4507032 |      4507032 |      4507032 |      8600992 |      8600992 |      8600992 |      8600992 |     18658654 |     18658654 |     18658654 |     18658654 |     37459656 |     37459656 |     37459656 |     37459656 |     82607542 |     82607542 |     82607542 |     82607542 |    167591770 |    167591770 |    167591770 |    167591770 |    354225696 |    354225696 |    354225696 |    354225696 |   1020289192 |   1020289192 |   1020289192 |   1020289192 |   2161862350 |   2161862350 |   2161862350 |   2161862350 |   4725971782 |   4725971782 |   4725971782 |   4725971782 |   9988896412 |   9988896412 |   9988896412 |   9988896412 |
mem.ptab_miss_rate                          0.0000 |       0.0000 |       0.0000 |       0.0000 |       0.0000 |       0.0000 |       0.0000 |       0.0000 |       0.0000 |       0.0000 |       0.0000 |       0.0000 |       0.0000 |       0.0000 |       0.0000 |       0.0000 |       0.0000 |       0.0000 |       0.0000 |       0.0000 |       0.0000 |       0.0000 |       0.0000 |       0.0000 |       0.0000 |       0.0000 |       0.0000 |       0.0000 |       0.0000 |       0.0000 |       0.0000 |       0.0000 |       0.0000 |       0.0000 |       0.0000 |       0.0000 |       0.0000 |       0.0000 |       0.0000 |       0.0000 |       0.0000 |       0.0000 |       0.0000 |       0.0000 |
-------------------------------------------------------------------------------------------------
sim-bpred                                     4096 |         4096 |         4096 |         4096 |         4096 |         4096 |         4096 |         8192 |         8192 |         8192 |         8192 |         8192 |         8192 |         8192 |        16384 |        16384 |        16384 |        16384 |        16384 |        16384 |        16384 |        32768 |        32768 |        32768 |        32768 |        32768 |        32768 |        32768 |        65536 |        65536 |        65536 |        65536 |        65536 |        65536 |        65536 |       131072 |       131072 |       131072 |       131072 |       131072 |       131072 |       131072 |       262144 |       262144 |       262144 |       262144 |       262144 |       262144 |       262144 |       524288 |       524288 |       524288 |       524288 |       524288 |       524288 |       524288 |      1048576 |      1048576 |      1048576 |      1048576 |      1048576 |      1048576 |      1048576 |      2097152 |      2097152 |      2097152 |      2097152 |      2097152 |      2097152 |      2097152 |      4194304 |      4194304 |      4194304 |      4194304 |      4194304 |      4194304 |      4194304 |
-bpred bimod -bpred:bimod 512
-bpred bimod -bpred:bimod 1024
-bpred bimod -bpred:bimod 2048
-bpred 2lev -bpred:2lev 1 512 10 1
-bpred 2lev -bpred:2lev 1 1024 10 1
-bpred 2lev -bpred:2lev 1 2048 10 1
-bpred 2lev -bpred:2lev 1 4096 10 1
-------------------------------------------------------------------------------------------------
sim_num_insn                                858485 |       858485 |       858485 |       858485 |       858485 |       858485 |       858485 |      1751916 |      1751916 |      1751916 |      1751916 |      1751916 |      1751916 |      1751916 |      3960253 |      3960253 |      3960253 |      3960253 |      3960253 |      3960253 |      3960253 |      8067488 |      8067488 |      8067488 |      8067488 |      8067488 |      8067488 |      8067488 |     17982609 |     17982609 |     17982609 |     17982609 |     17982609 |     17982609 |     17982609 |     36563239 |     36563239 |     36563239 |     36563239 |     36563239 |     36563239 |     36563239 |     77445243 |     77445243 |     77445243 |     77445243 |     77445243 |     77445243 |     77445243 |    223404009 |    223404009 |    223404009 |    223404009 |    223404009 |    223404009 |    223404009 |    473148797 |    473148797 |    473148797 |    473148797 |    473148797 |    473148797 |    473148797 |   1035575729 |   1035575729 |   1035575729 |   1035575729 |   1035575729 |   1035575729 |   1035575729 |   2186548656 |   2186548656 |   2186548656 |   2186548656 |   2186548656 |   2186548656 |   2186548656 |
sim_num_refs                                228654 |       228654 |       228654 |       228654 |       228654 |       228654 |       228654 |       472292 |       472292 |       472292 |       472292 |       472292 |       472292 |       472292 |      1051633 |      1051633 |      1051633 |      1051633 |      1051633 |      1051633 |      1051633 |      2172080 |      2172080 |      2172080 |      2172080 |      2172080 |      2172080 |      2172080 |      4784709 |      4784709 |      4784709 |      4784709 |      4784709 |      4784709 |      4784709 |      9853419 |      9853419 |      9853419 |      9853419 |      9853419 |      9853419 |      9853419 |     20882086 |     20882086 |     20882086 |     20882086 |     20882086 |     20882086 |     20882086 |     60947726 |     60947726 |     60947726 |     60947726 |     60947726 |     60947726 |     60947726 |    130147577 |    130147577 |    130147577 |    130147577 |    130147577 |    130147577 |    130147577 |    283154125 |    283154125 |    283154125 |    283154125 |    283154125 |    283154125 |    283154125 |    604281978 |    604281978 |    604281978 |    604281978 |    604281978 |    604281978 |    604281978 |
sim_elapsed_time                                 1 |            1 |            1 |            1 |            1 |            1 |            1 |            1 |            1 |            1 |            1 |            1 |            1 |            1 |            1 |            1 |            1 |            1 |            1 |            1 |            1 |            1 |            1 |            1 |            1 |            1 |            1 |            1 |            2 |            2 |            2 |            1 |            2 |            2 |            2 |            4 |            4 |            4 |            4 |            4 |            4 |            3 |            8 |            9 |            8 |            8 |            8 |            9 |            8 |           24 |           25 |           24 |           24 |           24 |           25 |           24 |           52 |           51 |           51 |           53 |           52 |           52 |           52 |          111 |          112 |          112 |          114 |          114 |          114 |          114 |          238 |          238 |          238 |          243 |          242 |          241 |          242 |
sim_inst_rate                          858485.0000 |  858485.0000 |  858485.0000 |  858485.0000 |  858485.0000 |  858485.0000 |  858485.0000 | 1751916.0000 | 1751916.0000 | 1751916.0000 | 1751916.0000 | 1751916.0000 | 1751916.0000 | 1751916.0000 | 3960253.0000 | 3960253.0000 | 3960253.0000 | 3960253.0000 | 3960253.0000 | 3960253.0000 | 3960253.0000 | 8067488.0000 | 8067488.0000 | 8067488.0000 | 8067488.0000 | 8067488.0000 | 8067488.0000 | 8067488.0000 | 8991304.5000 | 8991304.5000 | 8991304.5000 |17982609.0000 | 8991304.5000 | 8991304.5000 | 8991304.5000 | 9140809.7500 | 9140809.7500 | 9140809.7500 | 9140809.7500 | 9140809.7500 | 9140809.7500 |12187746.3333 | 9680655.3750 | 8605027.0000 | 9680655.3750 | 9680655.3750 | 9680655.3750 | 8605027.0000 | 9680655.3750 | 9308500.3750 | 8936160.3600 | 9308500.3750 | 9308500.3750 | 9308500.3750 | 8936160.3600 | 9308500.3750 | 9099015.3269 | 9277427.3922 | 9277427.3922 | 8927335.7925 | 9099015.3269 | 9099015.3269 | 9099015.3269 | 9329511.0721 | 9246211.8661 | 9246211.8661 | 9083997.6228 | 9083997.6228 | 9083997.6228 | 9083997.6228 | 9187179.2269 | 9187179.2269 | 9187179.2269 | 8998142.6173 | 9035325.0248 | 9072816.0000 | 9035325.0248 |
sim_num_branches                            112742 |       112742 |       112742 |       112742 |       112742 |       112742 |       112742 |       236132 |       236132 |       236132 |       236132 |       236132 |       236132 |       236132 |       514852 |       514852 |       514852 |       514852 |       514852 |       514852 |       514852 |      1072748 |      1072748 |      1072748 |      1072748 |      1072748 |      1072748 |      1072748 |      2319451 |      2319451 |      2319451 |      2319451 |      2319451 |      2319451 |      2319451 |      4811355 |      4811355 |      4811355 |      4811355 |      4811355 |      4811355 |      4811355 |     10146683 |     10146683 |     10146683 |     10146683 |     10146683 |     10146683 |     10146683 |     30680527 |     30680527 |     30680527 |     30680527 |     30680527 |     30680527 |     30680527 |     67173448 |     67173448 |     67173448 |     67173448 |     67173448 |     67173448 |     67173448 |    145945751 |    145945751 |    145945751 |    145945751 |    145945751 |    145945751 |    145945751 |    314537546 |    314537546 |    314537546 |    314537546 |    314537546 |    314537546 |    314537546 |
sim_IPB                                     7.6146 |       7.6146 |       7.6146 |       7.6146 |       7.6146 |       7.6146 |       7.6146 |       7.4192 |       7.4192 |       7.4192 |       7.4192 |       7.4192 |       7.4192 |       7.4192 |       7.6920 |       7.6920 |       7.6920 |       7.6920 |       7.6920 |       7.6920 |       7.6920 |       7.5204 |       7.5204 |       7.5204 |       7.5204 |       7.5204 |       7.5204 |       7.5204 |       7.7530 |       7.7530 |       7.7530 |       7.7530 |       7.7530 |       7.7530 |       7.7530 |       7.5994 |       7.5994 |       7.5994 |       7.5994 |       7.5994 |       7.5994 |       7.5994 |       7.6326 |       7.6326 |       7.6326 |       7.6326 |       7.6326 |       7.6326 |       7.6326 |       7.2816 |       7.2816 |       7.2816 |       7.2816 |       7.2816 |       7.2816 |       7.2816 |       7.0437 |       7.0437 |       7.0437 |       7.0437 |       7.0437 |       7.0437 |       7.0437 |       7.0956 |       7.0956 |       7.0956 |       7.0956 |       7.0956 |       7.0956 |       7.0956 |       6.9516 |       6.9516 |       6.9516 |       6.9516 |       6.9516 |       6.9516 |       6.9516 |
bpred_bimod.lookups                         112742 |       112742 |       112742 |xxxxxxxxxxxxx |xxxxxxxxxxxxx |xxxxxxxxxxxxx |xxxxxxxxxxxxx |       236132 |       236132 |       236132 |xxxxxxxxxxxxx |xxxxxxxxxxxxx |xxxxxxxxxxxxx |xxxxxxxxxxxxx |       514852 |       514852 |       514852 |xxxxxxxxxxxxx |xxxxxxxxxxxxx |xxxxxxxxxxxxx |xxxxxxxxxxxxx |      1072748 |      1072748 |      1072748 |xxxxxxxxxxxxx |xxxxxxxxxxxxx |xxxxxxxxxxxxx |xxxxxxxxxxxxx |      2319451 |      2319451 |      2319451 |xxxxxxxxxxxxx |xxxxxxxxxxxxx |xxxxxxxxxxxxx |xxxxxxxxxxxxx |      4811355 |      4811355 |      4811355 |xxxxxxxxxxxxx |xxxxxxxxxxxxx |xxxxxxxxxxxxx |xxxxxxxxxxxxx |     10146683 |     10146683 |     10146683 |xxxxxxxxxxxxx |xxxxxxxxxxxxx |xxxxxxxxxxxxx |xxxxxxxxxxxxx |     30680527 |     30680527 |     30680527 |xxxxxxxxxxxxx |xxxxxxxxxxxxx |xxxxxxxxxxxxx |xxxxxxxxxxxxx |     67173448 |     67173448 |     67173448 |xxxxxxxxxxxxx |xxxxxxxxxxxxx |xxxxxxxxxxxxx |xxxxxxxxxxxxx |    145945751 |    145945751 |    145945751 |xxxxxxxxxxxxx |xxxxxxxxxxxxx |xxxxxxxxxxxxx |xxxxxxxxxxxxx |    314537546 |    314537546 |    314537546 |
bpred_bimod.updates                         112742 |       112742 |       112742 |xxxxxxxxxxxxx |xxxxxxxxxxxxx |xxxxxxxxxxxxx |xxxxxxxxxxxxx |       236132 |       236132 |       236132 |xxxxxxxxxxxxx |xxxxxxxxxxxxx |xxxxxxxxxxxxx |xxxxxxxxxxxxx |       514852 |       514852 |       514852 |xxxxxxxxxxxxx |xxxxxxxxxxxxx |xxxxxxxxxxxxx |xxxxxxxxxxxxx |      1072748 |      1072748 |      1072748 |xxxxxxxxxxxxx |xxxxxxxxxxxxx |xxxxxxxxxxxxx |xxxxxxxxxxxxx |      2319451 |      2319451 |      2319451 |xxxxxxxxxxxxx |xxxxxxxxxxxxx |xxxxxxxxxxxxx |xxxxxxxxxxxxx |      4811355 |      4811355 |      4811355 |xxxxxxxxxxxxx |xxxxxxxxxxxxx |xxxxxxxxxxxxx |xxxxxxxxxxxxx |     10146683 |     10146683 |     10146683 |xxxxxxxxxxxxx |xxxxxxxxxxxxx |xxxxxxxxxxxxx |xxxxxxxxxxxxx |     30680527 |     30680527 |     30680527 |xxxxxxxxxxxxx |xxxxxxxxxxxxx |xxxxxxxxxxxxx |xxxxxxxxxxxxx |     67173448 |     67173448 |     67173448 |xxxxxxxxxxxxx |xxxxxxxxxxxxx |xxxxxxxxxxxxx |xxxxxxxxxxxxx |    145945751 |    145945751 |    145945751 |xxxxxxxxxxxxx |xxxxxxxxxxxxx |xxxxxxxxxxxxx |xxxxxxxxxxxxx |    314537546 |    314537546 |    314537546 |
bpred_bimod.addr_hits                        87279 |        87288 |        87294 |xxxxxxxxxxxxx |xxxxxxxxxxxxx |xxxxxxxxxxxxx |xxxxxxxxxxxxx |       184570 |       184577 |       184580 |xxxxxxxxxxxxx |xxxxxxxxxxxxx |xxxxxxxxxxxxx |xxxxxxxxxxxxx |       397046 |       397070 |       397075 |xxxxxxxxxxxxx |xxxxxxxxxxxxx |xxxxxxxxxxxxx |xxxxxxxxxxxxx |       833975 |       833995 |       833999 |xxxxxxxxxxxxx |xxxxxxxxxxxxx |xxxxxxxxxxxxx |xxxxxxxxxxxxx |      1782061 |      1782140 |      1782144 |xxxxxxxxxxxxx |xxxxxxxxxxxxx |xxxxxxxxxxxxx |xxxxxxxxxxxxx |      3726648 |      3726699 |      3726703 |xxxxxxxxxxxxx |xxxxxxxxxxxxx |xxxxxxxxxxxxx |xxxxxxxxxxxxx |      7845475 |      7845580 |      7845653 |xxxxxxxxxxxxx |xxxxxxxxxxxxx |xxxxxxxxxxxxx |xxxxxxxxxxxxx |     24450637 |     24451143 |     24451146 |xxxxxxxxxxxxx |xxxxxxxxxxxxx |xxxxxxxxxxxxx |xxxxxxxxxxxxx |     54419774 |     54420140 |     54420138 |xxxxxxxxxxxxx |xxxxxxxxxxxxx |xxxxxxxxxxxxx |xxxxxxxxxxxxx |    116864444 |    116866475 |    116866482 |xxxxxxxxxxxxx |xxxxxxxxxxxxx |xxxxxxxxxxxxx |xxxxxxxxxxxxx |    252068271 |    252069618 |    252069636 |
bpred_bimod.dir_hits                         87426 |        87435 |        87440 |xxxxxxxxxxxxx |xxxxxxxxxxxxx |xxxxxxxxxxxxx |xxxxxxxxxxxxx |       184725 |       184730 |       184733 |xxxxxxxxxxxxx |xxxxxxxxxxxxx |xxxxxxxxxxxxx |xxxxxxxxxxxxx |       397196 |       397216 |       397221 |xxxxxxxxxxxxx |xxxxxxxxxxxxx |xxxxxxxxxxxxx |xxxxxxxxxxxxx |       834127 |       834147 |       834150 |xxxxxxxxxxxxx |xxxxxxxxxxxxx |xxxxxxxxxxxxx |xxxxxxxxxxxxx |      1782208 |      1782286 |      1782290 |xxxxxxxxxxxxx |xxxxxxxxxxxxx |xxxxxxxxxxxxx |xxxxxxxxxxxxx |      3726801 |      3726852 |      3726856 |xxxxxxxxxxxxx |xxxxxxxxxxxxx |xxxxxxxxxxxxx |xxxxxxxxxxxxx |      7845630 |      7845736 |      7845809 |xxxxxxxxxxxxx |xxxxxxxxxxxxx |xxxxxxxxxxxxx |xxxxxxxxxxxxx |     24450865 |     24451366 |     24451367 |xxxxxxxxxxxxx |xxxxxxxxxxxxx |xxxxxxxxxxxxx |xxxxxxxxxxxxx |     54420012 |     54420376 |     54420372 |xxxxxxxxxxxxx |xxxxxxxxxxxxx |xxxxxxxxxxxxx |xxxxxxxxxxxxx |    116864682 |    116866709 |    116866715 |xxxxxxxxxxxxx |xxxxxxxxxxxxx |xxxxxxxxxxxxx |xxxxxxxxxxxxx |    252068512 |    252069857 |    252069874 |
bpred_bimod.misses                           25316 |        25307 |        25302 |xxxxxxxxxxxxx |xxxxxxxxxxxxx |xxxxxxxxxxxxx |xxxxxxxxxxxxx |        51407 |        51402 |        51399 |xxxxxxxxxxxxx |xxxxxxxxxxxxx |xxxxxxxxxxxxx |xxxxxxxxxxxxx |       117656 |       117636 |       117631 |xxxxxxxxxxxxx |xxxxxxxxxxxxx |xxxxxxxxxxxxx |xxxxxxxxxxxxx |       238621 |       238601 |       238598 |xxxxxxxxxxxxx |xxxxxxxxxxxxx |xxxxxxxxxxxxx |xxxxxxxxxxxxx |       537243 |       537165 |       537161 |xxxxxxxxxxxxx |xxxxxxxxxxxxx |xxxxxxxxxxxxx |xxxxxxxxxxxxx |      1084554 |      1084503 |      1084499 |xxxxxxxxxxxxx |xxxxxxxxxxxxx |xxxxxxxxxxxxx |xxxxxxxxxxxxx |      2301053 |      2300947 |      2300874 |xxxxxxxxxxxxx |xxxxxxxxxxxxx |xxxxxxxxxxxxx |xxxxxxxxxxxxx |      6229662 |      6229161 |      6229160 |xxxxxxxxxxxxx |xxxxxxxxxxxxx |xxxxxxxxxxxxx |xxxxxxxxxxxxx |     12753436 |     12753072 |     12753076 |xxxxxxxxxxxxx |xxxxxxxxxxxxx |xxxxxxxxxxxxx |xxxxxxxxxxxxx |     29081069 |     29079042 |     29079036 |xxxxxxxxxxxxx |xxxxxxxxxxxxx |xxxxxxxxxxxxx |xxxxxxxxxxxxx |     62469034 |     62467689 |     62467672 |
bpred_bimod.jr_hits                             79 |           79 |           79 |xxxxxxxxxxxxx |xxxxxxxxxxxxx |xxxxxxxxxxxxx |xxxxxxxxxxxxx |           87 |           87 |           87 |xxxxxxxxxxxxx |xxxxxxxxxxxxx |xxxxxxxxxxxxx |xxxxxxxxxxxxx |          103 |          103 |          103 |xxxxxxxxxxxxx |xxxxxxxxxxxxx |xxxxxxxxxxxxx |xxxxxxxxxxxxx |          135 |          135 |          135 |xxxxxxxxxxxxx |xxxxxxxxxxxxx |xxxxxxxxxxxxx |xxxxxxxxxxxxx |          199 |          199 |          199 |xxxxxxxxxxxxx |xxxxxxxxxxxxx |xxxxxxxxxxxxx |xxxxxxxxxxxxx |          327 |          327 |          327 |xxxxxxxxxxxxx |xxxxxxxxxxxxx |xxxxxxxxxxxxx |xxxxxxxxxxxxx |          583 |          583 |          583 |xxxxxxxxxxxxx |xxxxxxxxxxxxx |xxxxxxxxxxxxx |xxxxxxxxxxxxx |       525413 |       525413 |       525413 |xxxxxxxxxxxxx |xxxxxxxxxxxxx |xxxxxxxxxxxxx |xxxxxxxxxxxxx |      1050727 |      1050727 |      1050727 |xxxxxxxxxxxxx |xxxxxxxxxxxxx |xxxxxxxxxxxxx |xxxxxxxxxxxxx |      2101355 |      2101355 |      2101355 |xxxxxxxxxxxxx |xxxxxxxxxxxxx |xxxxxxxxxxxxx |xxxxxxxxxxxxx |      4202611 |      4202611 |      4202611 |
bpred_bimod.jr_seen                             80 |           80 |           80 |xxxxxxxxxxxxx |xxxxxxxxxxxxx |xxxxxxxxxxxxx |xxxxxxxxxxxxx |           88 |           88 |           88 |xxxxxxxxxxxxx |xxxxxxxxxxxxx |xxxxxxxxxxxxx |xxxxxxxxxxxxx |          104 |          104 |          104 |xxxxxxxxxxxxx |xxxxxxxxxxxxx |xxxxxxxxxxxxx |xxxxxxxxxxxxx |          136 |          136 |          136 |xxxxxxxxxxxxx |xxxxxxxxxxxxx |xxxxxxxxxxxxx |xxxxxxxxxxxxx |          200 |          200 |          200 |xxxxxxxxxxxxx |xxxxxxxxxxxxx |xxxxxxxxxxxxx |xxxxxxxxxxxxx |          328 |          328 |          328 |xxxxxxxxxxxxx |xxxxxxxxxxxxx |xxxxxxxxxxxxx |xxxxxxxxxxxxx |          584 |          584 |          584 |xxxxxxxxxxxxx |xxxxxxxxxxxxx |xxxxxxxxxxxxx |xxxxxxxxxxxxx |       525414 |       525414 |       525414 |xxxxxxxxxxxxx |xxxxxxxxxxxxx |xxxxxxxxxxxxx |xxxxxxxxxxxxx |      1050728 |      1050728 |      1050728 |xxxxxxxxxxxxx |xxxxxxxxxxxxx |xxxxxxxxxxxxx |xxxxxxxxxxxxx |      2101356 |      2101356 |      2101356 |xxxxxxxxxxxxx |xxxxxxxxxxxxx |xxxxxxxxxxxxx |xxxxxxxxxxxxx |      4202612 |      4202612 |      4202612 |
bpred_bimod.jr_non_ras_hits.PP                   0 |            0 |            0 |xxxxxxxxxxxxx |xxxxxxxxxxxxx |xxxxxxxxxxxxx |xxxxxxxxxxxxx |            0 |            0 |            0 |xxxxxxxxxxxxx |xxxxxxxxxxxxx |xxxxxxxxxxxxx |xxxxxxxxxxxxx |            0 |            0 |            0 |xxxxxxxxxxxxx |xxxxxxxxxxxxx |xxxxxxxxxxxxx |xxxxxxxxxxxxx |            0 |            0 |            0 |xxxxxxxxxxxxx |xxxxxxxxxxxxx |xxxxxxxxxxxxx |xxxxxxxxxxxxx |            0 |            0 |            0 |xxxxxxxxxxxxx |xxxxxxxxxxxxx |xxxxxxxxxxxxx |xxxxxxxxxxxxx |            0 |            0 |            0 |xxxxxxxxxxxxx |xxxxxxxxxxxxx |xxxxxxxxxxxxx |xxxxxxxxxxxxx |            0 |            0 |            0 |xxxxxxxxxxxxx |xxxxxxxxxxxxx |xxxxxxxxxxxxx |xxxxxxxxxxxxx |            0 |            0 |            0 |xxxxxxxxxxxxx |xxxxxxxxxxxxx |xxxxxxxxxxxxx |xxxxxxxxxxxxx |            0 |            0 |            0 |xxxxxxxxxxxxx |xxxxxxxxxxxxx |xxxxxxxxxxxxx |xxxxxxxxxxxxx |            0 |            0 |            0 |xxxxxxxxxxxxx |xxxxxxxxxxxxx |xxxxxxxxxxxxx |xxxxxxxxxxxxx |            0 |            0 |            0 |
bpred_bimod.jr_non_ras_seen.PP                   0 |            0 |            0 |xxxxxxxxxxxxx |xxxxxxxxxxxxx |xxxxxxxxxxxxx |xxxxxxxxxxxxx |            0 |            0 |            0 |xxxxxxxxxxxxx |xxxxxxxxxxxxx |xxxxxxxxxxxxx |xxxxxxxxxxxxx |            0 |            0 |            0 |xxxxxxxxxxxxx |xxxxxxxxxxxxx |xxxxxxxxxxxxx |xxxxxxxxxxxxx |            0 |            0 |            0 |xxxxxxxxxxxxx |xxxxxxxxxxxxx |xxxxxxxxxxxxx |xxxxxxxxxxxxx |            0 |            0 |            0 |xxxxxxxxxxxxx |xxxxxxxxxxxxx |xxxxxxxxxxxxx |xxxxxxxxxxxxx |            0 |            0 |            0 |xxxxxxxxxxxxx |xxxxxxxxxxxxx |xxxxxxxxxxxxx |xxxxxxxxxxxxx |            0 |            0 |            0 |xxxxxxxxxxxxx |xxxxxxxxxxxxx |xxxxxxxxxxxxx |xxxxxxxxxxxxx |            1 |            1 |            1 |xxxxxxxxxxxxx |xxxxxxxxxxxxx |xxxxxxxxxxxxx |xxxxxxxxxxxxx |            1 |            1 |            1 |xxxxxxxxxxxxx |xxxxxxxxxxxxx |xxxxxxxxxxxxx |xxxxxxxxxxxxx |            1 |            1 |            1 |xxxxxxxxxxxxx |xxxxxxxxxxxxx |xxxxxxxxxxxxx |xxxxxxxxxxxxx |            1 |            1 |            1 |
bpred_bimod.bpred_addr_rate                 0.7741 |       0.7742 |       0.7743 |xxxxxxxxxxxxx |xxxxxxxxxxxxx |xxxxxxxxxxxxx |xxxxxxxxxxxxx |       0.7816 |       0.7817 |       0.7817 |xxxxxxxxxxxxx |xxxxxxxxxxxxx |xxxxxxxxxxxxx |xxxxxxxxxxxxx |       0.7712 |       0.7712 |       0.7712 |xxxxxxxxxxxxx |xxxxxxxxxxxxx |xxxxxxxxxxxxx |xxxxxxxxxxxxx |       0.7774 |       0.7774 |       0.7774 |xxxxxxxxxxxxx |xxxxxxxxxxxxx |xxxxxxxxxxxxx |xxxxxxxxxxxxx |       0.7683 |       0.7683 |       0.7683 |xxxxxxxxxxxxx |xxxxxxxxxxxxx |xxxxxxxxxxxxx |xxxxxxxxxxxxx |       0.7746 |       0.7746 |       0.7746 |xxxxxxxxxxxxx |xxxxxxxxxxxxx |xxxxxxxxxxxxx |xxxxxxxxxxxxx |       0.7732 |       0.7732 |       0.7732 |xxxxxxxxxxxxx |xxxxxxxxxxxxx |xxxxxxxxxxxxx |xxxxxxxxxxxxx |       0.7969 |       0.7970 |       0.7970 |xxxxxxxxxxxxx |xxxxxxxxxxxxx |xxxxxxxxxxxxx |xxxxxxxxxxxxx |       0.8101 |       0.8101 |       0.8101 |xxxxxxxxxxxxx |xxxxxxxxxxxxx |xxxxxxxxxxxxx |xxxxxxxxxxxxx |       0.8007 |       0.8008 |       0.8008 |xxxxxxxxxxxxx |xxxxxxxxxxxxx |xxxxxxxxxxxxx |xxxxxxxxxxxxx |       0.8014 |       0.8014 |       0.8014 |
bpred_bimod.bpred_dir_rate                  0.7755 |       0.7755 |       0.7756 |xxxxxxxxxxxxx |xxxxxxxxxxxxx |xxxxxxxxxxxxx |xxxxxxxxxxxxx |       0.7823 |       0.7823 |       0.7823 |xxxxxxxxxxxxx |xxxxxxxxxxxxx |xxxxxxxxxxxxx |xxxxxxxxxxxxx |       0.7715 |       0.7715 |       0.7715 |xxxxxxxxxxxxx |xxxxxxxxxxxxx |xxxxxxxxxxxxx |xxxxxxxxxxxxx |       0.7776 |       0.7776 |       0.7776 |xxxxxxxxxxxxx |xxxxxxxxxxxxx |xxxxxxxxxxxxx |xxxxxxxxxxxxx |       0.7684 |       0.7684 |       0.7684 |xxxxxxxxxxxxx |xxxxxxxxxxxxx |xxxxxxxxxxxxx |xxxxxxxxxxxxx |       0.7746 |       0.7746 |       0.7746 |xxxxxxxxxxxxx |xxxxxxxxxxxxx |xxxxxxxxxxxxx |xxxxxxxxxxxxx |       0.7732 |       0.7732 |       0.7732 |xxxxxxxxxxxxx |xxxxxxxxxxxxx |xxxxxxxxxxxxx |xxxxxxxxxxxxx |       0.7970 |       0.7970 |       0.7970 |xxxxxxxxxxxxx |xxxxxxxxxxxxx |xxxxxxxxxxxxx |xxxxxxxxxxxxx |       0.8101 |       0.8101 |       0.8101 |xxxxxxxxxxxxx |xxxxxxxxxxxxx |xxxxxxxxxxxxx |xxxxxxxxxxxxx |       0.8007 |       0.8008 |       0.8008 |xxxxxxxxxxxxx |xxxxxxxxxxxxx |xxxxxxxxxxxxx |xxxxxxxxxxxxx |       0.8014 |       0.8014 |       0.8014 |
bpred_bimod.bpred_jr_rate                   0.9875 |       0.9875 |       0.9875 |xxxxxxxxxxxxx |xxxxxxxxxxxxx |xxxxxxxxxxxxx |xxxxxxxxxxxxx |       0.9886 |       0.9886 |       0.9886 |xxxxxxxxxxxxx |xxxxxxxxxxxxx |xxxxxxxxxxxxx |xxxxxxxxxxxxx |       0.9904 |       0.9904 |       0.9904 |xxxxxxxxxxxxx |xxxxxxxxxxxxx |xxxxxxxxxxxxx |xxxxxxxxxxxxx |       0.9926 |       0.9926 |       0.9926 |xxxxxxxxxxxxx |xxxxxxxxxxxxx |xxxxxxxxxxxxx |xxxxxxxxxxxxx |       0.9950 |       0.9950 |       0.9950 |xxxxxxxxxxxxx |xxxxxxxxxxxxx |xxxxxxxxxxxxx |xxxxxxxxxxxxx |       0.9970 |       0.9970 |       0.9970 |xxxxxxxxxxxxx |xxxxxxxxxxxxx |xxxxxxxxxxxxx |xxxxxxxxxxxxx |       0.9983 |       0.9983 |       0.9983 |xxxxxxxxxxxxx |xxxxxxxxxxxxx |xxxxxxxxxxxxx |xxxxxxxxxxxxx |       1.0000 |       1.0000 |       1.0000 |xxxxxxxxxxxxx |xxxxxxxxxxxxx |xxxxxxxxxxxxx |xxxxxxxxxxxxx |       1.0000 |       1.0000 |       1.0000 |xxxxxxxxxxxxx |xxxxxxxxxxxxx |xxxxxxxxxxxxx |xxxxxxxxxxxxx |       1.0000 |       1.0000 |       1.0000 |xxxxxxxxxxxxx |xxxxxxxxxxxxx |xxxxxxxxxxxxx |xxxxxxxxxxxxx |       1.0000 |       1.0000 |       1.0000 |
bpred_bimod.bpred_jr_non_ras_rate.PP       <error: |      <error: |      <error: |xxxxxxxxxxxxx |xxxxxxxxxxxxx |xxxxxxxxxxxxx |xxxxxxxxxxxxx |      <error: |      <error: |      <error: |xxxxxxxxxxxxx |xxxxxxxxxxxxx |xxxxxxxxxxxxx |xxxxxxxxxxxxx |      <error: |      <error: |      <error: |xxxxxxxxxxxxx |xxxxxxxxxxxxx |xxxxxxxxxxxxx |xxxxxxxxxxxxx |      <error: |      <error: |      <error: |xxxxxxxxxxxxx |xxxxxxxxxxxxx |xxxxxxxxxxxxx |xxxxxxxxxxxxx |      <error: |      <error: |      <error: |xxxxxxxxxxxxx |xxxxxxxxxxxxx |xxxxxxxxxxxxx |xxxxxxxxxxxxx |      <error: |      <error: |      <error: |xxxxxxxxxxxxx |xxxxxxxxxxxxx |xxxxxxxxxxxxx |xxxxxxxxxxxxx |      <error: |      <error: |      <error: |xxxxxxxxxxxxx |xxxxxxxxxxxxx |xxxxxxxxxxxxx |xxxxxxxxxxxxx |       0.0000 |       0.0000 |       0.0000 |xxxxxxxxxxxxx |xxxxxxxxxxxxx |xxxxxxxxxxxxx |xxxxxxxxxxxxx |       0.0000 |       0.0000 |       0.0000 |xxxxxxxxxxxxx |xxxxxxxxxxxxx |xxxxxxxxxxxxx |xxxxxxxxxxxxx |       0.0000 |       0.0000 |       0.0000 |xxxxxxxxxxxxx |xxxxxxxxxxxxx |xxxxxxxxxxxxx |xxxxxxxxxxxxx |       0.0000 |       0.0000 |       0.0000 |
bpred_bimod.retstack_pushes                     82 |           82 |           82 |xxxxxxxxxxxxx |xxxxxxxxxxxxx |xxxxxxxxxxxxx |xxxxxxxxxxxxx |           90 |           90 |           90 |xxxxxxxxxxxxx |xxxxxxxxxxxxx |xxxxxxxxxxxxx |xxxxxxxxxxxxx |          106 |          106 |          106 |xxxxxxxxxxxxx |xxxxxxxxxxxxx |xxxxxxxxxxxxx |xxxxxxxxxxxxx |          138 |          138 |          138 |xxxxxxxxxxxxx |xxxxxxxxxxxxx |xxxxxxxxxxxxx |xxxxxxxxxxxxx |          202 |          202 |          202 |xxxxxxxxxxxxx |xxxxxxxxxxxxx |xxxxxxxxxxxxx |xxxxxxxxxxxxx |          330 |          330 |          330 |xxxxxxxxxxxxx |xxxxxxxxxxxxx |xxxxxxxxxxxxx |xxxxxxxxxxxxx |          586 |          586 |          586 |xxxxxxxxxxxxx |xxxxxxxxxxxxx |xxxxxxxxxxxxx |xxxxxxxxxxxxx |       525415 |       525415 |       525415 |xxxxxxxxxxxxx |xxxxxxxxxxxxx |xxxxxxxxxxxxx |xxxxxxxxxxxxx |      1050729 |      1050729 |      1050729 |xxxxxxxxxxxxx |xxxxxxxxxxxxx |xxxxxxxxxxxxx |xxxxxxxxxxxxx |      2101357 |      2101357 |      2101357 |xxxxxxxxxxxxx |xxxxxxxxxxxxx |xxxxxxxxxxxxx |xxxxxxxxxxxxx |      4202613 |      4202613 |      4202613 |
bpred_bimod.retstack_pops                       80 |           80 |           80 |xxxxxxxxxxxxx |xxxxxxxxxxxxx |xxxxxxxxxxxxx |xxxxxxxxxxxxx |           88 |           88 |           88 |xxxxxxxxxxxxx |xxxxxxxxxxxxx |xxxxxxxxxxxxx |xxxxxxxxxxxxx |          104 |          104 |          104 |xxxxxxxxxxxxx |xxxxxxxxxxxxx |xxxxxxxxxxxxx |xxxxxxxxxxxxx |          136 |          136 |          136 |xxxxxxxxxxxxx |xxxxxxxxxxxxx |xxxxxxxxxxxxx |xxxxxxxxxxxxx |          200 |          200 |          200 |xxxxxxxxxxxxx |xxxxxxxxxxxxx |xxxxxxxxxxxxx |xxxxxxxxxxxxx |          328 |          328 |          328 |xxxxxxxxxxxxx |xxxxxxxxxxxxx |xxxxxxxxxxxxx |xxxxxxxxxxxxx |          584 |          584 |          584 |xxxxxxxxxxxxx |xxxxxxxxxxxxx |xxxxxxxxxxxxx |xxxxxxxxxxxxx |       525413 |       525413 |       525413 |xxxxxxxxxxxxx |xxxxxxxxxxxxx |xxxxxxxxxxxxx |xxxxxxxxxxxxx |      1050727 |      1050727 |      1050727 |xxxxxxxxxxxxx |xxxxxxxxxxxxx |xxxxxxxxxxxxx |xxxxxxxxxxxxx |      2101355 |      2101355 |      2101355 |xxxxxxxxxxxxx |xxxxxxxxxxxxx |xxxxxxxxxxxxx |xxxxxxxxxxxxx |      4202611 |      4202611 |      4202611 |
bpred_bimod.used_ras.PP                         80 |           80 |           80 |xxxxxxxxxxxxx |xxxxxxxxxxxxx |xxxxxxxxxxxxx |xxxxxxxxxxxxx |           88 |           88 |           88 |xxxxxxxxxxxxx |xxxxxxxxxxxxx |xxxxxxxxxxxxx |xxxxxxxxxxxxx |          104 |          104 |          104 |xxxxxxxxxxxxx |xxxxxxxxxxxxx |xxxxxxxxxxxxx |xxxxxxxxxxxxx |          136 |          136 |          136 |xxxxxxxxxxxxx |xxxxxxxxxxxxx |xxxxxxxxxxxxx |xxxxxxxxxxxxx |          200 |          200 |          200 |xxxxxxxxxxxxx |xxxxxxxxxxxxx |xxxxxxxxxxxxx |xxxxxxxxxxxxx |          328 |          328 |          328 |xxxxxxxxxxxxx |xxxxxxxxxxxxx |xxxxxxxxxxxxx |xxxxxxxxxxxxx |          584 |          584 |          584 |xxxxxxxxxxxxx |xxxxxxxxxxxxx |xxxxxxxxxxxxx |xxxxxxxxxxxxx |       525413 |       525413 |       525413 |xxxxxxxxxxxxx |xxxxxxxxxxxxx |xxxxxxxxxxxxx |xxxxxxxxxxxxx |      1050727 |      1050727 |      1050727 |xxxxxxxxxxxxx |xxxxxxxxxxxxx |xxxxxxxxxxxxx |xxxxxxxxxxxxx |      2101355 |      2101355 |      2101355 |xxxxxxxxxxxxx |xxxxxxxxxxxxx |xxxxxxxxxxxxx |xxxxxxxxxxxxx |      4202611 |      4202611 |      4202611 |
bpred_bimod.ras_hits.PP                         79 |           79 |           79 |xxxxxxxxxxxxx |xxxxxxxxxxxxx |xxxxxxxxxxxxx |xxxxxxxxxxxxx |           87 |           87 |           87 |xxxxxxxxxxxxx |xxxxxxxxxxxxx |xxxxxxxxxxxxx |xxxxxxxxxxxxx |          103 |          103 |          103 |xxxxxxxxxxxxx |xxxxxxxxxxxxx |xxxxxxxxxxxxx |xxxxxxxxxxxxx |          135 |          135 |          135 |xxxxxxxxxxxxx |xxxxxxxxxxxxx |xxxxxxxxxxxxx |xxxxxxxxxxxxx |          199 |          199 |          199 |xxxxxxxxxxxxx |xxxxxxxxxxxxx |xxxxxxxxxxxxx |xxxxxxxxxxxxx |          327 |          327 |          327 |xxxxxxxxxxxxx |xxxxxxxxxxxxx |xxxxxxxxxxxxx |xxxxxxxxxxxxx |          583 |          583 |          583 |xxxxxxxxxxxxx |xxxxxxxxxxxxx |xxxxxxxxxxxxx |xxxxxxxxxxxxx |       525413 |       525413 |       525413 |xxxxxxxxxxxxx |xxxxxxxxxxxxx |xxxxxxxxxxxxx |xxxxxxxxxxxxx |      1050727 |      1050727 |      1050727 |xxxxxxxxxxxxx |xxxxxxxxxxxxx |xxxxxxxxxxxxx |xxxxxxxxxxxxx |      2101355 |      2101355 |      2101355 |xxxxxxxxxxxxx |xxxxxxxxxxxxx |xxxxxxxxxxxxx |xxxxxxxxxxxxx |      4202611 |      4202611 |      4202611 |
bpred_bimod.ras_rate.PP                     0.9875 |       0.9875 |       0.9875 |xxxxxxxxxxxxx |xxxxxxxxxxxxx |xxxxxxxxxxxxx |xxxxxxxxxxxxx |       0.9886 |       0.9886 |       0.9886 |xxxxxxxxxxxxx |xxxxxxxxxxxxx |xxxxxxxxxxxxx |xxxxxxxxxxxxx |       0.9904 |       0.9904 |       0.9904 |xxxxxxxxxxxxx |xxxxxxxxxxxxx |xxxxxxxxxxxxx |xxxxxxxxxxxxx |       0.9926 |       0.9926 |       0.9926 |xxxxxxxxxxxxx |xxxxxxxxxxxxx |xxxxxxxxxxxxx |xxxxxxxxxxxxx |       0.9950 |       0.9950 |       0.9950 |xxxxxxxxxxxxx |xxxxxxxxxxxxx |xxxxxxxxxxxxx |xxxxxxxxxxxxx |       0.9970 |       0.9970 |       0.9970 |xxxxxxxxxxxxx |xxxxxxxxxxxxx |xxxxxxxxxxxxx |xxxxxxxxxxxxx |       0.9983 |       0.9983 |       0.9983 |xxxxxxxxxxxxx |xxxxxxxxxxxxx |xxxxxxxxxxxxx |xxxxxxxxxxxxx |       1.0000 |       1.0000 |       1.0000 |xxxxxxxxxxxxx |xxxxxxxxxxxxx |xxxxxxxxxxxxx |xxxxxxxxxxxxx |       1.0000 |       1.0000 |       1.0000 |xxxxxxxxxxxxx |xxxxxxxxxxxxx |xxxxxxxxxxxxx |xxxxxxxxxxxxx |       1.0000 |       1.0000 |       1.0000 |xxxxxxxxxxxxx |xxxxxxxxxxxxx |xxxxxxxxxxxxx |xxxxxxxxxxxxx |       1.0000 |       1.0000 |       1.0000 |
bpred_2lev.lookups                   xxxxxxxxxxxxx |xxxxxxxxxxxxx |xxxxxxxxxxxxx |       112742 |       112742 |       112742 |       112742 |xxxxxxxxxxxxx |xxxxxxxxxxxxx |xxxxxxxxxxxxx |       236132 |       236132 |       236132 |       236132 |xxxxxxxxxxxxx |xxxxxxxxxxxxx |xxxxxxxxxxxxx |       514852 |       514852 |       514852 |       514852 |xxxxxxxxxxxxx |xxxxxxxxxxxxx |xxxxxxxxxxxxx |      1072748 |      1072748 |      1072748 |      1072748 |xxxxxxxxxxxxx |xxxxxxxxxxxxx |xxxxxxxxxxxxx |      2319451 |      2319451 |      2319451 |      2319451 |xxxxxxxxxxxxx |xxxxxxxxxxxxx |xxxxxxxxxxxxx |      4811355 |      4811355 |      4811355 |      4811355 |xxxxxxxxxxxxx |xxxxxxxxxxxxx |xxxxxxxxxxxxx |     10146683 |     10146683 |     10146683 |     10146683 |xxxxxxxxxxxxx |xxxxxxxxxxxxx |xxxxxxxxxxxxx |     30680527 |     30680527 |     30680527 |     30680527 |xxxxxxxxxxxxx |xxxxxxxxxxxxx |xxxxxxxxxxxxx |     67173448 |     67173448 |     67173448 |     67173448 |xxxxxxxxxxxxx |xxxxxxxxxxxxx |xxxxxxxxxxxxx |    145945751 |    145945751 |    145945751 |    145945751 |xxxxxxxxxxxxx |xxxxxxxxxxxxx |xxxxxxxxxxxxx |    314537546 |    314537546 |    314537546 |    314537546 |
[...]
bpred_2lev.used_ras.PP               xxxxxxxxxxxxx |xxxxxxxxxxxxx |xxxxxxxxxxxxx |           80 |           80 |           80 |           80 |xxxxxxxxxxxxx |xxxxxxxxxxxxx |xxxxxxxxxxxxx |           88 |           88 |           88 |           88 |xxxxxxxxxxxxx |xxxxxxxxxxxxx |xxxxxxxxxxxxx |          104 |          104 |          104 |          104 |xxxxxxxxxxxxx |xxxxxxxxxxxxx |xxxxxxxxxxxxx |          136 |          136 |          136 |          136 |xxxxxxxxxxxxx |xxxxxxxxxxxxx |xxxxxxxxxxxxx |          200 |          200 |          200 |          200 |xxxxxxxxxxxxx |xxxxxxxxxxxxx |xxxxxxxxxxxxx |          328 |          328 |          328 |          328 |xxxxxxxxxxxxx |xxxxxxxxxxxxx |xxxxxxxxxxxxx |          584 |          584 |          584 |          584 |xxxxxxxxxxxxx |xxxxxxxxxxxxx |xxxxxxxxxxxxx |       525413 |       525413 |       525413 |       525413 |xxxxxxxxxxxxx |xxxxxxxxxxxxx |xxxxxxxxxxxxx |      1050727 |      1050727 |      1050727 |      1050727 |xxxxxxxxxxxxx |xxxxxxxxxxxxx |xxxxxxxxxxxxx |      2101355 |      2101355 |      2101355 |      2101355 |xxxxxxxxxxxxx |xxxxxxxxxxxxx |xxxxxxxxxxxxx |      4202611 |      4202611 |      4202611 |      4202611 |
bpred_2lev.ras_hits.PP               xxxxxxxxxxxxx |xxxxxxxxxxxxx |xxxxxxxxxxxxx |           79 |           79 |           79 |           79 |xxxxxxxxxxxxx |xxxxxxxxxxxxx |xxxxxxxxxxxxx |           87 |           87 |           87 |           87 |xxxxxxxxxxxxx |xxxxxxxxxxxxx |xxxxxxxxxxxxx |          103 |          103 |          103 |          103 |xxxxxxxxxxxxx |xxxxxxxxxxxxx |xxxxxxxxxxxxx |          135 |          135 |          135 |          135 |xxxxxxxxxxxxx |xxxxxxxxxxxxx |xxxxxxxxxxxxx |          199 |          199 |          199 |          199 |xxxxxxxxxxxxx |xxxxxxxxxxxxx |xxxxxxxxxxxxx |          327 |          327 |          327 |          327 |xxxxxxxxxxxxx |xxxxxxxxxxxxx |xxxxxxxxxxxxx |          583 |          583 |          583 |          583 |xxxxxxxxxxxxx |xxxxxxxxxxxxx |xxxxxxxxxxxxx |       525413 |       525413 |       525413 |       525413 |xxxxxxxxxxxxx |xxxxxxxxxxxxx |xxxxxxxxxxxxx |      1050727 |      1050727 |      1050727 |      1050727 |xxxxxxxxxxxxx |xxxxxxxxxxxxx |xxxxxxxxxxxxx |      2101355 |      2101355 |      2101355 |      2101355 |xxxxxxxxxxxxx |xxxxxxxxxxxxx |xxxxxxxxxxxxx |      4202611 |      4202611 |      4202611 |      4202611 |
bpred_2lev.ras_rate.PP               xxxxxxxxxxxxx |xxxxxxxxxxxxx |xxxxxxxxxxxxx |       0.9875 |       0.9875 |       0.9875 |       0.9875 |xxxxxxxxxxxxx |xxxxxxxxxxxxx |xxxxxxxxxxxxx |       0.9886 |       0.9886 |       0.9886 |       0.9886 |xxxxxxxxxxxxx |xxxxxxxxxxxxx |xxxxxxxxxxxxx |       0.9904 |       0.9904 |       0.9904 |       0.9904 |xxxxxxxxxxxxx |xxxxxxxxxxxxx |xxxxxxxxxxxxx |       0.9926 |       0.9926 |       0.9926 |       0.9926 |xxxxxxxxxxxxx |xxxxxxxxxxxxx |xxxxxxxxxxxxx |       0.9950 |       0.9950 |       0.9950 |       0.9950 |xxxxxxxxxxxxx |xxxxxxxxxxxxx |xxxxxxxxxxxxx |       0.9970 |       0.9970 |       0.9970 |       0.9970 |xxxxxxxxxxxxx |xxxxxxxxxxxxx |xxxxxxxxxxxxx |       0.9983 |       0.9983 |       0.9983 |       0.9983 |xxxxxxxxxxxxx |xxxxxxxxxxxxx |xxxxxxxxxxxxx |       1.0000 |       1.0000 |       1.0000 |       1.0000 |xxxxxxxxxxxxx |xxxxxxxxxxxxx |xxxxxxxxxxxxx |       1.0000 |       1.0000 |       1.0000 |       1.0000 |xxxxxxxxxxxxx |xxxxxxxxxxxxx |xxxxxxxxxxxxx |       1.0000 |       1.0000 |       1.0000 |       1.0000 |xxxxxxxxxxxxx |xxxxxxxxxxxxx |xxxxxxxxxxxxx |       1.0000 |       1.0000 |       1.0000 |       1.0000 |

Command list: 
	sslittle-na-sstrix-gcc -Wall -O3 -funroll-loops -finline-functions  -DRANDOM_SIZE=4096 -DOFFSET=1 -DSORT=double_aligned_multi_mergsort sorts/double_aligned_multi_mergsort1978136544.c simpleMain.c -o double_aligned_multi_mergsort1010149249
	sim-cache -cache:dl1 dl1:256:32:1:l -cache:dl2 dl2:131072:32:1:l -cache:il1 il1:256:32:1:l -cache:il2 dl2 double_aligned_multi_mergsort1010149249
	sim-cache -cache:dl1 dl1:256:32:1:l -cache:dl2 dl2:65536:32:1:l -cache:il1 il1:256:32:1:l -cache:il2 dl2 double_aligned_multi_mergsort1010149249
	sim-cache -cache:dl1 dl1:1:32:256:l -cache:dl2 dl2:1:32:131072:l -cache:il1 il1:1:32:256:l -cache:il2 dl2 double_aligned_multi_mergsort1010149249
	sim-cache -cache:dl1 dl1:1:32:256:l -cache:dl2 dl2:1:32:65536:l -cache:il1 il1:1:32:256:l -cache:il2 dl2 double_aligned_multi_mergsort1010149249
	sim-bpred -bpred bimod -bpred:bimod 512 double_aligned_multi_mergsort1010149249
	sim-bpred -bpred bimod -bpred:bimod 1024 double_aligned_multi_mergsort1010149249
	sim-bpred -bpred bimod -bpred:bimod 2048 double_aligned_multi_mergsort1010149249
	sim-bpred -bpred 2lev -bpred:2lev 1 512 10 1 double_aligned_multi_mergsort1010149249
	sim-bpred -bpred 2lev -bpred:2lev 1 1024 10 1 double_aligned_multi_mergsort1010149249
	sim-bpred -bpred 2lev -bpred:2lev 1 2048 10 1 double_aligned_multi_mergsort1010149249
	sim-bpred -bpred 2lev -bpred:2lev 1 4096 10 1 double_aligned_multi_mergsort1010149249
	sslittle-na-sstrix-gcc -Wall -O3 -funroll-loops -finline-functions  -DRANDOM_SIZE=8192 -DOFFSET=1 -DSORT=double_aligned_multi_mergsort sorts/double_aligned_multi_mergsort1978136544.c simpleMain.c -o double_aligned_multi_mergsort1010149249
	sim-cache -cache:dl1 dl1:256:32:1:l -cache:dl2 dl2:131072:32:1:l -cache:il1 il1:256:32:1:l -cache:il2 dl2 double_aligned_multi_mergsort1010149249
	sim-cache -cache:dl1 dl1:256:32:1:l -cache:dl2 dl2:65536:32:1:l -cache:il1 il1:256:32:1:l -cache:il2 dl2 double_aligned_multi_mergsort1010149249
	sim-cache -cache:dl1 dl1:1:32:256:l -cache:dl2 dl2:1:32:131072:l -cache:il1 il1:1:32:256:l -cache:il2 dl2 double_aligned_multi_mergsort1010149249
	sim-cache -cache:dl1 dl1:1:32:256:l -cache:dl2 dl2:1:32:65536:l -cache:il1 il1:1:32:256:l -cache:il2 dl2 double_aligned_multi_mergsort1010149249
	sim-bpred -bpred bimod -bpred:bimod 512 double_aligned_multi_mergsort1010149249
	sim-bpred -bpred bimod -bpred:bimod 1024 double_aligned_multi_mergsort1010149249
	sim-bpred -bpred bimod -bpred:bimod 2048 double_aligned_multi_mergsort1010149249
	sim-bpred -bpred 2lev -bpred:2lev 1 512 10 1 double_aligned_multi_mergsort1010149249
	sim-bpred -bpred 2lev -bpred:2lev 1 1024 10 1 double_aligned_multi_mergsort1010149249
	sim-bpred -bpred 2lev -bpred:2lev 1 2048 10 1 double_aligned_multi_mergsort1010149249
	sim-bpred -bpred 2lev -bpred:2lev 1 4096 10 1 double_aligned_multi_mergsort1010149249
	sslittle-na-sstrix-gcc -Wall -O3 -funroll-loops -finline-functions  -DRANDOM_SIZE=16384 -DOFFSET=1 -DSORT=double_aligned_multi_mergsort sorts/double_aligned_multi_mergsort1978136544.c simpleMain.c -o double_aligned_multi_mergsort1010149249
	sim-cache -cache:dl1 dl1:256:32:1:l -cache:dl2 dl2:131072:32:1:l -cache:il1 il1:256:32:1:l -cache:il2 dl2 double_aligned_multi_mergsort1010149249
	sim-cache -cache:dl1 dl1:256:32:1:l -cache:dl2 dl2:65536:32:1:l -cache:il1 il1:256:32:1:l -cache:il2 dl2 double_aligned_multi_mergsort1010149249
	sim-cache -cache:dl1 dl1:1:32:256:l -cache:dl2 dl2:1:32:131072:l -cache:il1 il1:1:32:256:l -cache:il2 dl2 double_aligned_multi_mergsort1010149249
	sim-cache -cache:dl1 dl1:1:32:256:l -cache:dl2 dl2:1:32:65536:l -cache:il1 il1:1:32:256:l -cache:il2 dl2 double_aligned_multi_mergsort1010149249
	sim-bpred -bpred bimod -bpred:bimod 512 double_aligned_multi_mergsort1010149249
	sim-bpred -bpred bimod -bpred:bimod 1024 double_aligned_multi_mergsort1010149249
	sim-bpred -bpred bimod -bpred:bimod 2048 double_aligned_multi_mergsort1010149249
	sim-bpred -bpred 2lev -bpred:2lev 1 512 10 1 double_aligned_multi_mergsort1010149249
	sim-bpred -bpred 2lev -bpred:2lev 1 1024 10 1 double_aligned_multi_mergsort1010149249
	sim-bpred -bpred 2lev -bpred:2lev 1 2048 10 1 double_aligned_multi_mergsort1010149249
	sim-bpred -bpred 2lev -bpred:2lev 1 4096 10 1 double_aligned_multi_mergsort1010149249
	sslittle-na-sstrix-gcc -Wall -O3 -funroll-loops -finline-functions  -DRANDOM_SIZE=32768 -DOFFSET=1 -DSORT=double_aligned_multi_mergsort sorts/double_aligned_multi_mergsort1978136544.c simpleMain.c -o double_aligned_multi_mergsort1010149249
	sim-cache -cache:dl1 dl1:256:32:1:l -cache:dl2 dl2:131072:32:1:l -cache:il1 il1:256:32:1:l -cache:il2 dl2 double_aligned_multi_mergsort1010149249
	sim-cache -cache:dl1 dl1:256:32:1:l -cache:dl2 dl2:65536:32:1:l -cache:il1 il1:256:32:1:l -cache:il2 dl2 double_aligned_multi_mergsort1010149249
	sim-cache -cache:dl1 dl1:1:32:256:l -cache:dl2 dl2:1:32:131072:l -cache:il1 il1:1:32:256:l -cache:il2 dl2 double_aligned_multi_mergsort1010149249
	sim-cache -cache:dl1 dl1:1:32:256:l -cache:dl2 dl2:1:32:65536:l -cache:il1 il1:1:32:256:l -cache:il2 dl2 double_aligned_multi_mergsort1010149249
	sim-bpred -bpred bimod -bpred:bimod 512 double_aligned_multi_mergsort1010149249
	sim-bpred -bpred bimod -bpred:bimod 1024 double_aligned_multi_mergsort1010149249
	sim-bpred -bpred bimod -bpred:bimod 2048 double_aligned_multi_mergsort1010149249
	sim-bpred -bpred 2lev -bpred:2lev 1 512 10 1 double_aligned_multi_mergsort1010149249
	sim-bpred -bpred 2lev -bpred:2lev 1 1024 10 1 double_aligned_multi_mergsort1010149249
	sim-bpred -bpred 2lev -bpred:2lev 1 2048 10 1 double_aligned_multi_mergsort1010149249
	sim-bpred -bpred 2lev -bpred:2lev 1 4096 10 1 double_aligned_multi_mergsort1010149249
	sslittle-na-sstrix-gcc -Wall -O3 -funroll-loops -finline-functions  -DRANDOM_SIZE=65536 -DOFFSET=1 -DSORT=double_aligned_multi_mergsort sorts/double_aligned_multi_mergsort1978136544.c simpleMain.c -o double_aligned_multi_mergsort1010149249
	sim-cache -cache:dl1 dl1:256:32:1:l -cache:dl2 dl2:131072:32:1:l -cache:il1 il1:256:32:1:l -cache:il2 dl2 double_aligned_multi_mergsort1010149249
	sim-cache -cache:dl1 dl1:256:32:1:l -cache:dl2 dl2:65536:32:1:l -cache:il1 il1:256:32:1:l -cache:il2 dl2 double_aligned_multi_mergsort1010149249
	sim-cache -cache:dl1 dl1:1:32:256:l -cache:dl2 dl2:1:32:131072:l -cache:il1 il1:1:32:256:l -cache:il2 dl2 double_aligned_multi_mergsort1010149249
	sim-cache -cache:dl1 dl1:1:32:256:l -cache:dl2 dl2:1:32:65536:l -cache:il1 il1:1:32:256:l -cache:il2 dl2 double_aligned_multi_mergsort1010149249
	sim-bpred -bpred bimod -bpred:bimod 512 double_aligned_multi_mergsort1010149249
	sim-bpred -bpred bimod -bpred:bimod 1024 double_aligned_multi_mergsort1010149249
	sim-bpred -bpred bimod -bpred:bimod 2048 double_aligned_multi_mergsort1010149249
	sim-bpred -bpred 2lev -bpred:2lev 1 512 10 1 double_aligned_multi_mergsort1010149249
	sim-bpred -bpred 2lev -bpred:2lev 1 1024 10 1 double_aligned_multi_mergsort1010149249
	sim-bpred -bpred 2lev -bpred:2lev 1 2048 10 1 double_aligned_multi_mergsort1010149249
	sim-bpred -bpred 2lev -bpred:2lev 1 4096 10 1 double_aligned_multi_mergsort1010149249
	sslittle-na-sstrix-gcc -Wall -O3 -funroll-loops -finline-functions  -DRANDOM_SIZE=131072 -DOFFSET=1 -DSORT=double_aligned_multi_mergsort sorts/double_aligned_multi_mergsort1978136544.c simpleMain.c -o double_aligned_multi_mergsort1010149249
	sim-cache -cache:dl1 dl1:256:32:1:l -cache:dl2 dl2:131072:32:1:l -cache:il1 il1:256:32:1:l -cache:il2 dl2 double_aligned_multi_mergsort1010149249
	sim-cache -cache:dl1 dl1:256:32:1:l -cache:dl2 dl2:65536:32:1:l -cache:il1 il1:256:32:1:l -cache:il2 dl2 double_aligned_multi_mergsort1010149249
	sim-cache -cache:dl1 dl1:1:32:256:l -cache:dl2 dl2:1:32:131072:l -cache:il1 il1:1:32:256:l -cache:il2 dl2 double_aligned_multi_mergsort1010149249
	sim-cache -cache:dl1 dl1:1:32:256:l -cache:dl2 dl2:1:32:65536:l -cache:il1 il1:1:32:256:l -cache:il2 dl2 double_aligned_multi_mergsort1010149249
	sim-bpred -bpred bimod -bpred:bimod 512 double_aligned_multi_mergsort1010149249
	sim-bpred -bpred bimod -bpred:bimod 1024 double_aligned_multi_mergsort1010149249
	sim-bpred -bpred bimod -bpred:bimod 2048 double_aligned_multi_mergsort1010149249
	sim-bpred -bpred 2lev -bpred:2lev 1 512 10 1 double_aligned_multi_mergsort1010149249
	sim-bpred -bpred 2lev -bpred:2lev 1 1024 10 1 double_aligned_multi_mergsort1010149249
	sim-bpred -bpred 2lev -bpred:2lev 1 2048 10 1 double_aligned_multi_mergsort1010149249
	sim-bpred -bpred 2lev -bpred:2lev 1 4096 10 1 double_aligned_multi_mergsort1010149249
	sslittle-na-sstrix-gcc -Wall -O3 -funroll-loops -finline-functions  -DRANDOM_SIZE=262144 -DOFFSET=1 -DSORT=double_aligned_multi_mergsort sorts/double_aligned_multi_mergsort1978136544.c simpleMain.c -o double_aligned_multi_mergsort1010149249
	sim-cache -cache:dl1 dl1:256:32:1:l -cache:dl2 dl2:131072:32:1:l -cache:il1 il1:256:32:1:l -cache:il2 dl2 double_aligned_multi_mergsort1010149249
	sim-cache -cache:dl1 dl1:256:32:1:l -cache:dl2 dl2:65536:32:1:l -cache:il1 il1:256:32:1:l -cache:il2 dl2 double_aligned_multi_mergsort1010149249
	sim-cache -cache:dl1 dl1:1:32:256:l -cache:dl2 dl2:1:32:131072:l -cache:il1 il1:1:32:256:l -cache:il2 dl2 double_aligned_multi_mergsort1010149249
	sim-cache -cache:dl1 dl1:1:32:256:l -cache:dl2 dl2:1:32:65536:l -cache:il1 il1:1:32:256:l -cache:il2 dl2 double_aligned_multi_mergsort1010149249
	sim-bpred -bpred bimod -bpred:bimod 512 double_aligned_multi_mergsort1010149249
	sim-bpred -bpred bimod -bpred:bimod 1024 double_aligned_multi_mergsort1010149249
	sim-bpred -bpred bimod -bpred:bimod 2048 double_aligned_multi_mergsort1010149249
	sim-bpred -bpred 2lev -bpred:2lev 1 512 10 1 double_aligned_multi_mergsort1010149249
	sim-bpred -bpred 2lev -bpred:2lev 1 1024 10 1 double_aligned_multi_mergsort1010149249
	sim-bpred -bpred 2lev -bpred:2lev 1 2048 10 1 double_aligned_multi_mergsort1010149249
	sim-bpred -bpred 2lev -bpred:2lev 1 4096 10 1 double_aligned_multi_mergsort1010149249
	sslittle-na-sstrix-gcc -Wall -O3 -funroll-loops -finline-functions  -DRANDOM_SIZE=524288 -DOFFSET=1 -DSORT=double_aligned_multi_mergsort sorts/double_aligned_multi_mergsort1978136544.c simpleMain.c -o double_aligned_multi_mergsort1010149249
	sim-cache -cache:dl1 dl1:256:32:1:l -cache:dl2 dl2:131072:32:1:l -cache:il1 il1:256:32:1:l -cache:il2 dl2 double_aligned_multi_mergsort1010149249
	sim-cache -cache:dl1 dl1:256:32:1:l -cache:dl2 dl2:65536:32:1:l -cache:il1 il1:256:32:1:l -cache:il2 dl2 double_aligned_multi_mergsort1010149249
	sim-cache -cache:dl1 dl1:1:32:256:l -cache:dl2 dl2:1:32:131072:l -cache:il1 il1:1:32:256:l -cache:il2 dl2 double_aligned_multi_mergsort1010149249
	sim-cache -cache:dl1 dl1:1:32:256:l -cache:dl2 dl2:1:32:65536:l -cache:il1 il1:1:32:256:l -cache:il2 dl2 double_aligned_multi_mergsort1010149249
	sim-bpred -bpred bimod -bpred:bimod 512 double_aligned_multi_mergsort1010149249
	sim-bpred -bpred bimod -bpred:bimod 1024 double_aligned_multi_mergsort1010149249
	sim-bpred -bpred bimod -bpred:bimod 2048 double_aligned_multi_mergsort1010149249
	sim-bpred -bpred 2lev -bpred:2lev 1 512 10 1 double_aligned_multi_mergsort1010149249
	sim-bpred -bpred 2lev -bpred:2lev 1 1024 10 1 double_aligned_multi_mergsort1010149249
	sim-bpred -bpred 2lev -bpred:2lev 1 2048 10 1 double_aligned_multi_mergsort1010149249
	sim-bpred -bpred 2lev -bpred:2lev 1 4096 10 1 double_aligned_multi_mergsort1010149249
	sslittle-na-sstrix-gcc -Wall -O3 -funroll-loops -finline-functions  -DRANDOM_SIZE=1048576 -DOFFSET=1 -DSORT=double_aligned_multi_mergsort sorts/double_aligned_multi_mergsort1978136544.c simpleMain.c -o double_aligned_multi_mergsort1010149249
	sim-cache -cache:dl1 dl1:256:32:1:l -cache:dl2 dl2:131072:32:1:l -cache:il1 il1:256:32:1:l -cache:il2 dl2 double_aligned_multi_mergsort1010149249
	sim-cache -cache:dl1 dl1:256:32:1:l -cache:dl2 dl2:65536:32:1:l -cache:il1 il1:256:32:1:l -cache:il2 dl2 double_aligned_multi_mergsort1010149249
	sim-cache -cache:dl1 dl1:1:32:256:l -cache:dl2 dl2:1:32:131072:l -cache:il1 il1:1:32:256:l -cache:il2 dl2 double_aligned_multi_mergsort1010149249
	sim-cache -cache:dl1 dl1:1:32:256:l -cache:dl2 dl2:1:32:65536:l -cache:il1 il1:1:32:256:l -cache:il2 dl2 double_aligned_multi_mergsort1010149249
	sim-bpred -bpred bimod -bpred:bimod 512 double_aligned_multi_mergsort1010149249
	sim-bpred -bpred bimod -bpred:bimod 1024 double_aligned_multi_mergsort1010149249
	sim-bpred -bpred bimod -bpred:bimod 2048 double_aligned_multi_mergsort1010149249
	sim-bpred -bpred 2lev -bpred:2lev 1 512 10 1 double_aligned_multi_mergsort1010149249
	sim-bpred -bpred 2lev -bpred:2lev 1 1024 10 1 double_aligned_multi_mergsort1010149249
	sim-bpred -bpred 2lev -bpred:2lev 1 2048 10 1 double_aligned_multi_mergsort1010149249
	sim-bpred -bpred 2lev -bpred:2lev 1 4096 10 1 double_aligned_multi_mergsort1010149249
	sslittle-na-sstrix-gcc -Wall -O3 -funroll-loops -finline-functions  -DRANDOM_SIZE=2097152 -DOFFSET=1 -DSORT=double_aligned_multi_mergsort sorts/double_aligned_multi_mergsort1978136544.c simpleMain.c -o double_aligned_multi_mergsort1010149249
	sim-cache -cache:dl1 dl1:256:32:1:l -cache:dl2 dl2:131072:32:1:l -cache:il1 il1:256:32:1:l -cache:il2 dl2 double_aligned_multi_mergsort1010149249
	sim-cache -cache:dl1 dl1:256:32:1:l -cache:dl2 dl2:65536:32:1:l -cache:il1 il1:256:32:1:l -cache:il2 dl2 double_aligned_multi_mergsort1010149249
	sim-cache -cache:dl1 dl1:1:32:256:l -cache:dl2 dl2:1:32:131072:l -cache:il1 il1:1:32:256:l -cache:il2 dl2 double_aligned_multi_mergsort1010149249
	sim-cache -cache:dl1 dl1:1:32:256:l -cache:dl2 dl2:1:32:65536:l -cache:il1 il1:1:32:256:l -cache:il2 dl2 double_aligned_multi_mergsort1010149249
	sim-bpred -bpred bimod -bpred:bimod 512 double_aligned_multi_mergsort1010149249
	sim-bpred -bpred bimod -bpred:bimod 1024 double_aligned_multi_mergsort1010149249
	sim-bpred -bpred bimod -bpred:bimod 2048 double_aligned_multi_mergsort1010149249
	sim-bpred -bpred 2lev -bpred:2lev 1 512 10 1 double_aligned_multi_mergsort1010149249
	sim-bpred -bpred 2lev -bpred:2lev 1 1024 10 1 double_aligned_multi_mergsort1010149249
	sim-bpred -bpred 2lev -bpred:2lev 1 2048 10 1 double_aligned_multi_mergsort1010149249
	sim-bpred -bpred 2lev -bpred:2lev 1 4096 10 1 double_aligned_multi_mergsort1010149249
	sslittle-na-sstrix-gcc -Wall -O3 -funroll-loops -finline-functions  -DRANDOM_SIZE=4194304 -DOFFSET=1 -DSORT=double_aligned_multi_mergsort sorts/double_aligned_multi_mergsort1978136544.c simpleMain.c -o double_aligned_multi_mergsort1010149249
	sim-cache -cache:dl1 dl1:256:32:1:l -cache:dl2 dl2:131072:32:1:l -cache:il1 il1:256:32:1:l -cache:il2 dl2 double_aligned_multi_mergsort1010149249
	sim-cache -cache:dl1 dl1:256:32:1:l -cache:dl2 dl2:65536:32:1:l -cache:il1 il1:256:32:1:l -cache:il2 dl2 double_aligned_multi_mergsort1010149249
	sim-cache -cache:dl1 dl1:1:32:256:l -cache:dl2 dl2:1:32:131072:l -cache:il1 il1:1:32:256:l -cache:il2 dl2 double_aligned_multi_mergsort1010149249
	sim-cache -cache:dl1 dl1:1:32:256:l -cache:dl2 dl2:1:32:65536:l -cache:il1 il1:1:32:256:l -cache:il2 dl2 double_aligned_multi_mergsort1010149249
	sim-bpred -bpred bimod -bpred:bimod 512 double_aligned_multi_mergsort1010149249
	sim-bpred -bpred bimod -bpred:bimod 1024 double_aligned_multi_mergsort1010149249
	sim-bpred -bpred bimod -bpred:bimod 2048 double_aligned_multi_mergsort1010149249
	sim-bpred -bpred 2lev -bpred:2lev 1 512 10 1 double_aligned_multi_mergsort1010149249
	sim-bpred -bpred 2lev -bpred:2lev 1 1024 10 1 double_aligned_multi_mergsort1010149249
	sim-bpred -bpred 2lev -bpred:2lev 1 2048 10 1 double_aligned_multi_mergsort1010149249
	sim-bpred -bpred 2lev -bpred:2lev 1 4096 10 1 double_aligned_multi_mergsort1010149249
