Tue Jun 28 09:32:14 2005
Run as: "./do_simple -c random.org2 -o 2 double_aligned_multi_mergsort"
-------------------------------------------------------------------------------------------------
sim-cache                                     4096 |         4096 |         4096 |         4096 |         8192 |         8192 |         8192 |         8192 |        16384 |        16384 |        16384 |        16384 |        32768 |        32768 |        32768 |        32768 |        65536 |        65536 |        65536 |        65536 |       131072 |       131072 |       131072 |       131072 |       262144 |       262144 |       262144 |       262144 |       524288 |       524288 |       524288 |       524288 |      1048576 |      1048576 |      1048576 |      1048576 |      2097152 |      2097152 |      2097152 |      2097152 |      4194304 |      4194304 |      4194304 |      4194304 |
-cache:dl1 dl1:256:32:1:l -cache:dl2 dl2:131072:32:1:l -cache:il1 il1:256:32:1:l -cache:il2 dl2
-cache:dl1 dl1:256:32:1:l -cache:dl2 dl2:65536:32:1:l -cache:il1 il1:256:32:1:l -cache:il2 dl2
-cache:dl1 dl1:1:32:256:l -cache:dl2 dl2:1:32:131072:l -cache:il1 il1:1:32:256:l -cache:il2 dl2
-cache:dl1 dl1:1:32:256:l -cache:dl2 dl2:1:32:65536:l -cache:il1 il1:1:32:256:l -cache:il2 dl2
-------------------------------------------------------------------------------------------------
sim_num_insn                                861176 |       861176 |       861176 |       861176 |      1753134 |      1753134 |      1753134 |      1753134 |      3961059 |      3961059 |      3961059 |      3961059 |      8060278 |      8060278 |      8060278 |      8060278 |     17981873 |     17981873 |     17981873 |     17981873 |     36569896 |     36569896 |     36569896 |     36569896 |     77447051 |     77447051 |     77447051 |     77447051 |    223372733 |    223372733 |    223372733 |    223372733 |    473144791 |    473144791 |    473144791 |    473144791 |   1035549878 |   1035549878 |   1035549878 |   1035549878 |   2186588328 |   2186588328 |   2186588328 |   2186588328 |
sim_num_refs                                229236 |       229236 |       229236 |       229236 |       472399 |       472399 |       472399 |       472399 |      1051902 |      1051902 |      1051902 |      1051902 |      2170318 |      2170318 |      2170318 |      2170318 |      4784614 |      4784614 |      4784614 |      4784614 |      9854536 |      9854536 |      9854536 |      9854536 |     20882396 |     20882396 |     20882396 |     20882396 |     60940641 |     60940641 |     60940641 |     60940641 |    130148204 |    130148204 |    130148204 |    130148204 |    283154825 |    283154825 |    283154825 |    283154825 |    604294972 |    604294972 |    604294972 |    604294972 |
sim_elapsed_time                                 1 |            1 |           10 |            5 |            1 |            1 |           15 |            7 |            1 |            1 |           26 |           13 |            2 |            2 |           46 |           23 |            4 |            5 |           84 |           42 |            9 |           10 |          154 |           72 |           20 |           20 |          264 |          102 |           57 |           56 |          382 |          141 |          120 |          120 |          448 |          208 |          262 |          263 |          599 |          361 |          555 |          557 |          909 |          676 |
sim_inst_rate                          861176.0000 |  861176.0000 |   86117.6000 |  172235.2000 | 1753134.0000 | 1753134.0000 |  116875.6000 |  250447.7143 | 3961059.0000 | 3961059.0000 |  152348.4231 |  304696.8462 | 4030139.0000 | 4030139.0000 |  175223.4348 |  350446.8696 | 4495468.2500 | 3596374.6000 |  214069.9167 |  428139.8333 | 4063321.7778 | 3656989.6000 |  237466.8571 |  507915.2222 | 3872352.5500 | 3872352.5500 |  293360.0417 |  759284.8137 | 3918819.8772 | 3988798.8036 |  584745.3743 | 1584203.7801 | 3942873.2583 | 3942873.2583 | 1056126.7656 | 2274734.5721 | 3952480.4504 | 3937452.0076 | 1728797.7930 | 2868559.2188 | 3939798.7892 | 3925652.2944 | 2405487.7096 | 3234598.1183 |
il1.accesses                                861176 |       861176 |       861176 |       861176 |      1753134 |      1753134 |      1753134 |      1753134 |      3961059 |      3961059 |      3961059 |      3961059 |      8060278 |      8060278 |      8060278 |      8060278 |     17981873 |     17981873 |     17981873 |     17981873 |     36569896 |     36569896 |     36569896 |     36569896 |     77447051 |     77447051 |     77447051 |     77447051 |    223372733 |    223372733 |    223372733 |    223372733 |    473144791 |    473144791 |    473144791 |    473144791 |   1035549878 |   1035549878 |   1035549878 |   1035549878 |   2186588328 |   2186588328 |   2186588328 |   2186588328 |
il1.hits                                    860493 |       860493 |       860598 |       860598 |      1752406 |      1752406 |      1752535 |      1752535 |      3960316 |      3960316 |      3960488 |      3960488 |      8059403 |      8059403 |      8059676 |      8059676 |     17980828 |     17980828 |     17981293 |     17981293 |     36568443 |     36568443 |     36569293 |     36569293 |     77445340 |     77445340 |     77446451 |     77446451 |    222061000 |    222061000 |    223371843 |    223371843 |    470522287 |    470522287 |    473143856 |    473143856 |   1030305941 |   1030305941 |   1035548959 |   1035548959 |   2176101478 |   2176101478 |   2186587391 |   2186587391 |
il1.misses                                     683 |          683 |          578 |          578 |          728 |          728 |          599 |          599 |          743 |          743 |          571 |          571 |          875 |          875 |          602 |          602 |         1045 |         1045 |          580 |          580 |         1453 |         1453 |          603 |          603 |         1711 |         1711 |          600 |          600 |      1311733 |      1311733 |          890 |          890 |      2622504 |      2622504 |          935 |          935 |      5243937 |      5243937 |          919 |          919 |     10486850 |     10486850 |          937 |          937 |
il1.replacements                               449 |          449 |          322 |          322 |          492 |          492 |          343 |          343 |          508 |          508 |          315 |          315 |          639 |          639 |          346 |          346 |          810 |          810 |          324 |          324 |         1217 |         1217 |          347 |          347 |         1474 |         1474 |          344 |          344 |      1311477 |      1311477 |          634 |          634 |      2622248 |      2622248 |          679 |          679 |      5243681 |      5243681 |          663 |          663 |     10486594 |     10486594 |          681 |          681 |
il1.writebacks                                   0 |            0 |            0 |            0 |            0 |            0 |            0 |            0 |            0 |            0 |            0 |            0 |            0 |            0 |            0 |            0 |            0 |            0 |            0 |            0 |            0 |            0 |            0 |            0 |            0 |            0 |            0 |            0 |            0 |            0 |            0 |            0 |            0 |            0 |            0 |            0 |            0 |            0 |            0 |            0 |            0 |            0 |            0 |            0 |
il1.invalidations                                0 |            0 |            0 |            0 |            0 |            0 |            0 |            0 |            0 |            0 |            0 |            0 |            0 |            0 |            0 |            0 |            0 |            0 |            0 |            0 |            0 |            0 |            0 |            0 |            0 |            0 |            0 |            0 |            0 |            0 |            0 |            0 |            0 |            0 |            0 |            0 |            0 |            0 |            0 |            0 |            0 |            0 |            0 |            0 |
il1.miss_rate                               0.0008 |       0.0008 |       0.0007 |       0.0007 |       0.0004 |       0.0004 |       0.0003 |       0.0003 |       0.0002 |       0.0002 |       0.0001 |       0.0001 |       0.0001 |       0.0001 |       0.0001 |       0.0001 |       0.0001 |       0.0001 |       0.0000 |       0.0000 |       0.0000 |       0.0000 |       0.0000 |       0.0000 |       0.0000 |       0.0000 |       0.0000 |       0.0000 |       0.0059 |       0.0059 |       0.0000 |       0.0000 |       0.0055 |       0.0055 |       0.0000 |       0.0000 |       0.0051 |       0.0051 |       0.0000 |       0.0000 |       0.0048 |       0.0048 |       0.0000 |       0.0000 |
il1.repl_rate                               0.0005 |       0.0005 |       0.0004 |       0.0004 |       0.0003 |       0.0003 |       0.0002 |       0.0002 |       0.0001 |       0.0001 |       0.0001 |       0.0001 |       0.0001 |       0.0001 |       0.0000 |       0.0000 |       0.0000 |       0.0000 |       0.0000 |       0.0000 |       0.0000 |       0.0000 |       0.0000 |       0.0000 |       0.0000 |       0.0000 |       0.0000 |       0.0000 |       0.0059 |       0.0059 |       0.0000 |       0.0000 |       0.0055 |       0.0055 |       0.0000 |       0.0000 |       0.0051 |       0.0051 |       0.0000 |       0.0000 |       0.0048 |       0.0048 |       0.0000 |       0.0000 |
il1.wb_rate                                 0.0000 |       0.0000 |       0.0000 |       0.0000 |       0.0000 |       0.0000 |       0.0000 |       0.0000 |       0.0000 |       0.0000 |       0.0000 |       0.0000 |       0.0000 |       0.0000 |       0.0000 |       0.0000 |       0.0000 |       0.0000 |       0.0000 |       0.0000 |       0.0000 |       0.0000 |       0.0000 |       0.0000 |       0.0000 |       0.0000 |       0.0000 |       0.0000 |       0.0000 |       0.0000 |       0.0000 |       0.0000 |       0.0000 |       0.0000 |       0.0000 |       0.0000 |       0.0000 |       0.0000 |       0.0000 |       0.0000 |       0.0000 |       0.0000 |       0.0000 |       0.0000 |
il1.inv_rate                                0.0000 |       0.0000 |       0.0000 |       0.0000 |       0.0000 |       0.0000 |       0.0000 |       0.0000 |       0.0000 |       0.0000 |       0.0000 |       0.0000 |       0.0000 |       0.0000 |       0.0000 |       0.0000 |       0.0000 |       0.0000 |       0.0000 |       0.0000 |       0.0000 |       0.0000 |       0.0000 |       0.0000 |       0.0000 |       0.0000 |       0.0000 |       0.0000 |       0.0000 |       0.0000 |       0.0000 |       0.0000 |       0.0000 |       0.0000 |       0.0000 |       0.0000 |       0.0000 |       0.0000 |       0.0000 |       0.0000 |       0.0000 |       0.0000 |       0.0000 |       0.0000 |
dl1.accesses                                245702 |       245702 |       245702 |       245702 |       505249 |       505249 |       505249 |       505249 |      1117520 |      1117520 |      1117520 |      1117520 |      2301472 |      2301472 |      2301472 |      2301472 |      5046840 |      5046840 |      5046840 |      5046840 |     10378906 |     10378906 |     10378906 |     10378906 |     21931054 |     21931054 |     21931054 |     21931054 |     63037875 |     63037875 |     63037875 |     63037875 |    134342590 |    134342590 |    134342590 |    134342590 |    291543515 |    291543515 |    291543515 |    291543515 |    621072270 |    621072270 |    621072270 |    621072270 |
dl1.hits                                    240266 |       240266 |       238741 |       238741 |       492727 |       492727 |       491014 |       491014 |      1088043 |      1088043 |      1082934 |      1082934 |      2234709 |      2234709 |      2229661 |      2229661 |      4894587 |      4894587 |      4877195 |      4877195 |     10040285 |     10040285 |     10027605 |     10027605 |     21179763 |     21179763 |     21163507 |     21163507 |     61234223 |     61234223 |     61289063 |     61289063 |    130725006 |    130725006 |    131009750 |    131009750 |    284293259 |    284293259 |    284554414 |    284554414 |    606525903 |    606525903 |    607743979 |    607743979 |
dl1.misses                                    5436 |         5436 |         6961 |         6961 |        12522 |        12522 |        14235 |        14235 |        29477 |        29477 |        34586 |        34586 |        66763 |        66763 |        71811 |        71811 |       152253 |       152253 |       169645 |       169645 |       338621 |       338621 |       351301 |       351301 |       751291 |       751291 |       767547 |       767547 |      1803652 |      1803652 |      1748812 |      1748812 |      3617584 |      3617584 |      3332840 |      3332840 |      7250256 |      7250256 |      6989101 |      6989101 |     14546367 |     14546367 |     13328291 |     13328291 |
dl1.replacements                              5180 |         5180 |         6705 |         6705 |        12266 |        12266 |        13979 |        13979 |        29221 |        29221 |        34330 |        34330 |        66507 |        66507 |        71555 |        71555 |       151997 |       151997 |       169389 |       169389 |       338365 |       338365 |       351045 |       351045 |       751035 |       751035 |       767291 |       767291 |      1803396 |      1803396 |      1748556 |      1748556 |      3617328 |      3617328 |      3332584 |      3332584 |      7250000 |      7250000 |      6988845 |      6988845 |     14546111 |     14546111 |     13328035 |     13328035 |
dl1.writebacks                                3504 |         3504 |         5059 |         5059 |         7765 |         7765 |         9808 |         9808 |        17442 |        17442 |        23385 |        23385 |        38771 |        38771 |        46406 |        46406 |        86020 |        86020 |       108963 |       108963 |       188812 |       188812 |       217375 |       217375 |       411878 |       411878 |       467076 |       467076 |      1045300 |      1045300 |      1067580 |      1067580 |      2095578 |      2095578 |      1999700 |      1999700 |      4212018 |      4212018 |      4266669 |      4266669 |      8457723 |      8457723 |      7997982 |      7997982 |
dl1.invalidations                                0 |            0 |            0 |            0 |            0 |            0 |            0 |            0 |            0 |            0 |            0 |            0 |            0 |            0 |            0 |            0 |            0 |            0 |            0 |            0 |            0 |            0 |            0 |            0 |            0 |            0 |            0 |            0 |            0 |            0 |            0 |            0 |            0 |            0 |            0 |            0 |            0 |            0 |            0 |            0 |            0 |            0 |            0 |            0 |
dl1.miss_rate                               0.0221 |       0.0221 |       0.0283 |       0.0283 |       0.0248 |       0.0248 |       0.0282 |       0.0282 |       0.0264 |       0.0264 |       0.0309 |       0.0309 |       0.0290 |       0.0290 |       0.0312 |       0.0312 |       0.0302 |       0.0302 |       0.0336 |       0.0336 |       0.0326 |       0.0326 |       0.0338 |       0.0338 |       0.0343 |       0.0343 |       0.0350 |       0.0350 |       0.0286 |       0.0286 |       0.0277 |       0.0277 |       0.0269 |       0.0269 |       0.0248 |       0.0248 |       0.0249 |       0.0249 |       0.0240 |       0.0240 |       0.0234 |       0.0234 |       0.0215 |       0.0215 |
dl1.repl_rate                               0.0211 |       0.0211 |       0.0273 |       0.0273 |       0.0243 |       0.0243 |       0.0277 |       0.0277 |       0.0261 |       0.0261 |       0.0307 |       0.0307 |       0.0289 |       0.0289 |       0.0311 |       0.0311 |       0.0301 |       0.0301 |       0.0336 |       0.0336 |       0.0326 |       0.0326 |       0.0338 |       0.0338 |       0.0342 |       0.0342 |       0.0350 |       0.0350 |       0.0286 |       0.0286 |       0.0277 |       0.0277 |       0.0269 |       0.0269 |       0.0248 |       0.0248 |       0.0249 |       0.0249 |       0.0240 |       0.0240 |       0.0234 |       0.0234 |       0.0215 |       0.0215 |
dl1.wb_rate                                 0.0143 |       0.0143 |       0.0206 |       0.0206 |       0.0154 |       0.0154 |       0.0194 |       0.0194 |       0.0156 |       0.0156 |       0.0209 |       0.0209 |       0.0168 |       0.0168 |       0.0202 |       0.0202 |       0.0170 |       0.0170 |       0.0216 |       0.0216 |       0.0182 |       0.0182 |       0.0209 |       0.0209 |       0.0188 |       0.0188 |       0.0213 |       0.0213 |       0.0166 |       0.0166 |       0.0169 |       0.0169 |       0.0156 |       0.0156 |       0.0149 |       0.0149 |       0.0144 |       0.0144 |       0.0146 |       0.0146 |       0.0136 |       0.0136 |       0.0129 |       0.0129 |
dl1.inv_rate                                0.0000 |       0.0000 |       0.0000 |       0.0000 |       0.0000 |       0.0000 |       0.0000 |       0.0000 |       0.0000 |       0.0000 |       0.0000 |       0.0000 |       0.0000 |       0.0000 |       0.0000 |       0.0000 |       0.0000 |       0.0000 |       0.0000 |       0.0000 |       0.0000 |       0.0000 |       0.0000 |       0.0000 |       0.0000 |       0.0000 |       0.0000 |       0.0000 |       0.0000 |       0.0000 |       0.0000 |       0.0000 |       0.0000 |       0.0000 |       0.0000 |       0.0000 |       0.0000 |       0.0000 |       0.0000 |       0.0000 |       0.0000 |       0.0000 |       0.0000 |       0.0000 |
dl2.accesses                                  9623 |         9623 |        12598 |        12598 |        21015 |        21015 |        24642 |        24642 |        47662 |        47662 |        58542 |        58542 |       106409 |       106409 |       118819 |       118819 |       239318 |       239318 |       279188 |       279188 |       528886 |       528886 |       569279 |       569279 |      1164880 |      1164880 |      1235223 |      1235223 |      4160685 |      4160685 |      2817282 |      2817282 |      8335666 |      8335666 |      5333475 |      5333475 |     16706211 |     16706211 |     11256689 |     11256689 |     33490940 |     33490940 |     21327210 |     21327210 |
dl2.hits                                      7586 |         7586 |        10633 |        10633 |        17914 |        17914 |        21636 |        21636 |        42556 |        42556 |        53511 |        53511 |        97162 |        97162 |       109667 |       109667 |       221916 |       221916 |       261861 |       261861 |       495062 |       495062 |       535550 |       535550 |      1098300 |      1095717 |      1168730 |      1131867 |      3973056 |      3868116 |      2648027 |      2425664 |      7741999 |      7670944 |      4686233 |      4553831 |     15377366 |     15375222 |      9947255 |      9700876 |     30829472 |     30827886 |     18703220 |     18217916 |
dl2.misses                                    2037 |         2037 |         1965 |         1965 |         3101 |         3101 |         3006 |         3006 |         5106 |         5106 |         5031 |         5031 |         9247 |         9247 |         9152 |         9152 |        17402 |        17402 |        17327 |        17327 |        33824 |        33824 |        33729 |        33729 |        66580 |        69163 |        66493 |       103356 |       187629 |       292569 |       169255 |       391618 |       593667 |       664722 |       647242 |       779644 |      1328845 |      1330989 |      1309434 |      1555813 |      2661468 |      2663054 |      2623990 |      3109294 |
dl2.replacements                               232 |          232 |            0 |            0 |          271 |          271 |            0 |            0 |          235 |          235 |            0 |            0 |          271 |          271 |            0 |            0 |          235 |          235 |            0 |            0 |          272 |          272 |            0 |            0 |          256 |         3743 |            0 |        37820 |        87745 |       227033 |        38183 |       326082 |       462595 |       599186 |       516170 |       714108 |      1197773 |      1265453 |      1178362 |      1490277 |      2530396 |      2597518 |      2492918 |      3043758 |
dl2.writebacks                                 105 |          105 |            0 |            0 |          106 |          106 |            0 |            0 |          108 |          108 |            0 |            0 |          106 |          106 |            0 |            0 |          108 |          108 |            0 |            0 |          107 |          107 |            0 |            0 |           97 |         2231 |            0 |        37375 |        87484 |       190809 |        37359 |       292226 |       393695 |       478230 |       460430 |       614582 |       959968 |      1001856 |       985375 |      1259555 |      2004941 |      2059020 |      2035343 |      2550560 |
dl2.invalidations                                0 |            0 |            0 |            0 |            0 |            0 |            0 |            0 |            0 |            0 |            0 |            0 |            0 |            0 |            0 |            0 |            0 |            0 |            0 |            0 |            0 |            0 |            0 |            0 |            0 |            0 |            0 |            0 |            0 |            0 |            0 |            0 |            0 |            0 |            0 |            0 |            0 |            0 |            0 |            0 |            0 |            0 |            0 |            0 |
dl2.miss_rate                               0.2117 |       0.2117 |       0.1560 |       0.1560 |       0.1476 |       0.1476 |       0.1220 |       0.1220 |       0.1071 |       0.1071 |       0.0859 |       0.0859 |       0.0869 |       0.0869 |       0.0770 |       0.0770 |       0.0727 |       0.0727 |       0.0621 |       0.0621 |       0.0640 |       0.0640 |       0.0592 |       0.0592 |       0.0572 |       0.0594 |       0.0538 |       0.0837 |       0.0451 |       0.0703 |       0.0601 |       0.1390 |       0.0712 |       0.0797 |       0.1214 |       0.1462 |       0.0795 |       0.0797 |       0.1163 |       0.1382 |       0.0795 |       0.0795 |       0.1230 |       0.1458 |
dl2.repl_rate                               0.0241 |       0.0241 |       0.0000 |       0.0000 |       0.0129 |       0.0129 |       0.0000 |       0.0000 |       0.0049 |       0.0049 |       0.0000 |       0.0000 |       0.0025 |       0.0025 |       0.0000 |       0.0000 |       0.0010 |       0.0010 |       0.0000 |       0.0000 |       0.0005 |       0.0005 |       0.0000 |       0.0000 |       0.0002 |       0.0032 |       0.0000 |       0.0306 |       0.0211 |       0.0546 |       0.0136 |       0.1157 |       0.0555 |       0.0719 |       0.0968 |       0.1339 |       0.0717 |       0.0757 |       0.1047 |       0.1324 |       0.0756 |       0.0776 |       0.1169 |       0.1427 |
dl2.wb_rate                                 0.0109 |       0.0109 |       0.0000 |       0.0000 |       0.0050 |       0.0050 |       0.0000 |       0.0000 |       0.0023 |       0.0023 |       0.0000 |       0.0000 |       0.0010 |       0.0010 |       0.0000 |       0.0000 |       0.0005 |       0.0005 |       0.0000 |       0.0000 |       0.0002 |       0.0002 |       0.0000 |       0.0000 |       0.0001 |       0.0019 |       0.0000 |       0.0303 |       0.0210 |       0.0459 |       0.0133 |       0.1037 |       0.0472 |       0.0574 |       0.0863 |       0.1152 |       0.0575 |       0.0600 |       0.0875 |       0.1119 |       0.0599 |       0.0615 |       0.0954 |       0.1196 |
dl2.inv_rate                                0.0000 |       0.0000 |       0.0000 |       0.0000 |       0.0000 |       0.0000 |       0.0000 |       0.0000 |       0.0000 |       0.0000 |       0.0000 |       0.0000 |       0.0000 |       0.0000 |       0.0000 |       0.0000 |       0.0000 |       0.0000 |       0.0000 |       0.0000 |       0.0000 |       0.0000 |       0.0000 |       0.0000 |       0.0000 |       0.0000 |       0.0000 |       0.0000 |       0.0000 |       0.0000 |       0.0000 |       0.0000 |       0.0000 |       0.0000 |       0.0000 |       0.0000 |       0.0000 |       0.0000 |       0.0000 |       0.0000 |       0.0000 |       0.0000 |       0.0000 |       0.0000 |
itlb.accesses                               861176 |       861176 |       861176 |       861176 |      1753134 |      1753134 |      1753134 |      1753134 |      3961059 |      3961059 |      3961059 |      3961059 |      8060278 |      8060278 |      8060278 |      8060278 |     17981873 |     17981873 |     17981873 |     17981873 |     36569896 |     36569896 |     36569896 |     36569896 |     77447051 |     77447051 |     77447051 |     77447051 |    223372733 |    223372733 |    223372733 |    223372733 |    473144791 |    473144791 |    473144791 |    473144791 |   1035549878 |   1035549878 |   1035549878 |   1035549878 |   2186588328 |   2186588328 |   2186588328 |   2186588328 |
itlb.hits                                   861162 |       861162 |       861162 |       861162 |      1753120 |      1753120 |      1753120 |      1753120 |      3961045 |      3961045 |      3961045 |      3961045 |      8060264 |      8060264 |      8060264 |      8060264 |     17981859 |     17981859 |     17981859 |     17981859 |     36569882 |     36569882 |     36569882 |     36569882 |     77447037 |     77447037 |     77447037 |     77447037 |    223372719 |    223372719 |    223372719 |    223372719 |    473144777 |    473144777 |    473144777 |    473144777 |   1035549864 |   1035549864 |   1035549864 |   1035549864 |   2186588314 |   2186588314 |   2186588314 |   2186588314 |
itlb.misses                                     14 |           14 |           14 |           14 |           14 |           14 |           14 |           14 |           14 |           14 |           14 |           14 |           14 |           14 |           14 |           14 |           14 |           14 |           14 |           14 |           14 |           14 |           14 |           14 |           14 |           14 |           14 |           14 |           14 |           14 |           14 |           14 |           14 |           14 |           14 |           14 |           14 |           14 |           14 |           14 |           14 |           14 |           14 |           14 |
itlb.replacements                                0 |            0 |            0 |            0 |            0 |            0 |            0 |            0 |            0 |            0 |            0 |            0 |            0 |            0 |            0 |            0 |            0 |            0 |            0 |            0 |            0 |            0 |            0 |            0 |            0 |            0 |            0 |            0 |            0 |            0 |            0 |            0 |            0 |            0 |            0 |            0 |            0 |            0 |            0 |            0 |            0 |            0 |            0 |            0 |
itlb.writebacks                                  0 |            0 |            0 |            0 |            0 |            0 |            0 |            0 |            0 |            0 |            0 |            0 |            0 |            0 |            0 |            0 |            0 |            0 |            0 |            0 |            0 |            0 |            0 |            0 |            0 |            0 |            0 |            0 |            0 |            0 |            0 |            0 |            0 |            0 |            0 |            0 |            0 |            0 |            0 |            0 |            0 |            0 |            0 |            0 |
itlb.invalidations                               0 |            0 |            0 |            0 |            0 |            0 |            0 |            0 |            0 |            0 |            0 |            0 |            0 |            0 |            0 |            0 |            0 |            0 |            0 |            0 |            0 |            0 |            0 |            0 |            0 |            0 |            0 |            0 |            0 |            0 |            0 |            0 |            0 |            0 |            0 |            0 |            0 |            0 |            0 |            0 |            0 |            0 |            0 |            0 |
itlb.miss_rate                              0.0000 |       0.0000 |       0.0000 |       0.0000 |       0.0000 |       0.0000 |       0.0000 |       0.0000 |       0.0000 |       0.0000 |       0.0000 |       0.0000 |       0.0000 |       0.0000 |       0.0000 |       0.0000 |       0.0000 |       0.0000 |       0.0000 |       0.0000 |       0.0000 |       0.0000 |       0.0000 |       0.0000 |       0.0000 |       0.0000 |       0.0000 |       0.0000 |       0.0000 |       0.0000 |       0.0000 |       0.0000 |       0.0000 |       0.0000 |       0.0000 |       0.0000 |       0.0000 |       0.0000 |       0.0000 |       0.0000 |       0.0000 |       0.0000 |       0.0000 |       0.0000 |
itlb.repl_rate                              0.0000 |       0.0000 |       0.0000 |       0.0000 |       0.0000 |       0.0000 |       0.0000 |       0.0000 |       0.0000 |       0.0000 |       0.0000 |       0.0000 |       0.0000 |       0.0000 |       0.0000 |       0.0000 |       0.0000 |       0.0000 |       0.0000 |       0.0000 |       0.0000 |       0.0000 |       0.0000 |       0.0000 |       0.0000 |       0.0000 |       0.0000 |       0.0000 |       0.0000 |       0.0000 |       0.0000 |       0.0000 |       0.0000 |       0.0000 |       0.0000 |       0.0000 |       0.0000 |       0.0000 |       0.0000 |       0.0000 |       0.0000 |       0.0000 |       0.0000 |       0.0000 |
itlb.wb_rate                                0.0000 |       0.0000 |       0.0000 |       0.0000 |       0.0000 |       0.0000 |       0.0000 |       0.0000 |       0.0000 |       0.0000 |       0.0000 |       0.0000 |       0.0000 |       0.0000 |       0.0000 |       0.0000 |       0.0000 |       0.0000 |       0.0000 |       0.0000 |       0.0000 |       0.0000 |       0.0000 |       0.0000 |       0.0000 |       0.0000 |       0.0000 |       0.0000 |       0.0000 |       0.0000 |       0.0000 |       0.0000 |       0.0000 |       0.0000 |       0.0000 |       0.0000 |       0.0000 |       0.0000 |       0.0000 |       0.0000 |       0.0000 |       0.0000 |       0.0000 |       0.0000 |
itlb.inv_rate                               0.0000 |       0.0000 |       0.0000 |       0.0000 |       0.0000 |       0.0000 |       0.0000 |       0.0000 |       0.0000 |       0.0000 |       0.0000 |       0.0000 |       0.0000 |       0.0000 |       0.0000 |       0.0000 |       0.0000 |       0.0000 |       0.0000 |       0.0000 |       0.0000 |       0.0000 |       0.0000 |       0.0000 |       0.0000 |       0.0000 |       0.0000 |       0.0000 |       0.0000 |       0.0000 |       0.0000 |       0.0000 |       0.0000 |       0.0000 |       0.0000 |       0.0000 |       0.0000 |       0.0000 |       0.0000 |       0.0000 |       0.0000 |       0.0000 |       0.0000 |       0.0000 |
dtlb.accesses                               245702 |       245702 |       245702 |       245702 |       505249 |       505249 |       505249 |       505249 |      1117520 |      1117520 |      1117520 |      1117520 |      2301472 |      2301472 |      2301472 |      2301472 |      5046840 |      5046840 |      5046840 |      5046840 |     10378906 |     10378906 |     10378906 |     10378906 |     21931054 |     21931054 |     21931054 |     21931054 |     63037875 |     63037875 |     63037875 |     63037875 |    134342590 |    134342590 |    134342590 |    134342590 |    291543515 |    291543515 |    291543515 |    291543515 |    621072270 |    621072270 |    621072270 |    621072270 |
dtlb.hits                                   245686 |       245686 |       245686 |       245686 |       505225 |       505225 |       505225 |       505225 |      1117480 |      1117480 |      1117480 |      1117480 |      2301400 |      2301400 |      2301400 |      2301400 |      5046637 |      5046637 |      5046637 |      5046637 |     10376479 |     10376479 |     10376479 |     10376479 |     21925640 |     21925640 |     21925640 |     21925640 |     63026147 |     63026147 |     63026147 |     63026147 |    134319060 |    134319060 |    134319060 |    134319060 |    291483981 |    291483981 |    291483981 |    291483981 |    620635105 |    620635105 |    620635105 |    620635105 |
dtlb.misses                                     16 |           16 |           16 |           16 |           24 |           24 |           24 |           24 |           40 |           40 |           40 |           40 |           72 |           72 |           72 |           72 |          203 |          203 |          203 |          203 |         2427 |         2427 |         2427 |         2427 |         5414 |         5414 |         5414 |         5414 |        11728 |        11728 |        11728 |        11728 |        23530 |        23530 |        23530 |        23530 |        59534 |        59534 |        59534 |        59534 |       437165 |       437165 |       437165 |       437165 |
dtlb.replacements                                0 |            0 |            0 |            0 |            0 |            0 |            0 |            0 |            0 |            0 |            0 |            0 |            0 |            0 |            0 |            0 |           75 |           75 |           75 |           75 |         2299 |         2299 |         2299 |         2299 |         5286 |         5286 |         5286 |         5286 |        11600 |        11600 |        11600 |        11600 |        23402 |        23402 |        23402 |        23402 |        59406 |        59406 |        59406 |        59406 |       437037 |       437037 |       437037 |       437037 |
dtlb.writebacks                                  0 |            0 |            0 |            0 |            0 |            0 |            0 |            0 |            0 |            0 |            0 |            0 |            0 |            0 |            0 |            0 |           50 |           50 |           50 |           50 |         1335 |         1335 |         1335 |         1335 |         3030 |         3030 |         3030 |         3030 |         6579 |         6579 |         6579 |         6579 |        13203 |        13203 |        13203 |        13203 |        26452 |        26452 |        26452 |        26452 |        52937 |        52937 |        52937 |        52937 |
dtlb.invalidations                               0 |            0 |            0 |            0 |            0 |            0 |            0 |            0 |            0 |            0 |            0 |            0 |            0 |            0 |            0 |            0 |            0 |            0 |            0 |            0 |            0 |            0 |            0 |            0 |            0 |            0 |            0 |            0 |            0 |            0 |            0 |            0 |            0 |            0 |            0 |            0 |            0 |            0 |            0 |            0 |            0 |            0 |            0 |            0 |
dtlb.miss_rate                              0.0001 |       0.0001 |       0.0001 |       0.0001 |       0.0000 |       0.0000 |       0.0000 |       0.0000 |       0.0000 |       0.0000 |       0.0000 |       0.0000 |       0.0000 |       0.0000 |       0.0000 |       0.0000 |       0.0000 |       0.0000 |       0.0000 |       0.0000 |       0.0002 |       0.0002 |       0.0002 |       0.0002 |       0.0002 |       0.0002 |       0.0002 |       0.0002 |       0.0002 |       0.0002 |       0.0002 |       0.0002 |       0.0002 |       0.0002 |       0.0002 |       0.0002 |       0.0002 |       0.0002 |       0.0002 |       0.0002 |       0.0007 |       0.0007 |       0.0007 |       0.0007 |
dtlb.repl_rate                              0.0000 |       0.0000 |       0.0000 |       0.0000 |       0.0000 |       0.0000 |       0.0000 |       0.0000 |       0.0000 |       0.0000 |       0.0000 |       0.0000 |       0.0000 |       0.0000 |       0.0000 |       0.0000 |       0.0000 |       0.0000 |       0.0000 |       0.0000 |       0.0002 |       0.0002 |       0.0002 |       0.0002 |       0.0002 |       0.0002 |       0.0002 |       0.0002 |       0.0002 |       0.0002 |       0.0002 |       0.0002 |       0.0002 |       0.0002 |       0.0002 |       0.0002 |       0.0002 |       0.0002 |       0.0002 |       0.0002 |       0.0007 |       0.0007 |       0.0007 |       0.0007 |
dtlb.wb_rate                                0.0000 |       0.0000 |       0.0000 |       0.0000 |       0.0000 |       0.0000 |       0.0000 |       0.0000 |       0.0000 |       0.0000 |       0.0000 |       0.0000 |       0.0000 |       0.0000 |       0.0000 |       0.0000 |       0.0000 |       0.0000 |       0.0000 |       0.0000 |       0.0001 |       0.0001 |       0.0001 |       0.0001 |       0.0001 |       0.0001 |       0.0001 |       0.0001 |       0.0001 |       0.0001 |       0.0001 |       0.0001 |       0.0001 |       0.0001 |       0.0001 |       0.0001 |       0.0001 |       0.0001 |       0.0001 |       0.0001 |       0.0001 |       0.0001 |       0.0001 |       0.0001 |
dtlb.inv_rate                               0.0000 |       0.0000 |       0.0000 |       0.0000 |       0.0000 |       0.0000 |       0.0000 |       0.0000 |       0.0000 |       0.0000 |       0.0000 |       0.0000 |       0.0000 |       0.0000 |       0.0000 |       0.0000 |       0.0000 |       0.0000 |       0.0000 |       0.0000 |       0.0000 |       0.0000 |       0.0000 |       0.0000 |       0.0000 |       0.0000 |       0.0000 |       0.0000 |       0.0000 |       0.0000 |       0.0000 |       0.0000 |       0.0000 |       0.0000 |       0.0000 |       0.0000 |       0.0000 |       0.0000 |       0.0000 |       0.0000 |       0.0000 |       0.0000 |       0.0000 |       0.0000 |
ld_text_base                            0x00400000 |   0x00400000 |   0x00400000 |   0x00400000 |   0x00400000 |   0x00400000 |   0x00400000 |   0x00400000 |   0x00400000 |   0x00400000 |   0x00400000 |   0x00400000 |   0x00400000 |   0x00400000 |   0x00400000 |   0x00400000 |   0x00400000 |   0x00400000 |   0x00400000 |   0x00400000 |   0x00400000 |   0x00400000 |   0x00400000 |   0x00400000 |   0x00400000 |   0x00400000 |   0x00400000 |   0x00400000 |   0x00400000 |   0x00400000 |   0x00400000 |   0x00400000 |   0x00400000 |   0x00400000 |   0x00400000 |   0x00400000 |   0x00400000 |   0x00400000 |   0x00400000 |   0x00400000 |   0x00400000 |   0x00400000 |   0x00400000 |   0x00400000 |
ld_text_size                                 94704 |        94704 |        94704 |        94704 |        94736 |        94736 |        94736 |        94736 |        94752 |        94752 |        94752 |        94752 |        94768 |        94768 |        94768 |        94768 |        94768 |        94768 |        94768 |        94768 |        94768 |        94768 |        94768 |        94768 |        94768 |        94768 |        94768 |        94768 |        94768 |        94768 |        94768 |        94768 |        94768 |        94768 |        94768 |        94768 |        94768 |        94768 |        94768 |        94768 |        94768 |        94768 |        94768 |        94768 |
ld_data_base                            0x10000000 |   0x10000000 |   0x10000000 |   0x10000000 |   0x10000000 |   0x10000000 |   0x10000000 |   0x10000000 |   0x10000000 |   0x10000000 |   0x10000000 |   0x10000000 |   0x10000000 |   0x10000000 |   0x10000000 |   0x10000000 |   0x10000000 |   0x10000000 |   0x10000000 |   0x10000000 |   0x10000000 |   0x10000000 |   0x10000000 |   0x10000000 |   0x10000000 |   0x10000000 |   0x10000000 |   0x10000000 |   0x10000000 |   0x10000000 |   0x10000000 |   0x10000000 |   0x10000000 |   0x10000000 |   0x10000000 |   0x10000000 |   0x10000000 |   0x10000000 |   0x10000000 |   0x10000000 |   0x10000000 |   0x10000000 |   0x10000000 |   0x10000000 |
ld_data_size                                  8192 |         8192 |         8192 |         8192 |         8192 |         8192 |         8192 |         8192 |         8192 |         8192 |         8192 |         8192 |         8192 |         8192 |         8192 |         8192 |         8192 |         8192 |         8192 |         8192 |         8192 |         8192 |         8192 |         8192 |         8192 |         8192 |         8192 |         8192 |         8192 |         8192 |         8192 |         8192 |         8192 |         8192 |         8192 |         8192 |         8192 |         8192 |         8192 |         8192 |         8192 |         8192 |         8192 |         8192 |
ld_stack_base                           0x7fffc000 |   0x7fffc000 |   0x7fffc000 |   0x7fffc000 |   0x7fffc000 |   0x7fffc000 |   0x7fffc000 |   0x7fffc000 |   0x7fffc000 |   0x7fffc000 |   0x7fffc000 |   0x7fffc000 |   0x7fffc000 |   0x7fffc000 |   0x7fffc000 |   0x7fffc000 |   0x7fffc000 |   0x7fffc000 |   0x7fffc000 |   0x7fffc000 |   0x7fffc000 |   0x7fffc000 |   0x7fffc000 |   0x7fffc000 |   0x7fffc000 |   0x7fffc000 |   0x7fffc000 |   0x7fffc000 |   0x7fffc000 |   0x7fffc000 |   0x7fffc000 |   0x7fffc000 |   0x7fffc000 |   0x7fffc000 |   0x7fffc000 |   0x7fffc000 |   0x7fffc000 |   0x7fffc000 |   0x7fffc000 |   0x7fffc000 |   0x7fffc000 |   0x7fffc000 |   0x7fffc000 |   0x7fffc000 |
ld_stack_size                                16384 |        16384 |        16384 |        16384 |        16384 |        16384 |        16384 |        16384 |        16384 |        16384 |        16384 |        16384 |        16384 |        16384 |        16384 |        16384 |        16384 |        16384 |        16384 |        16384 |        16384 |        16384 |        16384 |        16384 |        16384 |        16384 |        16384 |        16384 |        16384 |        16384 |        16384 |        16384 |        16384 |        16384 |        16384 |        16384 |        16384 |        16384 |        16384 |        16384 |        16384 |        16384 |        16384 |        16384 |
ld_prog_entry                           0x00400140 |   0x00400140 |   0x00400140 |   0x00400140 |   0x00400140 |   0x00400140 |   0x00400140 |   0x00400140 |   0x00400140 |   0x00400140 |   0x00400140 |   0x00400140 |   0x00400140 |   0x00400140 |   0x00400140 |   0x00400140 |   0x00400140 |   0x00400140 |   0x00400140 |   0x00400140 |   0x00400140 |   0x00400140 |   0x00400140 |   0x00400140 |   0x00400140 |   0x00400140 |   0x00400140 |   0x00400140 |   0x00400140 |   0x00400140 |   0x00400140 |   0x00400140 |   0x00400140 |   0x00400140 |   0x00400140 |   0x00400140 |   0x00400140 |   0x00400140 |   0x00400140 |   0x00400140 |   0x00400140 |   0x00400140 |   0x00400140 |   0x00400140 |
ld_environ_base                         0x7fff8000 |   0x7fff8000 |   0x7fff8000 |   0x7fff8000 |   0x7fff8000 |   0x7fff8000 |   0x7fff8000 |   0x7fff8000 |   0x7fff8000 |   0x7fff8000 |   0x7fff8000 |   0x7fff8000 |   0x7fff8000 |   0x7fff8000 |   0x7fff8000 |   0x7fff8000 |   0x7fff8000 |   0x7fff8000 |   0x7fff8000 |   0x7fff8000 |   0x7fff8000 |   0x7fff8000 |   0x7fff8000 |   0x7fff8000 |   0x7fff8000 |   0x7fff8000 |   0x7fff8000 |   0x7fff8000 |   0x7fff8000 |   0x7fff8000 |   0x7fff8000 |   0x7fff8000 |   0x7fff8000 |   0x7fff8000 |   0x7fff8000 |   0x7fff8000 |   0x7fff8000 |   0x7fff8000 |   0x7fff8000 |   0x7fff8000 |   0x7fff8000 |   0x7fff8000 |   0x7fff8000 |   0x7fff8000 |
ld_target_big_endian                             0 |            0 |            0 |            0 |            0 |            0 |            0 |            0 |            0 |            0 |            0 |            0 |            0 |            0 |            0 |            0 |            0 |            0 |            0 |            0 |            0 |            0 |            0 |            0 |            0 |            0 |            0 |            0 |            0 |            0 |            0 |            0 |            0 |            0 |            0 |            0 |            0 |            0 |            0 |            0 |            0 |            0 |            0 |            0 |
mem.page_count                                  40 |           40 |           40 |           40 |           48 |           48 |           48 |           48 |           64 |           64 |           64 |           64 |           96 |           96 |           96 |           96 |          160 |          160 |          160 |          160 |          288 |          288 |          288 |          288 |          544 |          544 |          544 |          544 |         1062 |         1062 |         1062 |         1062 |         2086 |         2086 |         2086 |         2086 |         4140 |         4140 |         4140 |         4140 |         8248 |         8248 |         8248 |         8248 |
mem.page_mem                                  160k |         160k |         160k |         160k |         192k |         192k |         192k |         192k |         256k |         256k |         256k |         256k |         384k |         384k |         384k |         384k |         640k |         640k |         640k |         640k |        1152k |        1152k |        1152k |        1152k |        2176k |        2176k |        2176k |        2176k |        4248k |        4248k |        4248k |        4248k |        8344k |        8344k |        8344k |        8344k |       16560k |       16560k |       16560k |       16560k |       32992k |       32992k |       32992k |       32992k |
mem.ptab_misses                                 40 |           40 |           40 |           40 |           48 |           48 |           48 |           48 |           64 |           64 |           64 |           64 |           96 |           96 |           96 |           96 |          160 |          160 |          160 |          160 |          288 |          288 |          288 |          288 |          544 |          544 |          544 |          544 |         1067 |         1067 |         1067 |         1067 |        80037 |        80037 |        80037 |        80037 |        84645 |        84645 |        84645 |        84645 |        86201 |        86201 |        86201 |        86201 |
mem.ptab_accesses                          4518970 |      4518970 |      4518970 |      4518970 |      8606088 |      8606088 |      8606088 |      8606088 |     18662426 |     18662426 |     18662426 |     18662426 |     37427302 |     37427302 |     37427302 |     37427302 |     82604418 |     82604418 |     82604418 |     82604418 |    167620642 |    167620642 |    167620642 |    167620642 |    354233558 |    354233558 |    354233558 |    354233558 |   1020149928 |   1020149928 |   1020149928 |   1020149928 |   2161847590 |   2161847590 |   2161847590 |   2161847590 |   4725869788 |   4725869788 |   4725869788 |   4725869788 |   9989081098 |   9989081098 |   9989081098 |   9989081098 |
mem.ptab_miss_rate                          0.0000 |       0.0000 |       0.0000 |       0.0000 |       0.0000 |       0.0000 |       0.0000 |       0.0000 |       0.0000 |       0.0000 |       0.0000 |       0.0000 |       0.0000 |       0.0000 |       0.0000 |       0.0000 |       0.0000 |       0.0000 |       0.0000 |       0.0000 |       0.0000 |       0.0000 |       0.0000 |       0.0000 |       0.0000 |       0.0000 |       0.0000 |       0.0000 |       0.0000 |       0.0000 |       0.0000 |       0.0000 |       0.0000 |       0.0000 |       0.0000 |       0.0000 |       0.0000 |       0.0000 |       0.0000 |       0.0000 |       0.0000 |       0.0000 |       0.0000 |       0.0000 |
-------------------------------------------------------------------------------------------------
sim-bpred                                     4096 |         4096 |         4096 |         4096 |         4096 |         4096 |         4096 |         8192 |         8192 |         8192 |         8192 |         8192 |         8192 |         8192 |        16384 |        16384 |        16384 |        16384 |        16384 |        16384 |        16384 |        32768 |        32768 |        32768 |        32768 |        32768 |        32768 |        32768 |        65536 |        65536 |        65536 |        65536 |        65536 |        65536 |        65536 |       131072 |       131072 |       131072 |       131072 |       131072 |       131072 |       131072 |       262144 |       262144 |       262144 |       262144 |       262144 |       262144 |       262144 |       524288 |       524288 |       524288 |       524288 |       524288 |       524288 |       524288 |      1048576 |      1048576 |      1048576 |      1048576 |      1048576 |      1048576 |      1048576 |      2097152 |      2097152 |      2097152 |      2097152 |      2097152 |      2097152 |      2097152 |      4194304 |      4194304 |      4194304 |      4194304 |      4194304 |      4194304 |      4194304 |
-bpred bimod -bpred:bimod 512
-bpred bimod -bpred:bimod 1024
-bpred bimod -bpred:bimod 2048
-bpred 2lev -bpred:2lev 1 512 10 1
-bpred 2lev -bpred:2lev 1 1024 10 1
-bpred 2lev -bpred:2lev 1 2048 10 1
-bpred 2lev -bpred:2lev 1 4096 10 1
-------------------------------------------------------------------------------------------------
sim_num_insn                                861176 |       861176 |       861176 |       861176 |       861176 |       861176 |       861176 |      1753134 |      1753134 |      1753134 |      1753134 |      1753134 |      1753134 |      1753134 |      3961059 |      3961059 |      3961059 |      3961059 |      3961059 |      3961059 |      3961059 |      8060278 |      8060278 |      8060278 |      8060278 |      8060278 |      8060278 |      8060278 |     17981873 |     17981873 |     17981873 |     17981873 |     17981873 |     17981873 |     17981873 |     36569896 |     36569896 |     36569896 |     36569896 |     36569896 |     36569896 |     36569896 |     77447051 |     77447051 |     77447051 |     77447051 |     77447051 |     77447051 |     77447051 |    223372733 |    223372733 |    223372733 |    223372733 |    223372733 |    223372733 |    223372733 |    473144791 |    473144791 |    473144791 |    473144791 |    473144791 |    473144791 |    473144791 |   1035549878 |   1035549878 |   1035549878 |   1035549878 |   1035549878 |   1035549878 |   1035549878 |   2186588328 |   2186588328 |   2186588328 |   2186588328 |   2186588328 |   2186588328 |   2186588328 |
sim_num_refs                                229236 |       229236 |       229236 |       229236 |       229236 |       229236 |       229236 |       472399 |       472399 |       472399 |       472399 |       472399 |       472399 |       472399 |      1051902 |      1051902 |      1051902 |      1051902 |      1051902 |      1051902 |      1051902 |      2170318 |      2170318 |      2170318 |      2170318 |      2170318 |      2170318 |      2170318 |      4784614 |      4784614 |      4784614 |      4784614 |      4784614 |      4784614 |      4784614 |      9854536 |      9854536 |      9854536 |      9854536 |      9854536 |      9854536 |      9854536 |     20882396 |     20882396 |     20882396 |     20882396 |     20882396 |     20882396 |     20882396 |     60940641 |     60940641 |     60940641 |     60940641 |     60940641 |     60940641 |     60940641 |    130148204 |    130148204 |    130148204 |    130148204 |    130148204 |    130148204 |    130148204 |    283154825 |    283154825 |    283154825 |    283154825 |    283154825 |    283154825 |    283154825 |    604294972 |    604294972 |    604294972 |    604294972 |    604294972 |    604294972 |    604294972 |
sim_elapsed_time                                 1 |            1 |            1 |            1 |            1 |            1 |            1 |            1 |            1 |            1 |            1 |            1 |            1 |            1 |            1 |            1 |            1 |            1 |            1 |            1 |            1 |            1 |            1 |            1 |            1 |            1 |            1 |            1 |            2 |            2 |            2 |            2 |            2 |            2 |            2 |            3 |            3 |            4 |            4 |            4 |            4 |            4 |            8 |            8 |            8 |            8 |            8 |            8 |            8 |           24 |           24 |           24 |           24 |           24 |           25 |           24 |           51 |           52 |           51 |           52 |           52 |           52 |           52 |          112 |          112 |          112 |          114 |          113 |          114 |          113 |          238 |          239 |          237 |          242 |          242 |          241 |          241 |
sim_inst_rate                          861176.0000 |  861176.0000 |  861176.0000 |  861176.0000 |  861176.0000 |  861176.0000 |  861176.0000 | 1753134.0000 | 1753134.0000 | 1753134.0000 | 1753134.0000 | 1753134.0000 | 1753134.0000 | 1753134.0000 | 3961059.0000 | 3961059.0000 | 3961059.0000 | 3961059.0000 | 3961059.0000 | 3961059.0000 | 3961059.0000 | 8060278.0000 | 8060278.0000 | 8060278.0000 | 8060278.0000 | 8060278.0000 | 8060278.0000 | 8060278.0000 | 8990936.5000 | 8990936.5000 | 8990936.5000 | 8990936.5000 | 8990936.5000 | 8990936.5000 | 8990936.5000 |12189965.3333 |12189965.3333 | 9142474.0000 | 9142474.0000 | 9142474.0000 | 9142474.0000 | 9142474.0000 | 9680881.3750 | 9680881.3750 | 9680881.3750 | 9680881.3750 | 9680881.3750 | 9680881.3750 | 9680881.3750 | 9307197.2083 | 9307197.2083 | 9307197.2083 | 9307197.2083 | 9307197.2083 | 8934909.3200 | 9307197.2083 | 9277348.8431 | 9098938.2885 | 9277348.8431 | 9098938.2885 | 9098938.2885 | 9098938.2885 | 9098938.2885 | 9245981.0536 | 9245981.0536 | 9245981.0536 | 9083770.8596 | 9164158.2124 | 9083770.8596 | 9164158.2124 | 9187345.9160 | 9148905.1381 | 9226111.0886 | 9035488.9587 | 9035488.9587 | 9072980.6141 | 9072980.6141 |
sim_num_branches                            113166 |       113166 |       113166 |       113166 |       113166 |       113166 |       113166 |       235991 |       235991 |       235991 |       235991 |       235991 |       235991 |       235991 |       515079 |       515079 |       515079 |       515079 |       515079 |       515079 |       515079 |      1071266 |      1071266 |      1071266 |      1071266 |      1071266 |      1071266 |      1071266 |      2319553 |      2319553 |      2319553 |      2319553 |      2319553 |      2319553 |      2319553 |      4812070 |      4812070 |      4812070 |      4812070 |      4812070 |      4812070 |      4812070 |     10147160 |     10147160 |     10147160 |     10147160 |     10147160 |     10147160 |     10147160 |     30675922 |     30675922 |     30675922 |     30675922 |     30675922 |     30675922 |     30675922 |     67175430 |     67175430 |     67175430 |     67175430 |     67175430 |     67175430 |     67175430 |    145942832 |    145942832 |    145942832 |    145942832 |    145942832 |    145942832 |    145942832 |    314547819 |    314547819 |    314547819 |    314547819 |    314547819 |    314547819 |    314547819 |
sim_IPB                                     7.6098 |       7.6098 |       7.6098 |       7.6098 |       7.6098 |       7.6098 |       7.6098 |       7.4288 |       7.4288 |       7.4288 |       7.4288 |       7.4288 |       7.4288 |       7.4288 |       7.6902 |       7.6902 |       7.6902 |       7.6902 |       7.6902 |       7.6902 |       7.6902 |       7.5241 |       7.5241 |       7.5241 |       7.5241 |       7.5241 |       7.5241 |       7.5241 |       7.7523 |       7.7523 |       7.7523 |       7.7523 |       7.7523 |       7.7523 |       7.7523 |       7.5996 |       7.5996 |       7.5996 |       7.5996 |       7.5996 |       7.5996 |       7.5996 |       7.6324 |       7.6324 |       7.6324 |       7.6324 |       7.6324 |       7.6324 |       7.6324 |       7.2817 |       7.2817 |       7.2817 |       7.2817 |       7.2817 |       7.2817 |       7.2817 |       7.0434 |       7.0434 |       7.0434 |       7.0434 |       7.0434 |       7.0434 |       7.0434 |       7.0956 |       7.0956 |       7.0956 |       7.0956 |       7.0956 |       7.0956 |       7.0956 |       6.9515 |       6.9515 |       6.9515 |       6.9515 |       6.9515 |       6.9515 |       6.9515 |
bpred_bimod.lookups                         113166 |       113166 |       113166 |xxxxxxxxxxxxx |xxxxxxxxxxxxx |xxxxxxxxxxxxx |xxxxxxxxxxxxx |       235991 |       235991 |       235991 |xxxxxxxxxxxxx |xxxxxxxxxxxxx |xxxxxxxxxxxxx |xxxxxxxxxxxxx |       515079 |       515079 |       515079 |xxxxxxxxxxxxx |xxxxxxxxxxxxx |xxxxxxxxxxxxx |xxxxxxxxxxxxx |      1071266 |      1071266 |      1071266 |xxxxxxxxxxxxx |xxxxxxxxxxxxx |xxxxxxxxxxxxx |xxxxxxxxxxxxx |      2319553 |      2319553 |      2319553 |xxxxxxxxxxxxx |xxxxxxxxxxxxx |xxxxxxxxxxxxx |xxxxxxxxxxxxx |      4812070 |      4812070 |      4812070 |xxxxxxxxxxxxx |xxxxxxxxxxxxx |xxxxxxxxxxxxx |xxxxxxxxxxxxx |     10147160 |     10147160 |     10147160 |xxxxxxxxxxxxx |xxxxxxxxxxxxx |xxxxxxxxxxxxx |xxxxxxxxxxxxx |     30675922 |     30675922 |     30675922 |xxxxxxxxxxxxx |xxxxxxxxxxxxx |xxxxxxxxxxxxx |xxxxxxxxxxxxx |     67175430 |     67175430 |     67175430 |xxxxxxxxxxxxx |xxxxxxxxxxxxx |xxxxxxxxxxxxx |xxxxxxxxxxxxx |    145942832 |    145942832 |    145942832 |xxxxxxxxxxxxx |xxxxxxxxxxxxx |xxxxxxxxxxxxx |xxxxxxxxxxxxx |    314547819 |    314547819 |    314547819 |
bpred_bimod.updates                         113166 |       113166 |       113166 |xxxxxxxxxxxxx |xxxxxxxxxxxxx |xxxxxxxxxxxxx |xxxxxxxxxxxxx |       235991 |       235991 |       235991 |xxxxxxxxxxxxx |xxxxxxxxxxxxx |xxxxxxxxxxxxx |xxxxxxxxxxxxx |       515079 |       515079 |       515079 |xxxxxxxxxxxxx |xxxxxxxxxxxxx |xxxxxxxxxxxxx |xxxxxxxxxxxxx |      1071266 |      1071266 |      1071266 |xxxxxxxxxxxxx |xxxxxxxxxxxxx |xxxxxxxxxxxxx |xxxxxxxxxxxxx |      2319553 |      2319553 |      2319553 |xxxxxxxxxxxxx |xxxxxxxxxxxxx |xxxxxxxxxxxxx |xxxxxxxxxxxxx |      4812070 |      4812070 |      4812070 |xxxxxxxxxxxxx |xxxxxxxxxxxxx |xxxxxxxxxxxxx |xxxxxxxxxxxxx |     10147160 |     10147160 |     10147160 |xxxxxxxxxxxxx |xxxxxxxxxxxxx |xxxxxxxxxxxxx |xxxxxxxxxxxxx |     30675922 |     30675922 |     30675922 |xxxxxxxxxxxxx |xxxxxxxxxxxxx |xxxxxxxxxxxxx |xxxxxxxxxxxxx |     67175430 |     67175430 |     67175430 |xxxxxxxxxxxxx |xxxxxxxxxxxxx |xxxxxxxxxxxxx |xxxxxxxxxxxxx |    145942832 |    145942832 |    145942832 |xxxxxxxxxxxxx |xxxxxxxxxxxxx |xxxxxxxxxxxxx |xxxxxxxxxxxxx |    314547819 |    314547819 |    314547819 |
bpred_bimod.addr_hits                        87534 |        87546 |        87551 |xxxxxxxxxxxxx |xxxxxxxxxxxxx |xxxxxxxxxxxxx |xxxxxxxxxxxxx |       184249 |       184256 |       184260 |xxxxxxxxxxxxx |xxxxxxxxxxxxx |xxxxxxxxxxxxx |xxxxxxxxxxxxx |       396766 |       396788 |       396793 |xxxxxxxxxxxxx |xxxxxxxxxxxxx |xxxxxxxxxxxxx |xxxxxxxxxxxxx |       832650 |       832667 |       832672 |xxxxxxxxxxxxx |xxxxxxxxxxxxx |xxxxxxxxxxxxx |xxxxxxxxxxxxx |      1781792 |      1781868 |      1781872 |xxxxxxxxxxxxx |xxxxxxxxxxxxx |xxxxxxxxxxxxx |xxxxxxxxxxxxx |      3726278 |      3726335 |      3726340 |xxxxxxxxxxxxx |xxxxxxxxxxxxx |xxxxxxxxxxxxx |xxxxxxxxxxxxx |      7845316 |      7845403 |      7845462 |xxxxxxxxxxxxx |xxxxxxxxxxxxx |xxxxxxxxxxxxx |xxxxxxxxxxxxx |     24447998 |     24448529 |     24448531 |xxxxxxxxxxxxx |xxxxxxxxxxxxx |xxxxxxxxxxxxx |xxxxxxxxxxxxx |     54424985 |     54425308 |     54425294 |xxxxxxxxxxxxx |xxxxxxxxxxxxx |xxxxxxxxxxxxx |xxxxxxxxxxxxx |    116865955 |    116867985 |    116868000 |xxxxxxxxxxxxx |xxxxxxxxxxxxx |xxxxxxxxxxxxx |xxxxxxxxxxxxx |    252088052 |    252089473 |    252089474 |
bpred_bimod.dir_hits                         87682 |        87694 |        87698 |xxxxxxxxxxxxx |xxxxxxxxxxxxx |xxxxxxxxxxxxx |xxxxxxxxxxxxx |       184403 |       184408 |       184412 |xxxxxxxxxxxxx |xxxxxxxxxxxxx |xxxxxxxxxxxxx |xxxxxxxxxxxxx |       396917 |       396935 |       396940 |xxxxxxxxxxxxx |xxxxxxxxxxxxx |xxxxxxxxxxxxx |xxxxxxxxxxxxx |       832799 |       832817 |       832822 |xxxxxxxxxxxxx |xxxxxxxxxxxxx |xxxxxxxxxxxxx |xxxxxxxxxxxxx |      1781937 |      1782013 |      1782017 |xxxxxxxxxxxxx |xxxxxxxxxxxxx |xxxxxxxxxxxxx |xxxxxxxxxxxxx |      3726429 |      3726487 |      3726492 |xxxxxxxxxxxxx |xxxxxxxxxxxxx |xxxxxxxxxxxxx |xxxxxxxxxxxxx |      7845469 |      7845557 |      7845617 |xxxxxxxxxxxxx |xxxxxxxxxxxxx |xxxxxxxxxxxxx |xxxxxxxxxxxxx |     24448225 |     24448753 |     24448752 |xxxxxxxxxxxxx |xxxxxxxxxxxxx |xxxxxxxxxxxxx |xxxxxxxxxxxxx |     54425222 |     54425543 |     54425525 |xxxxxxxxxxxxx |xxxxxxxxxxxxx |xxxxxxxxxxxxx |xxxxxxxxxxxxx |    116866189 |    116868216 |    116868229 |xxxxxxxxxxxxx |xxxxxxxxxxxxx |xxxxxxxxxxxxx |xxxxxxxxxxxxx |    252088291 |    252089710 |    252089708 |
bpred_bimod.misses                           25484 |        25472 |        25468 |xxxxxxxxxxxxx |xxxxxxxxxxxxx |xxxxxxxxxxxxx |xxxxxxxxxxxxx |        51588 |        51583 |        51579 |xxxxxxxxxxxxx |xxxxxxxxxxxxx |xxxxxxxxxxxxx |xxxxxxxxxxxxx |       118162 |       118144 |       118139 |xxxxxxxxxxxxx |xxxxxxxxxxxxx |xxxxxxxxxxxxx |xxxxxxxxxxxxx |       238467 |       238449 |       238444 |xxxxxxxxxxxxx |xxxxxxxxxxxxx |xxxxxxxxxxxxx |xxxxxxxxxxxxx |       537616 |       537540 |       537536 |xxxxxxxxxxxxx |xxxxxxxxxxxxx |xxxxxxxxxxxxx |xxxxxxxxxxxxx |      1085641 |      1085583 |      1085578 |xxxxxxxxxxxxx |xxxxxxxxxxxxx |xxxxxxxxxxxxx |xxxxxxxxxxxxx |      2301691 |      2301603 |      2301543 |xxxxxxxxxxxxx |xxxxxxxxxxxxx |xxxxxxxxxxxxx |xxxxxxxxxxxxx |      6227697 |      6227169 |      6227170 |xxxxxxxxxxxxx |xxxxxxxxxxxxx |xxxxxxxxxxxxx |xxxxxxxxxxxxx |     12750208 |     12749887 |     12749905 |xxxxxxxxxxxxx |xxxxxxxxxxxxx |xxxxxxxxxxxxx |xxxxxxxxxxxxx |     29076643 |     29074616 |     29074603 |xxxxxxxxxxxxx |xxxxxxxxxxxxx |xxxxxxxxxxxxx |xxxxxxxxxxxxx |     62459528 |     62458109 |     62458111 |
bpred_bimod.jr_hits                             79 |           79 |           79 |xxxxxxxxxxxxx |xxxxxxxxxxxxx |xxxxxxxxxxxxx |xxxxxxxxxxxxx |           87 |           87 |           87 |xxxxxxxxxxxxx |xxxxxxxxxxxxx |xxxxxxxxxxxxx |xxxxxxxxxxxxx |          103 |          103 |          103 |xxxxxxxxxxxxx |xxxxxxxxxxxxx |xxxxxxxxxxxxx |xxxxxxxxxxxxx |          135 |          135 |          135 |xxxxxxxxxxxxx |xxxxxxxxxxxxx |xxxxxxxxxxxxx |xxxxxxxxxxxxx |          199 |          199 |          199 |xxxxxxxxxxxxx |xxxxxxxxxxxxx |xxxxxxxxxxxxx |xxxxxxxxxxxxx |          327 |          327 |          327 |xxxxxxxxxxxxx |xxxxxxxxxxxxx |xxxxxxxxxxxxx |xxxxxxxxxxxxx |          583 |          583 |          583 |xxxxxxxxxxxxx |xxxxxxxxxxxxx |xxxxxxxxxxxxx |xxxxxxxxxxxxx |       525413 |       525413 |       525413 |xxxxxxxxxxxxx |xxxxxxxxxxxxx |xxxxxxxxxxxxx |xxxxxxxxxxxxx |      1050727 |      1050727 |      1050727 |xxxxxxxxxxxxx |xxxxxxxxxxxxx |xxxxxxxxxxxxx |xxxxxxxxxxxxx |      2101355 |      2101355 |      2101355 |xxxxxxxxxxxxx |xxxxxxxxxxxxx |xxxxxxxxxxxxx |xxxxxxxxxxxxx |      4202611 |      4202611 |      4202611 |
bpred_bimod.jr_seen                             80 |           80 |           80 |xxxxxxxxxxxxx |xxxxxxxxxxxxx |xxxxxxxxxxxxx |xxxxxxxxxxxxx |           88 |           88 |           88 |xxxxxxxxxxxxx |xxxxxxxxxxxxx |xxxxxxxxxxxxx |xxxxxxxxxxxxx |          104 |          104 |          104 |xxxxxxxxxxxxx |xxxxxxxxxxxxx |xxxxxxxxxxxxx |xxxxxxxxxxxxx |          136 |          136 |          136 |xxxxxxxxxxxxx |xxxxxxxxxxxxx |xxxxxxxxxxxxx |xxxxxxxxxxxxx |          200 |          200 |          200 |xxxxxxxxxxxxx |xxxxxxxxxxxxx |xxxxxxxxxxxxx |xxxxxxxxxxxxx |          328 |          328 |          328 |xxxxxxxxxxxxx |xxxxxxxxxxxxx |xxxxxxxxxxxxx |xxxxxxxxxxxxx |          584 |          584 |          584 |xxxxxxxxxxxxx |xxxxxxxxxxxxx |xxxxxxxxxxxxx |xxxxxxxxxxxxx |       525414 |       525414 |       525414 |xxxxxxxxxxxxx |xxxxxxxxxxxxx |xxxxxxxxxxxxx |xxxxxxxxxxxxx |      1050728 |      1050728 |      1050728 |xxxxxxxxxxxxx |xxxxxxxxxxxxx |xxxxxxxxxxxxx |xxxxxxxxxxxxx |      2101356 |      2101356 |      2101356 |xxxxxxxxxxxxx |xxxxxxxxxxxxx |xxxxxxxxxxxxx |xxxxxxxxxxxxx |      4202612 |      4202612 |      4202612 |
bpred_bimod.jr_non_ras_hits.PP                   0 |            0 |            0 |xxxxxxxxxxxxx |xxxxxxxxxxxxx |xxxxxxxxxxxxx |xxxxxxxxxxxxx |            0 |            0 |            0 |xxxxxxxxxxxxx |xxxxxxxxxxxxx |xxxxxxxxxxxxx |xxxxxxxxxxxxx |            0 |            0 |            0 |xxxxxxxxxxxxx |xxxxxxxxxxxxx |xxxxxxxxxxxxx |xxxxxxxxxxxxx |            0 |            0 |            0 |xxxxxxxxxxxxx |xxxxxxxxxxxxx |xxxxxxxxxxxxx |xxxxxxxxxxxxx |            0 |            0 |            0 |xxxxxxxxxxxxx |xxxxxxxxxxxxx |xxxxxxxxxxxxx |xxxxxxxxxxxxx |            0 |            0 |            0 |xxxxxxxxxxxxx |xxxxxxxxxxxxx |xxxxxxxxxxxxx |xxxxxxxxxxxxx |            0 |            0 |            0 |xxxxxxxxxxxxx |xxxxxxxxxxxxx |xxxxxxxxxxxxx |xxxxxxxxxxxxx |            0 |            0 |            0 |xxxxxxxxxxxxx |xxxxxxxxxxxxx |xxxxxxxxxxxxx |xxxxxxxxxxxxx |            0 |            0 |            0 |xxxxxxxxxxxxx |xxxxxxxxxxxxx |xxxxxxxxxxxxx |xxxxxxxxxxxxx |            0 |            0 |            0 |xxxxxxxxxxxxx |xxxxxxxxxxxxx |xxxxxxxxxxxxx |xxxxxxxxxxxxx |            0 |            0 |            0 |
bpred_bimod.jr_non_ras_seen.PP                   0 |            0 |            0 |xxxxxxxxxxxxx |xxxxxxxxxxxxx |xxxxxxxxxxxxx |xxxxxxxxxxxxx |            0 |            0 |            0 |xxxxxxxxxxxxx |xxxxxxxxxxxxx |xxxxxxxxxxxxx |xxxxxxxxxxxxx |            0 |            0 |            0 |xxxxxxxxxxxxx |xxxxxxxxxxxxx |xxxxxxxxxxxxx |xxxxxxxxxxxxx |            0 |            0 |            0 |xxxxxxxxxxxxx |xxxxxxxxxxxxx |xxxxxxxxxxxxx |xxxxxxxxxxxxx |            0 |            0 |            0 |xxxxxxxxxxxxx |xxxxxxxxxxxxx |xxxxxxxxxxxxx |xxxxxxxxxxxxx |            0 |            0 |            0 |xxxxxxxxxxxxx |xxxxxxxxxxxxx |xxxxxxxxxxxxx |xxxxxxxxxxxxx |            0 |            0 |            0 |xxxxxxxxxxxxx |xxxxxxxxxxxxx |xxxxxxxxxxxxx |xxxxxxxxxxxxx |            1 |            1 |            1 |xxxxxxxxxxxxx |xxxxxxxxxxxxx |xxxxxxxxxxxxx |xxxxxxxxxxxxx |            1 |            1 |            1 |xxxxxxxxxxxxx |xxxxxxxxxxxxx |xxxxxxxxxxxxx |xxxxxxxxxxxxx |            1 |            1 |            1 |xxxxxxxxxxxxx |xxxxxxxxxxxxx |xxxxxxxxxxxxx |xxxxxxxxxxxxx |            1 |            1 |            1 |
bpred_bimod.bpred_addr_rate                 0.7735 |       0.7736 |       0.7737 |xxxxxxxxxxxxx |xxxxxxxxxxxxx |xxxxxxxxxxxxx |xxxxxxxxxxxxx |       0.7807 |       0.7808 |       0.7808 |xxxxxxxxxxxxx |xxxxxxxxxxxxx |xxxxxxxxxxxxx |xxxxxxxxxxxxx |       0.7703 |       0.7703 |       0.7704 |xxxxxxxxxxxxx |xxxxxxxxxxxxx |xxxxxxxxxxxxx |xxxxxxxxxxxxx |       0.7773 |       0.7773 |       0.7773 |xxxxxxxxxxxxx |xxxxxxxxxxxxx |xxxxxxxxxxxxx |xxxxxxxxxxxxx |       0.7682 |       0.7682 |       0.7682 |xxxxxxxxxxxxx |xxxxxxxxxxxxx |xxxxxxxxxxxxx |xxxxxxxxxxxxx |       0.7744 |       0.7744 |       0.7744 |xxxxxxxxxxxxx |xxxxxxxxxxxxx |xxxxxxxxxxxxx |xxxxxxxxxxxxx |       0.7732 |       0.7732 |       0.7732 |xxxxxxxxxxxxx |xxxxxxxxxxxxx |xxxxxxxxxxxxx |xxxxxxxxxxxxx |       0.7970 |       0.7970 |       0.7970 |xxxxxxxxxxxxx |xxxxxxxxxxxxx |xxxxxxxxxxxxx |xxxxxxxxxxxxx |       0.8102 |       0.8102 |       0.8102 |xxxxxxxxxxxxx |xxxxxxxxxxxxx |xxxxxxxxxxxxx |xxxxxxxxxxxxx |       0.8008 |       0.8008 |       0.8008 |xxxxxxxxxxxxx |xxxxxxxxxxxxx |xxxxxxxxxxxxx |xxxxxxxxxxxxx |       0.8014 |       0.8014 |       0.8014 |
bpred_bimod.bpred_dir_rate                  0.7748 |       0.7749 |       0.7750 |xxxxxxxxxxxxx |xxxxxxxxxxxxx |xxxxxxxxxxxxx |xxxxxxxxxxxxx |       0.7814 |       0.7814 |       0.7814 |xxxxxxxxxxxxx |xxxxxxxxxxxxx |xxxxxxxxxxxxx |xxxxxxxxxxxxx |       0.7706 |       0.7706 |       0.7706 |xxxxxxxxxxxxx |xxxxxxxxxxxxx |xxxxxxxxxxxxx |xxxxxxxxxxxxx |       0.7774 |       0.7774 |       0.7774 |xxxxxxxxxxxxx |xxxxxxxxxxxxx |xxxxxxxxxxxxx |xxxxxxxxxxxxx |       0.7682 |       0.7683 |       0.7683 |xxxxxxxxxxxxx |xxxxxxxxxxxxx |xxxxxxxxxxxxx |xxxxxxxxxxxxx |       0.7744 |       0.7744 |       0.7744 |xxxxxxxxxxxxx |xxxxxxxxxxxxx |xxxxxxxxxxxxx |xxxxxxxxxxxxx |       0.7732 |       0.7732 |       0.7732 |xxxxxxxxxxxxx |xxxxxxxxxxxxx |xxxxxxxxxxxxx |xxxxxxxxxxxxx |       0.7970 |       0.7970 |       0.7970 |xxxxxxxxxxxxx |xxxxxxxxxxxxx |xxxxxxxxxxxxx |xxxxxxxxxxxxx |       0.8102 |       0.8102 |       0.8102 |xxxxxxxxxxxxx |xxxxxxxxxxxxx |xxxxxxxxxxxxx |xxxxxxxxxxxxx |       0.8008 |       0.8008 |       0.8008 |xxxxxxxxxxxxx |xxxxxxxxxxxxx |xxxxxxxxxxxxx |xxxxxxxxxxxxx |       0.8014 |       0.8014 |       0.8014 |
bpred_bimod.bpred_jr_rate                   0.9875 |       0.9875 |       0.9875 |xxxxxxxxxxxxx |xxxxxxxxxxxxx |xxxxxxxxxxxxx |xxxxxxxxxxxxx |       0.9886 |       0.9886 |       0.9886 |xxxxxxxxxxxxx |xxxxxxxxxxxxx |xxxxxxxxxxxxx |xxxxxxxxxxxxx |       0.9904 |       0.9904 |       0.9904 |xxxxxxxxxxxxx |xxxxxxxxxxxxx |xxxxxxxxxxxxx |xxxxxxxxxxxxx |       0.9926 |       0.9926 |       0.9926 |xxxxxxxxxxxxx |xxxxxxxxxxxxx |xxxxxxxxxxxxx |xxxxxxxxxxxxx |       0.9950 |       0.9950 |       0.9950 |xxxxxxxxxxxxx |xxxxxxxxxxxxx |xxxxxxxxxxxxx |xxxxxxxxxxxxx |       0.9970 |       0.9970 |       0.9970 |xxxxxxxxxxxxx |xxxxxxxxxxxxx |xxxxxxxxxxxxx |xxxxxxxxxxxxx |       0.9983 |       0.9983 |       0.9983 |xxxxxxxxxxxxx |xxxxxxxxxxxxx |xxxxxxxxxxxxx |xxxxxxxxxxxxx |       1.0000 |       1.0000 |       1.0000 |xxxxxxxxxxxxx |xxxxxxxxxxxxx |xxxxxxxxxxxxx |xxxxxxxxxxxxx |       1.0000 |       1.0000 |       1.0000 |xxxxxxxxxxxxx |xxxxxxxxxxxxx |xxxxxxxxxxxxx |xxxxxxxxxxxxx |       1.0000 |       1.0000 |       1.0000 |xxxxxxxxxxxxx |xxxxxxxxxxxxx |xxxxxxxxxxxxx |xxxxxxxxxxxxx |       1.0000 |       1.0000 |       1.0000 |
bpred_bimod.bpred_jr_non_ras_rate.PP       <error: |      <error: |      <error: |xxxxxxxxxxxxx |xxxxxxxxxxxxx |xxxxxxxxxxxxx |xxxxxxxxxxxxx |      <error: |      <error: |      <error: |xxxxxxxxxxxxx |xxxxxxxxxxxxx |xxxxxxxxxxxxx |xxxxxxxxxxxxx |      <error: |      <error: |      <error: |xxxxxxxxxxxxx |xxxxxxxxxxxxx |xxxxxxxxxxxxx |xxxxxxxxxxxxx |      <error: |      <error: |      <error: |xxxxxxxxxxxxx |xxxxxxxxxxxxx |xxxxxxxxxxxxx |xxxxxxxxxxxxx |      <error: |      <error: |      <error: |xxxxxxxxxxxxx |xxxxxxxxxxxxx |xxxxxxxxxxxxx |xxxxxxxxxxxxx |      <error: |      <error: |      <error: |xxxxxxxxxxxxx |xxxxxxxxxxxxx |xxxxxxxxxxxxx |xxxxxxxxxxxxx |      <error: |      <error: |      <error: |xxxxxxxxxxxxx |xxxxxxxxxxxxx |xxxxxxxxxxxxx |xxxxxxxxxxxxx |       0.0000 |       0.0000 |       0.0000 |xxxxxxxxxxxxx |xxxxxxxxxxxxx |xxxxxxxxxxxxx |xxxxxxxxxxxxx |       0.0000 |       0.0000 |       0.0000 |xxxxxxxxxxxxx |xxxxxxxxxxxxx |xxxxxxxxxxxxx |xxxxxxxxxxxxx |       0.0000 |       0.0000 |       0.0000 |xxxxxxxxxxxxx |xxxxxxxxxxxxx |xxxxxxxxxxxxx |xxxxxxxxxxxxx |       0.0000 |       0.0000 |       0.0000 |
bpred_bimod.retstack_pushes                     82 |           82 |           82 |xxxxxxxxxxxxx |xxxxxxxxxxxxx |xxxxxxxxxxxxx |xxxxxxxxxxxxx |           90 |           90 |           90 |xxxxxxxxxxxxx |xxxxxxxxxxxxx |xxxxxxxxxxxxx |xxxxxxxxxxxxx |          106 |          106 |          106 |xxxxxxxxxxxxx |xxxxxxxxxxxxx |xxxxxxxxxxxxx |xxxxxxxxxxxxx |          138 |          138 |          138 |xxxxxxxxxxxxx |xxxxxxxxxxxxx |xxxxxxxxxxxxx |xxxxxxxxxxxxx |          202 |          202 |          202 |xxxxxxxxxxxxx |xxxxxxxxxxxxx |xxxxxxxxxxxxx |xxxxxxxxxxxxx |          330 |          330 |          330 |xxxxxxxxxxxxx |xxxxxxxxxxxxx |xxxxxxxxxxxxx |xxxxxxxxxxxxx |          586 |          586 |          586 |xxxxxxxxxxxxx |xxxxxxxxxxxxx |xxxxxxxxxxxxx |xxxxxxxxxxxxx |       525415 |       525415 |       525415 |xxxxxxxxxxxxx |xxxxxxxxxxxxx |xxxxxxxxxxxxx |xxxxxxxxxxxxx |      1050729 |      1050729 |      1050729 |xxxxxxxxxxxxx |xxxxxxxxxxxxx |xxxxxxxxxxxxx |xxxxxxxxxxxxx |      2101357 |      2101357 |      2101357 |xxxxxxxxxxxxx |xxxxxxxxxxxxx |xxxxxxxxxxxxx |xxxxxxxxxxxxx |      4202613 |      4202613 |      4202613 |
bpred_bimod.retstack_pops                       80 |           80 |           80 |xxxxxxxxxxxxx |xxxxxxxxxxxxx |xxxxxxxxxxxxx |xxxxxxxxxxxxx |           88 |           88 |           88 |xxxxxxxxxxxxx |xxxxxxxxxxxxx |xxxxxxxxxxxxx |xxxxxxxxxxxxx |          104 |          104 |          104 |xxxxxxxxxxxxx |xxxxxxxxxxxxx |xxxxxxxxxxxxx |xxxxxxxxxxxxx |          136 |          136 |          136 |xxxxxxxxxxxxx |xxxxxxxxxxxxx |xxxxxxxxxxxxx |xxxxxxxxxxxxx |          200 |          200 |          200 |xxxxxxxxxxxxx |xxxxxxxxxxxxx |xxxxxxxxxxxxx |xxxxxxxxxxxxx |          328 |          328 |          328 |xxxxxxxxxxxxx |xxxxxxxxxxxxx |xxxxxxxxxxxxx |xxxxxxxxxxxxx |          584 |          584 |          584 |xxxxxxxxxxxxx |xxxxxxxxxxxxx |xxxxxxxxxxxxx |xxxxxxxxxxxxx |       525413 |       525413 |       525413 |xxxxxxxxxxxxx |xxxxxxxxxxxxx |xxxxxxxxxxxxx |xxxxxxxxxxxxx |      1050727 |      1050727 |      1050727 |xxxxxxxxxxxxx |xxxxxxxxxxxxx |xxxxxxxxxxxxx |xxxxxxxxxxxxx |      2101355 |      2101355 |      2101355 |xxxxxxxxxxxxx |xxxxxxxxxxxxx |xxxxxxxxxxxxx |xxxxxxxxxxxxx |      4202611 |      4202611 |      4202611 |
bpred_bimod.used_ras.PP                         80 |           80 |           80 |xxxxxxxxxxxxx |xxxxxxxxxxxxx |xxxxxxxxxxxxx |xxxxxxxxxxxxx |           88 |           88 |           88 |xxxxxxxxxxxxx |xxxxxxxxxxxxx |xxxxxxxxxxxxx |xxxxxxxxxxxxx |          104 |          104 |          104 |xxxxxxxxxxxxx |xxxxxxxxxxxxx |xxxxxxxxxxxxx |xxxxxxxxxxxxx |          136 |          136 |          136 |xxxxxxxxxxxxx |xxxxxxxxxxxxx |xxxxxxxxxxxxx |xxxxxxxxxxxxx |          200 |          200 |          200 |xxxxxxxxxxxxx |xxxxxxxxxxxxx |xxxxxxxxxxxxx |xxxxxxxxxxxxx |          328 |          328 |          328 |xxxxxxxxxxxxx |xxxxxxxxxxxxx |xxxxxxxxxxxxx |xxxxxxxxxxxxx |          584 |          584 |          584 |xxxxxxxxxxxxx |xxxxxxxxxxxxx |xxxxxxxxxxxxx |xxxxxxxxxxxxx |       525413 |       525413 |       525413 |xxxxxxxxxxxxx |xxxxxxxxxxxxx |xxxxxxxxxxxxx |xxxxxxxxxxxxx |      1050727 |      1050727 |      1050727 |xxxxxxxxxxxxx |xxxxxxxxxxxxx |xxxxxxxxxxxxx |xxxxxxxxxxxxx |      2101355 |      2101355 |      2101355 |xxxxxxxxxxxxx |xxxxxxxxxxxxx |xxxxxxxxxxxxx |xxxxxxxxxxxxx |      4202611 |      4202611 |      4202611 |
bpred_bimod.ras_hits.PP                         79 |           79 |           79 |xxxxxxxxxxxxx |xxxxxxxxxxxxx |xxxxxxxxxxxxx |xxxxxxxxxxxxx |           87 |           87 |           87 |xxxxxxxxxxxxx |xxxxxxxxxxxxx |xxxxxxxxxxxxx |xxxxxxxxxxxxx |          103 |          103 |          103 |xxxxxxxxxxxxx |xxxxxxxxxxxxx |xxxxxxxxxxxxx |xxxxxxxxxxxxx |          135 |          135 |          135 |xxxxxxxxxxxxx |xxxxxxxxxxxxx |xxxxxxxxxxxxx |xxxxxxxxxxxxx |          199 |          199 |          199 |xxxxxxxxxxxxx |xxxxxxxxxxxxx |xxxxxxxxxxxxx |xxxxxxxxxxxxx |          327 |          327 |          327 |xxxxxxxxxxxxx |xxxxxxxxxxxxx |xxxxxxxxxxxxx |xxxxxxxxxxxxx |          583 |          583 |          583 |xxxxxxxxxxxxx |xxxxxxxxxxxxx |xxxxxxxxxxxxx |xxxxxxxxxxxxx |       525413 |       525413 |       525413 |xxxxxxxxxxxxx |xxxxxxxxxxxxx |xxxxxxxxxxxxx |xxxxxxxxxxxxx |      1050727 |      1050727 |      1050727 |xxxxxxxxxxxxx |xxxxxxxxxxxxx |xxxxxxxxxxxxx |xxxxxxxxxxxxx |      2101355 |      2101355 |      2101355 |xxxxxxxxxxxxx |xxxxxxxxxxxxx |xxxxxxxxxxxxx |xxxxxxxxxxxxx |      4202611 |      4202611 |      4202611 |
bpred_bimod.ras_rate.PP                     0.9875 |       0.9875 |       0.9875 |xxxxxxxxxxxxx |xxxxxxxxxxxxx |xxxxxxxxxxxxx |xxxxxxxxxxxxx |       0.9886 |       0.9886 |       0.9886 |xxxxxxxxxxxxx |xxxxxxxxxxxxx |xxxxxxxxxxxxx |xxxxxxxxxxxxx |       0.9904 |       0.9904 |       0.9904 |xxxxxxxxxxxxx |xxxxxxxxxxxxx |xxxxxxxxxxxxx |xxxxxxxxxxxxx |       0.9926 |       0.9926 |       0.9926 |xxxxxxxxxxxxx |xxxxxxxxxxxxx |xxxxxxxxxxxxx |xxxxxxxxxxxxx |       0.9950 |       0.9950 |       0.9950 |xxxxxxxxxxxxx |xxxxxxxxxxxxx |xxxxxxxxxxxxx |xxxxxxxxxxxxx |       0.9970 |       0.9970 |       0.9970 |xxxxxxxxxxxxx |xxxxxxxxxxxxx |xxxxxxxxxxxxx |xxxxxxxxxxxxx |       0.9983 |       0.9983 |       0.9983 |xxxxxxxxxxxxx |xxxxxxxxxxxxx |xxxxxxxxxxxxx |xxxxxxxxxxxxx |       1.0000 |       1.0000 |       1.0000 |xxxxxxxxxxxxx |xxxxxxxxxxxxx |xxxxxxxxxxxxx |xxxxxxxxxxxxx |       1.0000 |       1.0000 |       1.0000 |xxxxxxxxxxxxx |xxxxxxxxxxxxx |xxxxxxxxxxxxx |xxxxxxxxxxxxx |       1.0000 |       1.0000 |       1.0000 |xxxxxxxxxxxxx |xxxxxxxxxxxxx |xxxxxxxxxxxxx |xxxxxxxxxxxxx |       1.0000 |       1.0000 |       1.0000 |
bpred_2lev.lookups                   xxxxxxxxxxxxx |xxxxxxxxxxxxx |xxxxxxxxxxxxx |       113166 |       113166 |       113166 |       113166 |xxxxxxxxxxxxx |xxxxxxxxxxxxx |xxxxxxxxxxxxx |       235991 |       235991 |       235991 |       235991 |xxxxxxxxxxxxx |xxxxxxxxxxxxx |xxxxxxxxxxxxx |       515079 |       515079 |       515079 |       515079 |xxxxxxxxxxxxx |xxxxxxxxxxxxx |xxxxxxxxxxxxx |      1071266 |      1071266 |      1071266 |      1071266 |xxxxxxxxxxxxx |xxxxxxxxxxxxx |xxxxxxxxxxxxx |      2319553 |      2319553 |      2319553 |      2319553 |xxxxxxxxxxxxx |xxxxxxxxxxxxx |xxxxxxxxxxxxx |      4812070 |      4812070 |      4812070 |      4812070 |xxxxxxxxxxxxx |xxxxxxxxxxxxx |xxxxxxxxxxxxx |     10147160 |     10147160 |     10147160 |     10147160 |xxxxxxxxxxxxx |xxxxxxxxxxxxx |xxxxxxxxxxxxx |     30675922 |     30675922 |     30675922 |     30675922 |xxxxxxxxxxxxx |xxxxxxxxxxxxx |xxxxxxxxxxxxx |     67175430 |     67175430 |     67175430 |     67175430 |xxxxxxxxxxxxx |xxxxxxxxxxxxx |xxxxxxxxxxxxx |    145942832 |    145942832 |    145942832 |    145942832 |xxxxxxxxxxxxx |xxxxxxxxxxxxx |xxxxxxxxxxxxx |    314547819 |    314547819 |    314547819 |    314547819 |
[...]
bpred_2lev.used_ras.PP               xxxxxxxxxxxxx |xxxxxxxxxxxxx |xxxxxxxxxxxxx |           80 |           80 |           80 |           80 |xxxxxxxxxxxxx |xxxxxxxxxxxxx |xxxxxxxxxxxxx |           88 |           88 |           88 |           88 |xxxxxxxxxxxxx |xxxxxxxxxxxxx |xxxxxxxxxxxxx |          104 |          104 |          104 |          104 |xxxxxxxxxxxxx |xxxxxxxxxxxxx |xxxxxxxxxxxxx |          136 |          136 |          136 |          136 |xxxxxxxxxxxxx |xxxxxxxxxxxxx |xxxxxxxxxxxxx |          200 |          200 |          200 |          200 |xxxxxxxxxxxxx |xxxxxxxxxxxxx |xxxxxxxxxxxxx |          328 |          328 |          328 |          328 |xxxxxxxxxxxxx |xxxxxxxxxxxxx |xxxxxxxxxxxxx |          584 |          584 |          584 |          584 |xxxxxxxxxxxxx |xxxxxxxxxxxxx |xxxxxxxxxxxxx |       525413 |       525413 |       525413 |       525413 |xxxxxxxxxxxxx |xxxxxxxxxxxxx |xxxxxxxxxxxxx |      1050727 |      1050727 |      1050727 |      1050727 |xxxxxxxxxxxxx |xxxxxxxxxxxxx |xxxxxxxxxxxxx |      2101355 |      2101355 |      2101355 |      2101355 |xxxxxxxxxxxxx |xxxxxxxxxxxxx |xxxxxxxxxxxxx |      4202611 |      4202611 |      4202611 |      4202611 |
bpred_2lev.ras_hits.PP               xxxxxxxxxxxxx |xxxxxxxxxxxxx |xxxxxxxxxxxxx |           79 |           79 |           79 |           79 |xxxxxxxxxxxxx |xxxxxxxxxxxxx |xxxxxxxxxxxxx |           87 |           87 |           87 |           87 |xxxxxxxxxxxxx |xxxxxxxxxxxxx |xxxxxxxxxxxxx |          103 |          103 |          103 |          103 |xxxxxxxxxxxxx |xxxxxxxxxxxxx |xxxxxxxxxxxxx |          135 |          135 |          135 |          135 |xxxxxxxxxxxxx |xxxxxxxxxxxxx |xxxxxxxxxxxxx |          199 |          199 |          199 |          199 |xxxxxxxxxxxxx |xxxxxxxxxxxxx |xxxxxxxxxxxxx |          327 |          327 |          327 |          327 |xxxxxxxxxxxxx |xxxxxxxxxxxxx |xxxxxxxxxxxxx |          583 |          583 |          583 |          583 |xxxxxxxxxxxxx |xxxxxxxxxxxxx |xxxxxxxxxxxxx |       525413 |       525413 |       525413 |       525413 |xxxxxxxxxxxxx |xxxxxxxxxxxxx |xxxxxxxxxxxxx |      1050727 |      1050727 |      1050727 |      1050727 |xxxxxxxxxxxxx |xxxxxxxxxxxxx |xxxxxxxxxxxxx |      2101355 |      2101355 |      2101355 |      2101355 |xxxxxxxxxxxxx |xxxxxxxxxxxxx |xxxxxxxxxxxxx |      4202611 |      4202611 |      4202611 |      4202611 |
bpred_2lev.ras_rate.PP               xxxxxxxxxxxxx |xxxxxxxxxxxxx |xxxxxxxxxxxxx |       0.9875 |       0.9875 |       0.9875 |       0.9875 |xxxxxxxxxxxxx |xxxxxxxxxxxxx |xxxxxxxxxxxxx |       0.9886 |       0.9886 |       0.9886 |       0.9886 |xxxxxxxxxxxxx |xxxxxxxxxxxxx |xxxxxxxxxxxxx |       0.9904 |       0.9904 |       0.9904 |       0.9904 |xxxxxxxxxxxxx |xxxxxxxxxxxxx |xxxxxxxxxxxxx |       0.9926 |       0.9926 |       0.9926 |       0.9926 |xxxxxxxxxxxxx |xxxxxxxxxxxxx |xxxxxxxxxxxxx |       0.9950 |       0.9950 |       0.9950 |       0.9950 |xxxxxxxxxxxxx |xxxxxxxxxxxxx |xxxxxxxxxxxxx |       0.9970 |       0.9970 |       0.9970 |       0.9970 |xxxxxxxxxxxxx |xxxxxxxxxxxxx |xxxxxxxxxxxxx |       0.9983 |       0.9983 |       0.9983 |       0.9983 |xxxxxxxxxxxxx |xxxxxxxxxxxxx |xxxxxxxxxxxxx |       1.0000 |       1.0000 |       1.0000 |       1.0000 |xxxxxxxxxxxxx |xxxxxxxxxxxxx |xxxxxxxxxxxxx |       1.0000 |       1.0000 |       1.0000 |       1.0000 |xxxxxxxxxxxxx |xxxxxxxxxxxxx |xxxxxxxxxxxxx |       1.0000 |       1.0000 |       1.0000 |       1.0000 |xxxxxxxxxxxxx |xxxxxxxxxxxxx |xxxxxxxxxxxxx |       1.0000 |       1.0000 |       1.0000 |       1.0000 |

Command list: 
	sslittle-na-sstrix-gcc -Wall -O3 -funroll-loops -finline-functions  -DRANDOM_SIZE=4096 -DOFFSET=2 -DSORT=double_aligned_multi_mergsort sorts/double_aligned_multi_mergsort756591794.c simpleMain.c -o double_aligned_multi_mergsort1552473524
	sim-cache -cache:dl1 dl1:256:32:1:l -cache:dl2 dl2:131072:32:1:l -cache:il1 il1:256:32:1:l -cache:il2 dl2 double_aligned_multi_mergsort1552473524
	sim-cache -cache:dl1 dl1:256:32:1:l -cache:dl2 dl2:65536:32:1:l -cache:il1 il1:256:32:1:l -cache:il2 dl2 double_aligned_multi_mergsort1552473524
	sim-cache -cache:dl1 dl1:1:32:256:l -cache:dl2 dl2:1:32:131072:l -cache:il1 il1:1:32:256:l -cache:il2 dl2 double_aligned_multi_mergsort1552473524
	sim-cache -cache:dl1 dl1:1:32:256:l -cache:dl2 dl2:1:32:65536:l -cache:il1 il1:1:32:256:l -cache:il2 dl2 double_aligned_multi_mergsort1552473524
	sim-bpred -bpred bimod -bpred:bimod 512 double_aligned_multi_mergsort1552473524
	sim-bpred -bpred bimod -bpred:bimod 1024 double_aligned_multi_mergsort1552473524
	sim-bpred -bpred bimod -bpred:bimod 2048 double_aligned_multi_mergsort1552473524
	sim-bpred -bpred 2lev -bpred:2lev 1 512 10 1 double_aligned_multi_mergsort1552473524
	sim-bpred -bpred 2lev -bpred:2lev 1 1024 10 1 double_aligned_multi_mergsort1552473524
	sim-bpred -bpred 2lev -bpred:2lev 1 2048 10 1 double_aligned_multi_mergsort1552473524
	sim-bpred -bpred 2lev -bpred:2lev 1 4096 10 1 double_aligned_multi_mergsort1552473524
	sslittle-na-sstrix-gcc -Wall -O3 -funroll-loops -finline-functions  -DRANDOM_SIZE=8192 -DOFFSET=2 -DSORT=double_aligned_multi_mergsort sorts/double_aligned_multi_mergsort756591794.c simpleMain.c -o double_aligned_multi_mergsort1552473524
	sim-cache -cache:dl1 dl1:256:32:1:l -cache:dl2 dl2:131072:32:1:l -cache:il1 il1:256:32:1:l -cache:il2 dl2 double_aligned_multi_mergsort1552473524
	sim-cache -cache:dl1 dl1:256:32:1:l -cache:dl2 dl2:65536:32:1:l -cache:il1 il1:256:32:1:l -cache:il2 dl2 double_aligned_multi_mergsort1552473524
	sim-cache -cache:dl1 dl1:1:32:256:l -cache:dl2 dl2:1:32:131072:l -cache:il1 il1:1:32:256:l -cache:il2 dl2 double_aligned_multi_mergsort1552473524
	sim-cache -cache:dl1 dl1:1:32:256:l -cache:dl2 dl2:1:32:65536:l -cache:il1 il1:1:32:256:l -cache:il2 dl2 double_aligned_multi_mergsort1552473524
	sim-bpred -bpred bimod -bpred:bimod 512 double_aligned_multi_mergsort1552473524
	sim-bpred -bpred bimod -bpred:bimod 1024 double_aligned_multi_mergsort1552473524
	sim-bpred -bpred bimod -bpred:bimod 2048 double_aligned_multi_mergsort1552473524
	sim-bpred -bpred 2lev -bpred:2lev 1 512 10 1 double_aligned_multi_mergsort1552473524
	sim-bpred -bpred 2lev -bpred:2lev 1 1024 10 1 double_aligned_multi_mergsort1552473524
	sim-bpred -bpred 2lev -bpred:2lev 1 2048 10 1 double_aligned_multi_mergsort1552473524
	sim-bpred -bpred 2lev -bpred:2lev 1 4096 10 1 double_aligned_multi_mergsort1552473524
	sslittle-na-sstrix-gcc -Wall -O3 -funroll-loops -finline-functions  -DRANDOM_SIZE=16384 -DOFFSET=2 -DSORT=double_aligned_multi_mergsort sorts/double_aligned_multi_mergsort756591794.c simpleMain.c -o double_aligned_multi_mergsort1552473524
	sim-cache -cache:dl1 dl1:256:32:1:l -cache:dl2 dl2:131072:32:1:l -cache:il1 il1:256:32:1:l -cache:il2 dl2 double_aligned_multi_mergsort1552473524
	sim-cache -cache:dl1 dl1:256:32:1:l -cache:dl2 dl2:65536:32:1:l -cache:il1 il1:256:32:1:l -cache:il2 dl2 double_aligned_multi_mergsort1552473524
	sim-cache -cache:dl1 dl1:1:32:256:l -cache:dl2 dl2:1:32:131072:l -cache:il1 il1:1:32:256:l -cache:il2 dl2 double_aligned_multi_mergsort1552473524
	sim-cache -cache:dl1 dl1:1:32:256:l -cache:dl2 dl2:1:32:65536:l -cache:il1 il1:1:32:256:l -cache:il2 dl2 double_aligned_multi_mergsort1552473524
	sim-bpred -bpred bimod -bpred:bimod 512 double_aligned_multi_mergsort1552473524
	sim-bpred -bpred bimod -bpred:bimod 1024 double_aligned_multi_mergsort1552473524
	sim-bpred -bpred bimod -bpred:bimod 2048 double_aligned_multi_mergsort1552473524
	sim-bpred -bpred 2lev -bpred:2lev 1 512 10 1 double_aligned_multi_mergsort1552473524
	sim-bpred -bpred 2lev -bpred:2lev 1 1024 10 1 double_aligned_multi_mergsort1552473524
	sim-bpred -bpred 2lev -bpred:2lev 1 2048 10 1 double_aligned_multi_mergsort1552473524
	sim-bpred -bpred 2lev -bpred:2lev 1 4096 10 1 double_aligned_multi_mergsort1552473524
	sslittle-na-sstrix-gcc -Wall -O3 -funroll-loops -finline-functions  -DRANDOM_SIZE=32768 -DOFFSET=2 -DSORT=double_aligned_multi_mergsort sorts/double_aligned_multi_mergsort756591794.c simpleMain.c -o double_aligned_multi_mergsort1552473524
	sim-cache -cache:dl1 dl1:256:32:1:l -cache:dl2 dl2:131072:32:1:l -cache:il1 il1:256:32:1:l -cache:il2 dl2 double_aligned_multi_mergsort1552473524
	sim-cache -cache:dl1 dl1:256:32:1:l -cache:dl2 dl2:65536:32:1:l -cache:il1 il1:256:32:1:l -cache:il2 dl2 double_aligned_multi_mergsort1552473524
	sim-cache -cache:dl1 dl1:1:32:256:l -cache:dl2 dl2:1:32:131072:l -cache:il1 il1:1:32:256:l -cache:il2 dl2 double_aligned_multi_mergsort1552473524
	sim-cache -cache:dl1 dl1:1:32:256:l -cache:dl2 dl2:1:32:65536:l -cache:il1 il1:1:32:256:l -cache:il2 dl2 double_aligned_multi_mergsort1552473524
	sim-bpred -bpred bimod -bpred:bimod 512 double_aligned_multi_mergsort1552473524
	sim-bpred -bpred bimod -bpred:bimod 1024 double_aligned_multi_mergsort1552473524
	sim-bpred -bpred bimod -bpred:bimod 2048 double_aligned_multi_mergsort1552473524
	sim-bpred -bpred 2lev -bpred:2lev 1 512 10 1 double_aligned_multi_mergsort1552473524
	sim-bpred -bpred 2lev -bpred:2lev 1 1024 10 1 double_aligned_multi_mergsort1552473524
	sim-bpred -bpred 2lev -bpred:2lev 1 2048 10 1 double_aligned_multi_mergsort1552473524
	sim-bpred -bpred 2lev -bpred:2lev 1 4096 10 1 double_aligned_multi_mergsort1552473524
	sslittle-na-sstrix-gcc -Wall -O3 -funroll-loops -finline-functions  -DRANDOM_SIZE=65536 -DOFFSET=2 -DSORT=double_aligned_multi_mergsort sorts/double_aligned_multi_mergsort756591794.c simpleMain.c -o double_aligned_multi_mergsort1552473524
	sim-cache -cache:dl1 dl1:256:32:1:l -cache:dl2 dl2:131072:32:1:l -cache:il1 il1:256:32:1:l -cache:il2 dl2 double_aligned_multi_mergsort1552473524
	sim-cache -cache:dl1 dl1:256:32:1:l -cache:dl2 dl2:65536:32:1:l -cache:il1 il1:256:32:1:l -cache:il2 dl2 double_aligned_multi_mergsort1552473524
	sim-cache -cache:dl1 dl1:1:32:256:l -cache:dl2 dl2:1:32:131072:l -cache:il1 il1:1:32:256:l -cache:il2 dl2 double_aligned_multi_mergsort1552473524
	sim-cache -cache:dl1 dl1:1:32:256:l -cache:dl2 dl2:1:32:65536:l -cache:il1 il1:1:32:256:l -cache:il2 dl2 double_aligned_multi_mergsort1552473524
	sim-bpred -bpred bimod -bpred:bimod 512 double_aligned_multi_mergsort1552473524
	sim-bpred -bpred bimod -bpred:bimod 1024 double_aligned_multi_mergsort1552473524
	sim-bpred -bpred bimod -bpred:bimod 2048 double_aligned_multi_mergsort1552473524
	sim-bpred -bpred 2lev -bpred:2lev 1 512 10 1 double_aligned_multi_mergsort1552473524
	sim-bpred -bpred 2lev -bpred:2lev 1 1024 10 1 double_aligned_multi_mergsort1552473524
	sim-bpred -bpred 2lev -bpred:2lev 1 2048 10 1 double_aligned_multi_mergsort1552473524
	sim-bpred -bpred 2lev -bpred:2lev 1 4096 10 1 double_aligned_multi_mergsort1552473524
	sslittle-na-sstrix-gcc -Wall -O3 -funroll-loops -finline-functions  -DRANDOM_SIZE=131072 -DOFFSET=2 -DSORT=double_aligned_multi_mergsort sorts/double_aligned_multi_mergsort756591794.c simpleMain.c -o double_aligned_multi_mergsort1552473524
	sim-cache -cache:dl1 dl1:256:32:1:l -cache:dl2 dl2:131072:32:1:l -cache:il1 il1:256:32:1:l -cache:il2 dl2 double_aligned_multi_mergsort1552473524
	sim-cache -cache:dl1 dl1:256:32:1:l -cache:dl2 dl2:65536:32:1:l -cache:il1 il1:256:32:1:l -cache:il2 dl2 double_aligned_multi_mergsort1552473524
	sim-cache -cache:dl1 dl1:1:32:256:l -cache:dl2 dl2:1:32:131072:l -cache:il1 il1:1:32:256:l -cache:il2 dl2 double_aligned_multi_mergsort1552473524
	sim-cache -cache:dl1 dl1:1:32:256:l -cache:dl2 dl2:1:32:65536:l -cache:il1 il1:1:32:256:l -cache:il2 dl2 double_aligned_multi_mergsort1552473524
	sim-bpred -bpred bimod -bpred:bimod 512 double_aligned_multi_mergsort1552473524
	sim-bpred -bpred bimod -bpred:bimod 1024 double_aligned_multi_mergsort1552473524
	sim-bpred -bpred bimod -bpred:bimod 2048 double_aligned_multi_mergsort1552473524
	sim-bpred -bpred 2lev -bpred:2lev 1 512 10 1 double_aligned_multi_mergsort1552473524
	sim-bpred -bpred 2lev -bpred:2lev 1 1024 10 1 double_aligned_multi_mergsort1552473524
	sim-bpred -bpred 2lev -bpred:2lev 1 2048 10 1 double_aligned_multi_mergsort1552473524
	sim-bpred -bpred 2lev -bpred:2lev 1 4096 10 1 double_aligned_multi_mergsort1552473524
	sslittle-na-sstrix-gcc -Wall -O3 -funroll-loops -finline-functions  -DRANDOM_SIZE=262144 -DOFFSET=2 -DSORT=double_aligned_multi_mergsort sorts/double_aligned_multi_mergsort756591794.c simpleMain.c -o double_aligned_multi_mergsort1552473524
	sim-cache -cache:dl1 dl1:256:32:1:l -cache:dl2 dl2:131072:32:1:l -cache:il1 il1:256:32:1:l -cache:il2 dl2 double_aligned_multi_mergsort1552473524
	sim-cache -cache:dl1 dl1:256:32:1:l -cache:dl2 dl2:65536:32:1:l -cache:il1 il1:256:32:1:l -cache:il2 dl2 double_aligned_multi_mergsort1552473524
	sim-cache -cache:dl1 dl1:1:32:256:l -cache:dl2 dl2:1:32:131072:l -cache:il1 il1:1:32:256:l -cache:il2 dl2 double_aligned_multi_mergsort1552473524
	sim-cache -cache:dl1 dl1:1:32:256:l -cache:dl2 dl2:1:32:65536:l -cache:il1 il1:1:32:256:l -cache:il2 dl2 double_aligned_multi_mergsort1552473524
	sim-bpred -bpred bimod -bpred:bimod 512 double_aligned_multi_mergsort1552473524
	sim-bpred -bpred bimod -bpred:bimod 1024 double_aligned_multi_mergsort1552473524
	sim-bpred -bpred bimod -bpred:bimod 2048 double_aligned_multi_mergsort1552473524
	sim-bpred -bpred 2lev -bpred:2lev 1 512 10 1 double_aligned_multi_mergsort1552473524
	sim-bpred -bpred 2lev -bpred:2lev 1 1024 10 1 double_aligned_multi_mergsort1552473524
	sim-bpred -bpred 2lev -bpred:2lev 1 2048 10 1 double_aligned_multi_mergsort1552473524
	sim-bpred -bpred 2lev -bpred:2lev 1 4096 10 1 double_aligned_multi_mergsort1552473524
	sslittle-na-sstrix-gcc -Wall -O3 -funroll-loops -finline-functions  -DRANDOM_SIZE=524288 -DOFFSET=2 -DSORT=double_aligned_multi_mergsort sorts/double_aligned_multi_mergsort756591794.c simpleMain.c -o double_aligned_multi_mergsort1552473524
	sim-cache -cache:dl1 dl1:256:32:1:l -cache:dl2 dl2:131072:32:1:l -cache:il1 il1:256:32:1:l -cache:il2 dl2 double_aligned_multi_mergsort1552473524
	sim-cache -cache:dl1 dl1:256:32:1:l -cache:dl2 dl2:65536:32:1:l -cache:il1 il1:256:32:1:l -cache:il2 dl2 double_aligned_multi_mergsort1552473524
	sim-cache -cache:dl1 dl1:1:32:256:l -cache:dl2 dl2:1:32:131072:l -cache:il1 il1:1:32:256:l -cache:il2 dl2 double_aligned_multi_mergsort1552473524
	sim-cache -cache:dl1 dl1:1:32:256:l -cache:dl2 dl2:1:32:65536:l -cache:il1 il1:1:32:256:l -cache:il2 dl2 double_aligned_multi_mergsort1552473524
	sim-bpred -bpred bimod -bpred:bimod 512 double_aligned_multi_mergsort1552473524
	sim-bpred -bpred bimod -bpred:bimod 1024 double_aligned_multi_mergsort1552473524
	sim-bpred -bpred bimod -bpred:bimod 2048 double_aligned_multi_mergsort1552473524
	sim-bpred -bpred 2lev -bpred:2lev 1 512 10 1 double_aligned_multi_mergsort1552473524
	sim-bpred -bpred 2lev -bpred:2lev 1 1024 10 1 double_aligned_multi_mergsort1552473524
	sim-bpred -bpred 2lev -bpred:2lev 1 2048 10 1 double_aligned_multi_mergsort1552473524
	sim-bpred -bpred 2lev -bpred:2lev 1 4096 10 1 double_aligned_multi_mergsort1552473524
	sslittle-na-sstrix-gcc -Wall -O3 -funroll-loops -finline-functions  -DRANDOM_SIZE=1048576 -DOFFSET=2 -DSORT=double_aligned_multi_mergsort sorts/double_aligned_multi_mergsort756591794.c simpleMain.c -o double_aligned_multi_mergsort1552473524
	sim-cache -cache:dl1 dl1:256:32:1:l -cache:dl2 dl2:131072:32:1:l -cache:il1 il1:256:32:1:l -cache:il2 dl2 double_aligned_multi_mergsort1552473524
	sim-cache -cache:dl1 dl1:256:32:1:l -cache:dl2 dl2:65536:32:1:l -cache:il1 il1:256:32:1:l -cache:il2 dl2 double_aligned_multi_mergsort1552473524
	sim-cache -cache:dl1 dl1:1:32:256:l -cache:dl2 dl2:1:32:131072:l -cache:il1 il1:1:32:256:l -cache:il2 dl2 double_aligned_multi_mergsort1552473524
	sim-cache -cache:dl1 dl1:1:32:256:l -cache:dl2 dl2:1:32:65536:l -cache:il1 il1:1:32:256:l -cache:il2 dl2 double_aligned_multi_mergsort1552473524
	sim-bpred -bpred bimod -bpred:bimod 512 double_aligned_multi_mergsort1552473524
	sim-bpred -bpred bimod -bpred:bimod 1024 double_aligned_multi_mergsort1552473524
	sim-bpred -bpred bimod -bpred:bimod 2048 double_aligned_multi_mergsort1552473524
	sim-bpred -bpred 2lev -bpred:2lev 1 512 10 1 double_aligned_multi_mergsort1552473524
	sim-bpred -bpred 2lev -bpred:2lev 1 1024 10 1 double_aligned_multi_mergsort1552473524
	sim-bpred -bpred 2lev -bpred:2lev 1 2048 10 1 double_aligned_multi_mergsort1552473524
	sim-bpred -bpred 2lev -bpred:2lev 1 4096 10 1 double_aligned_multi_mergsort1552473524
	sslittle-na-sstrix-gcc -Wall -O3 -funroll-loops -finline-functions  -DRANDOM_SIZE=2097152 -DOFFSET=2 -DSORT=double_aligned_multi_mergsort sorts/double_aligned_multi_mergsort756591794.c simpleMain.c -o double_aligned_multi_mergsort1552473524
	sim-cache -cache:dl1 dl1:256:32:1:l -cache:dl2 dl2:131072:32:1:l -cache:il1 il1:256:32:1:l -cache:il2 dl2 double_aligned_multi_mergsort1552473524
	sim-cache -cache:dl1 dl1:256:32:1:l -cache:dl2 dl2:65536:32:1:l -cache:il1 il1:256:32:1:l -cache:il2 dl2 double_aligned_multi_mergsort1552473524
	sim-cache -cache:dl1 dl1:1:32:256:l -cache:dl2 dl2:1:32:131072:l -cache:il1 il1:1:32:256:l -cache:il2 dl2 double_aligned_multi_mergsort1552473524
	sim-cache -cache:dl1 dl1:1:32:256:l -cache:dl2 dl2:1:32:65536:l -cache:il1 il1:1:32:256:l -cache:il2 dl2 double_aligned_multi_mergsort1552473524
	sim-bpred -bpred bimod -bpred:bimod 512 double_aligned_multi_mergsort1552473524
	sim-bpred -bpred bimod -bpred:bimod 1024 double_aligned_multi_mergsort1552473524
	sim-bpred -bpred bimod -bpred:bimod 2048 double_aligned_multi_mergsort1552473524
	sim-bpred -bpred 2lev -bpred:2lev 1 512 10 1 double_aligned_multi_mergsort1552473524
	sim-bpred -bpred 2lev -bpred:2lev 1 1024 10 1 double_aligned_multi_mergsort1552473524
	sim-bpred -bpred 2lev -bpred:2lev 1 2048 10 1 double_aligned_multi_mergsort1552473524
	sim-bpred -bpred 2lev -bpred:2lev 1 4096 10 1 double_aligned_multi_mergsort1552473524
	sslittle-na-sstrix-gcc -Wall -O3 -funroll-loops -finline-functions  -DRANDOM_SIZE=4194304 -DOFFSET=2 -DSORT=double_aligned_multi_mergsort sorts/double_aligned_multi_mergsort756591794.c simpleMain.c -o double_aligned_multi_mergsort1552473524
	sim-cache -cache:dl1 dl1:256:32:1:l -cache:dl2 dl2:131072:32:1:l -cache:il1 il1:256:32:1:l -cache:il2 dl2 double_aligned_multi_mergsort1552473524
	sim-cache -cache:dl1 dl1:256:32:1:l -cache:dl2 dl2:65536:32:1:l -cache:il1 il1:256:32:1:l -cache:il2 dl2 double_aligned_multi_mergsort1552473524
	sim-cache -cache:dl1 dl1:1:32:256:l -cache:dl2 dl2:1:32:131072:l -cache:il1 il1:1:32:256:l -cache:il2 dl2 double_aligned_multi_mergsort1552473524
	sim-cache -cache:dl1 dl1:1:32:256:l -cache:dl2 dl2:1:32:65536:l -cache:il1 il1:1:32:256:l -cache:il2 dl2 double_aligned_multi_mergsort1552473524
	sim-bpred -bpred bimod -bpred:bimod 512 double_aligned_multi_mergsort1552473524
	sim-bpred -bpred bimod -bpred:bimod 1024 double_aligned_multi_mergsort1552473524
	sim-bpred -bpred bimod -bpred:bimod 2048 double_aligned_multi_mergsort1552473524
	sim-bpred -bpred 2lev -bpred:2lev 1 512 10 1 double_aligned_multi_mergsort1552473524
	sim-bpred -bpred 2lev -bpred:2lev 1 1024 10 1 double_aligned_multi_mergsort1552473524
	sim-bpred -bpred 2lev -bpred:2lev 1 2048 10 1 double_aligned_multi_mergsort1552473524
	sim-bpred -bpred 2lev -bpred:2lev 1 4096 10 1 double_aligned_multi_mergsort1552473524
