Sun Jul  3 03:31:08 2005
Run as: "./do_simple -c random.org3 -o 3 double_aligned_mergesort"
-------------------------------------------------------------------------------------------------
sim-cache                                     4096 |         4096 |         4096 |         4096 |         8192 |         8192 |         8192 |         8192 |        16384 |        16384 |        16384 |        16384 |        32768 |        32768 |        32768 |        32768 |        65536 |        65536 |        65536 |        65536 |       131072 |       131072 |       131072 |       131072 |       262144 |       262144 |       262144 |       262144 |       524288 |       524288 |       524288 |       524288 |      1048576 |      1048576 |      1048576 |      1048576 |      2097152 |      2097152 |      2097152 |      2097152 |      4194304 |      4194304 |      4194304 |      4194304 |
-cache:dl1 dl1:256:32:1:l -cache:dl2 dl2:131072:32:1:l -cache:il1 il1:256:32:1:l -cache:il2 dl2
-cache:dl1 dl1:256:32:1:l -cache:dl2 dl2:65536:32:1:l -cache:il1 il1:256:32:1:l -cache:il2 dl2
-cache:dl1 dl1:1:32:256:l -cache:dl2 dl2:1:32:131072:l -cache:il1 il1:1:32:256:l -cache:il2 dl2
-cache:dl1 dl1:1:32:256:l -cache:dl2 dl2:1:32:65536:l -cache:il1 il1:1:32:256:l -cache:il2 dl2
-------------------------------------------------------------------------------------------------
sim_num_insn                                860239 |       860239 |       860239 |       860239 |      1749948 |      1749948 |      1749948 |      1749948 |      3960510 |      3960510 |      3960510 |      3960510 |      8062765 |      8062765 |      8062765 |      8062765 |     17979450 |     17979450 |     17979450 |     17979450 |     36566877 |     36566877 |     36566877 |     36566877 |     80540251 |     80540251 |     80540251 |     80540251 |    168430077 |    168430077 |    168430077 |    168430077 |    366568667 |    366568667 |    366568667 |    366568667 |    742870102 |    742870102 |    742870102 |    742870102 |   1604564522 |   1604564522 |   1604564522 |   1604564522 |
sim_num_refs                                229031 |       229031 |       229031 |       229031 |       471820 |       471820 |       471820 |       471820 |      1051704 |      1051704 |      1051704 |      1051704 |      2171277 |      2171277 |      2171277 |      2171277 |      4784123 |      4784123 |      4784123 |      4784123 |      9854373 |      9854373 |      9854373 |      9854373 |     21481980 |     21481980 |     21481980 |     21481980 |     45708657 |     45708657 |     45708657 |     45708657 |     98528777 |     98528777 |     98528777 |     98528777 |    201667600 |    201667600 |    201667600 |    201667600 |    431812545 |    431812545 |    431812545 |    431812545 |
sim_elapsed_time                                 1 |            1 |           10 |            6 |            1 |            1 |           16 |            8 |            1 |            1 |           27 |           13 |            2 |            2 |           48 |           24 |            5 |            5 |           88 |           44 |           10 |           10 |          161 |           76 |           22 |           21 |          279 |          107 |           44 |           44 |          385 |          132 |           96 |           96 |          441 |          190 |          195 |          195 |          549 |          300 |          420 |          420 |          801 |          555 |
sim_inst_rate                          860239.0000 |  860239.0000 |   86023.9000 |  143373.1667 | 1749948.0000 | 1749948.0000 |  109371.7500 |  218743.5000 | 3960510.0000 | 3960510.0000 |  146685.5556 |  304654.6154 | 4031382.5000 | 4031382.5000 |  167974.2708 |  335948.5417 | 3595890.0000 | 3595890.0000 |  204311.9318 |  408623.8636 | 3656687.7000 | 3656687.7000 |  227123.4596 |  481143.1184 | 3660920.5000 | 3835250.0476 |  288674.7348 |  752712.6262 | 3827956.2955 | 3827956.2955 |  437480.7195 | 1275985.4318 | 3818423.6146 | 3818423.6146 |  831221.4671 | 1929308.7737 | 3809590.2667 | 3809590.2667 | 1353133.1548 | 2476233.6733 | 3820391.7190 | 3820391.7190 | 2003201.6504 | 2891107.2468 |
il1.accesses                                860239 |       860239 |       860239 |       860239 |      1749948 |      1749948 |      1749948 |      1749948 |      3960510 |      3960510 |      3960510 |      3960510 |      8062765 |      8062765 |      8062765 |      8062765 |     17979450 |     17979450 |     17979450 |     17979450 |     36566877 |     36566877 |     36566877 |     36566877 |     80540251 |     80540251 |     80540251 |     80540251 |    168430077 |    168430077 |    168430077 |    168430077 |    366568667 |    366568667 |    366568667 |    366568667 |    742870102 |    742870102 |    742870102 |    742870102 |   1604564522 |   1604564522 |   1604564522 |   1604564522 |
il1.hits                                    859570 |       859570 |       859665 |       859665 |      1749258 |      1749258 |      1749350 |      1749350 |      3959837 |      3959837 |      3959937 |      3959937 |      8062075 |      8062075 |      8062167 |      8062167 |     17978778 |     17978778 |     17978873 |     17978873 |     36566187 |     36566187 |     36566279 |     36566279 |     80539579 |     80539579 |     80539675 |     80539675 |    168427798 |    168427798 |    168429404 |    168429404 |    366564862 |    366564862 |    366568012 |    366568012 |    742863179 |    742863179 |    742869429 |    742869429 |   1604551453 |   1604551453 |   1604563867 |   1604563867 |
il1.misses                                     669 |          669 |          574 |          574 |          690 |          690 |          598 |          598 |          673 |          673 |          573 |          573 |          690 |          690 |          598 |          598 |          672 |          672 |          577 |          577 |          690 |          690 |          598 |          598 |          672 |          672 |          576 |          576 |         2279 |         2279 |          673 |          673 |         3805 |         3805 |          655 |          655 |         6923 |         6923 |          673 |          673 |        13069 |        13069 |          655 |          655 |
il1.replacements                               426 |          426 |          318 |          318 |          446 |          446 |          342 |          342 |          432 |          432 |          317 |          317 |          446 |          446 |          342 |          342 |          430 |          430 |          321 |          321 |          446 |          446 |          342 |          342 |          443 |          443 |          320 |          320 |         2054 |         2054 |          417 |          417 |         3582 |         3582 |          399 |          399 |         6698 |         6698 |          417 |          417 |        12846 |        12846 |          399 |          399 |
il1.writebacks                                   0 |            0 |            0 |            0 |            0 |            0 |            0 |            0 |            0 |            0 |            0 |            0 |            0 |            0 |            0 |            0 |            0 |            0 |            0 |            0 |            0 |            0 |            0 |            0 |            0 |            0 |            0 |            0 |            0 |            0 |            0 |            0 |            0 |            0 |            0 |            0 |            0 |            0 |            0 |            0 |            0 |            0 |            0 |            0 |
il1.invalidations                                0 |            0 |            0 |            0 |            0 |            0 |            0 |            0 |            0 |            0 |            0 |            0 |            0 |            0 |            0 |            0 |            0 |            0 |            0 |            0 |            0 |            0 |            0 |            0 |            0 |            0 |            0 |            0 |            0 |            0 |            0 |            0 |            0 |            0 |            0 |            0 |            0 |            0 |            0 |            0 |            0 |            0 |            0 |            0 |
il1.miss_rate                               0.0008 |       0.0008 |       0.0007 |       0.0007 |       0.0004 |       0.0004 |       0.0003 |       0.0003 |       0.0002 |       0.0002 |       0.0001 |       0.0001 |       0.0001 |       0.0001 |       0.0001 |       0.0001 |       0.0000 |       0.0000 |       0.0000 |       0.0000 |       0.0000 |       0.0000 |       0.0000 |       0.0000 |       0.0000 |       0.0000 |       0.0000 |       0.0000 |       0.0000 |       0.0000 |       0.0000 |       0.0000 |       0.0000 |       0.0000 |       0.0000 |       0.0000 |       0.0000 |       0.0000 |       0.0000 |       0.0000 |       0.0000 |       0.0000 |       0.0000 |       0.0000 |
il1.repl_rate                               0.0005 |       0.0005 |       0.0004 |       0.0004 |       0.0003 |       0.0003 |       0.0002 |       0.0002 |       0.0001 |       0.0001 |       0.0001 |       0.0001 |       0.0001 |       0.0001 |       0.0000 |       0.0000 |       0.0000 |       0.0000 |       0.0000 |       0.0000 |       0.0000 |       0.0000 |       0.0000 |       0.0000 |       0.0000 |       0.0000 |       0.0000 |       0.0000 |       0.0000 |       0.0000 |       0.0000 |       0.0000 |       0.0000 |       0.0000 |       0.0000 |       0.0000 |       0.0000 |       0.0000 |       0.0000 |       0.0000 |       0.0000 |       0.0000 |       0.0000 |       0.0000 |
il1.wb_rate                                 0.0000 |       0.0000 |       0.0000 |       0.0000 |       0.0000 |       0.0000 |       0.0000 |       0.0000 |       0.0000 |       0.0000 |       0.0000 |       0.0000 |       0.0000 |       0.0000 |       0.0000 |       0.0000 |       0.0000 |       0.0000 |       0.0000 |       0.0000 |       0.0000 |       0.0000 |       0.0000 |       0.0000 |       0.0000 |       0.0000 |       0.0000 |       0.0000 |       0.0000 |       0.0000 |       0.0000 |       0.0000 |       0.0000 |       0.0000 |       0.0000 |       0.0000 |       0.0000 |       0.0000 |       0.0000 |       0.0000 |       0.0000 |       0.0000 |       0.0000 |       0.0000 |
il1.inv_rate                                0.0000 |       0.0000 |       0.0000 |       0.0000 |       0.0000 |       0.0000 |       0.0000 |       0.0000 |       0.0000 |       0.0000 |       0.0000 |       0.0000 |       0.0000 |       0.0000 |       0.0000 |       0.0000 |       0.0000 |       0.0000 |       0.0000 |       0.0000 |       0.0000 |       0.0000 |       0.0000 |       0.0000 |       0.0000 |       0.0000 |       0.0000 |       0.0000 |       0.0000 |       0.0000 |       0.0000 |       0.0000 |       0.0000 |       0.0000 |       0.0000 |       0.0000 |       0.0000 |       0.0000 |       0.0000 |       0.0000 |       0.0000 |       0.0000 |       0.0000 |       0.0000 |
dl1.accesses                                245497 |       245497 |       245497 |       245497 |       504670 |       504670 |       504670 |       504670 |      1117322 |      1117322 |      1117322 |      1117322 |      2302431 |      2302431 |      2302431 |      2302431 |      5046349 |      5046349 |      5046349 |      5046349 |     10378743 |     10378743 |     10378743 |     10378743 |     22530638 |     22530638 |     22530638 |     22530638 |     47805891 |     47805891 |     47805891 |     47805891 |    102723163 |    102723163 |    102723163 |    102723163 |    210056290 |    210056290 |    210056290 |    210056290 |    448589843 |    448589843 |    448589843 |    448589843 |
dl1.hits                                    240050 |       240050 |       238562 |       238562 |       492105 |       492105 |       490498 |       490498 |      1088053 |      1088053 |      1082786 |      1082786 |      2235565 |      2235565 |      2230650 |      2230650 |      4894150 |      4894150 |      4876717 |      4876717 |     10039961 |     10039961 |     10027544 |     10027544 |     21778485 |     21778485 |     21722449 |     21722449 |     46021681 |     46021681 |     46007991 |     46007991 |     98855549 |     98855549 |     98704154 |     98704154 |    201758840 |    201758840 |    201819822 |    201819822 |    430798669 |    430798669 |    430420050 |    430420050 |
dl1.misses                                    5447 |         5447 |         6935 |         6935 |        12565 |        12565 |        14172 |        14172 |        29269 |        29269 |        34536 |        34536 |        66866 |        66866 |        71781 |        71781 |       152199 |       152199 |       169632 |       169632 |       338782 |       338782 |       351199 |       351199 |       752153 |       752153 |       808189 |       808189 |      1784210 |      1784210 |      1797900 |      1797900 |      3867614 |      3867614 |      4019009 |      4019009 |      8297450 |      8297450 |      8236468 |      8236468 |     17791174 |     17791174 |     18169793 |     18169793 |
dl1.replacements                              5191 |         5191 |         6679 |         6679 |        12309 |        12309 |        13916 |        13916 |        29013 |        29013 |        34280 |        34280 |        66610 |        66610 |        71525 |        71525 |       151943 |       151943 |       169376 |       169376 |       338526 |       338526 |       350943 |       350943 |       751897 |       751897 |       807933 |       807933 |      1783954 |      1783954 |      1797644 |      1797644 |      3867358 |      3867358 |      4018753 |      4018753 |      8297194 |      8297194 |      8236212 |      8236212 |     17790918 |     17790918 |     18169537 |     18169537 |
dl1.writebacks                                3518 |         3518 |         5045 |         5045 |         7774 |         7774 |         9751 |         9751 |        17440 |        17440 |        23359 |        23359 |        38749 |        38749 |        46373 |        46373 |        86172 |        86172 |       108971 |       108971 |       188742 |       188742 |       217262 |       217262 |       412604 |       412604 |       500485 |       500485 |       960803 |       960803 |      1065850 |      1065850 |      2061246 |      2061246 |      2395044 |      2395044 |      4393642 |      4393642 |      4785426 |      4785426 |      9348894 |      9348894 |     10627297 |     10627297 |
dl1.invalidations                                0 |            0 |            0 |            0 |            0 |            0 |            0 |            0 |            0 |            0 |            0 |            0 |            0 |            0 |            0 |            0 |            0 |            0 |            0 |            0 |            0 |            0 |            0 |            0 |            0 |            0 |            0 |            0 |            0 |            0 |            0 |            0 |            0 |            0 |            0 |            0 |            0 |            0 |            0 |            0 |            0 |            0 |            0 |            0 |
dl1.miss_rate                               0.0222 |       0.0222 |       0.0282 |       0.0282 |       0.0249 |       0.0249 |       0.0281 |       0.0281 |       0.0262 |       0.0262 |       0.0309 |       0.0309 |       0.0290 |       0.0290 |       0.0312 |       0.0312 |       0.0302 |       0.0302 |       0.0336 |       0.0336 |       0.0326 |       0.0326 |       0.0338 |       0.0338 |       0.0334 |       0.0334 |       0.0359 |       0.0359 |       0.0373 |       0.0373 |       0.0376 |       0.0376 |       0.0377 |       0.0377 |       0.0391 |       0.0391 |       0.0395 |       0.0395 |       0.0392 |       0.0392 |       0.0397 |       0.0397 |       0.0405 |       0.0405 |
dl1.repl_rate                               0.0211 |       0.0211 |       0.0272 |       0.0272 |       0.0244 |       0.0244 |       0.0276 |       0.0276 |       0.0260 |       0.0260 |       0.0307 |       0.0307 |       0.0289 |       0.0289 |       0.0311 |       0.0311 |       0.0301 |       0.0301 |       0.0336 |       0.0336 |       0.0326 |       0.0326 |       0.0338 |       0.0338 |       0.0334 |       0.0334 |       0.0359 |       0.0359 |       0.0373 |       0.0373 |       0.0376 |       0.0376 |       0.0376 |       0.0376 |       0.0391 |       0.0391 |       0.0395 |       0.0395 |       0.0392 |       0.0392 |       0.0397 |       0.0397 |       0.0405 |       0.0405 |
dl1.wb_rate                                 0.0143 |       0.0143 |       0.0206 |       0.0206 |       0.0154 |       0.0154 |       0.0193 |       0.0193 |       0.0156 |       0.0156 |       0.0209 |       0.0209 |       0.0168 |       0.0168 |       0.0201 |       0.0201 |       0.0171 |       0.0171 |       0.0216 |       0.0216 |       0.0182 |       0.0182 |       0.0209 |       0.0209 |       0.0183 |       0.0183 |       0.0222 |       0.0222 |       0.0201 |       0.0201 |       0.0223 |       0.0223 |       0.0201 |       0.0201 |       0.0233 |       0.0233 |       0.0209 |       0.0209 |       0.0228 |       0.0228 |       0.0208 |       0.0208 |       0.0237 |       0.0237 |
dl1.inv_rate                                0.0000 |       0.0000 |       0.0000 |       0.0000 |       0.0000 |       0.0000 |       0.0000 |       0.0000 |       0.0000 |       0.0000 |       0.0000 |       0.0000 |       0.0000 |       0.0000 |       0.0000 |       0.0000 |       0.0000 |       0.0000 |       0.0000 |       0.0000 |       0.0000 |       0.0000 |       0.0000 |       0.0000 |       0.0000 |       0.0000 |       0.0000 |       0.0000 |       0.0000 |       0.0000 |       0.0000 |       0.0000 |       0.0000 |       0.0000 |       0.0000 |       0.0000 |       0.0000 |       0.0000 |       0.0000 |       0.0000 |       0.0000 |       0.0000 |       0.0000 |       0.0000 |
dl2.accesses                                  9634 |         9634 |        12554 |        12554 |        21029 |        21029 |        24521 |        24521 |        47382 |        47382 |        58468 |        58468 |       106305 |       106305 |       118752 |       118752 |       239043 |       239043 |       279180 |       279180 |       528214 |       528214 |       569059 |       569059 |      1165429 |      1165429 |      1309250 |      1309250 |      2747292 |      2747292 |      2864423 |      2864423 |      5932665 |      5932665 |      6414708 |      6414708 |     12698015 |     12698015 |     13022567 |     13022567 |     27153137 |     27153137 |     28797745 |     28797745 |
dl2.hits                                      7657 |         7657 |        10595 |        10595 |        18008 |        18008 |        21519 |        21519 |        42334 |        42334 |        53438 |        53438 |        97140 |        97140 |       109605 |       109605 |       221703 |       221703 |       261858 |       261858 |       494473 |       494473 |       535337 |       535337 |      1098938 |      1096401 |      1242778 |      1206199 |      2505552 |      2335479 |      2697143 |      2342844 |      4948460 |      4741855 |      5233249 |      5111805 |      9815251 |      9792893 |     10136307 |      9894664 |     20296152 |     20294869 |     21977776 |     21494927 |
dl2.misses                                    1977 |         1977 |         1959 |         1959 |         3021 |         3021 |         3002 |         3002 |         5048 |         5048 |         5030 |         5030 |         9165 |         9165 |         9147 |         9147 |        17340 |        17340 |        17322 |        17322 |        33741 |        33741 |        33722 |        33722 |        66491 |        69028 |        66472 |       103051 |       241740 |       411813 |       167280 |       521579 |       984205 |      1190810 |      1181459 |      1302903 |      2882764 |      2905122 |      2886260 |      3127903 |      6856985 |      6858268 |      6819969 |      7302818 |
dl2.replacements                               165 |          165 |            0 |            0 |          184 |          184 |            0 |            0 |          166 |          166 |            0 |            0 |          184 |          184 |            0 |            0 |          168 |          168 |            0 |            0 |          184 |          184 |            0 |            0 |          167 |         3609 |            0 |        37515 |       141895 |       346277 |        36208 |       456043 |       853133 |      1125274 |      1050387 |      1237367 |      2751692 |      2839586 |      2755188 |      3062367 |      6725913 |      6792732 |      6688897 |      7237282 |
dl2.writebacks                                 114 |          114 |            0 |            0 |          131 |          131 |            0 |            0 |          114 |          114 |            0 |            0 |          131 |          131 |            0 |            0 |          115 |          115 |            0 |            0 |          131 |          131 |            0 |            0 |          114 |         2211 |            0 |        37080 |        98224 |       267287 |        35741 |       356999 |       727981 |       760040 |       722136 |       876106 |      1813562 |      1813701 |      1771483 |      2045543 |      4184494 |      4184838 |      4132322 |      4647248 |
dl2.invalidations                                0 |            0 |            0 |            0 |            0 |            0 |            0 |            0 |            0 |            0 |            0 |            0 |            0 |            0 |            0 |            0 |            0 |            0 |            0 |            0 |            0 |            0 |            0 |            0 |            0 |            0 |            0 |            0 |            0 |            0 |            0 |            0 |            0 |            0 |            0 |            0 |            0 |            0 |            0 |            0 |            0 |            0 |            0 |            0 |
dl2.miss_rate                               0.2052 |       0.2052 |       0.1560 |       0.1560 |       0.1437 |       0.1437 |       0.1224 |       0.1224 |       0.1065 |       0.1065 |       0.0860 |       0.0860 |       0.0862 |       0.0862 |       0.0770 |       0.0770 |       0.0725 |       0.0725 |       0.0620 |       0.0620 |       0.0639 |       0.0639 |       0.0593 |       0.0593 |       0.0571 |       0.0592 |       0.0508 |       0.0787 |       0.0880 |       0.1499 |       0.0584 |       0.1821 |       0.1659 |       0.2007 |       0.1842 |       0.2031 |       0.2270 |       0.2288 |       0.2216 |       0.2402 |       0.2525 |       0.2526 |       0.2368 |       0.2536 |
dl2.repl_rate                               0.0171 |       0.0171 |       0.0000 |       0.0000 |       0.0087 |       0.0087 |       0.0000 |       0.0000 |       0.0035 |       0.0035 |       0.0000 |       0.0000 |       0.0017 |       0.0017 |       0.0000 |       0.0000 |       0.0007 |       0.0007 |       0.0000 |       0.0000 |       0.0003 |       0.0003 |       0.0000 |       0.0000 |       0.0001 |       0.0031 |       0.0000 |       0.0287 |       0.0516 |       0.1260 |       0.0126 |       0.1592 |       0.1438 |       0.1897 |       0.1637 |       0.1929 |       0.2167 |       0.2236 |       0.2116 |       0.2352 |       0.2477 |       0.2502 |       0.2323 |       0.2513 |
dl2.wb_rate                                 0.0118 |       0.0118 |       0.0000 |       0.0000 |       0.0062 |       0.0062 |       0.0000 |       0.0000 |       0.0024 |       0.0024 |       0.0000 |       0.0000 |       0.0012 |       0.0012 |       0.0000 |       0.0000 |       0.0005 |       0.0005 |       0.0000 |       0.0000 |       0.0002 |       0.0002 |       0.0000 |       0.0000 |       0.0001 |       0.0019 |       0.0000 |       0.0283 |       0.0358 |       0.0973 |       0.0125 |       0.1246 |       0.1227 |       0.1281 |       0.1126 |       0.1366 |       0.1428 |       0.1428 |       0.1360 |       0.1571 |       0.1541 |       0.1541 |       0.1435 |       0.1614 |
dl2.inv_rate                                0.0000 |       0.0000 |       0.0000 |       0.0000 |       0.0000 |       0.0000 |       0.0000 |       0.0000 |       0.0000 |       0.0000 |       0.0000 |       0.0000 |       0.0000 |       0.0000 |       0.0000 |       0.0000 |       0.0000 |       0.0000 |       0.0000 |       0.0000 |       0.0000 |       0.0000 |       0.0000 |       0.0000 |       0.0000 |       0.0000 |       0.0000 |       0.0000 |       0.0000 |       0.0000 |       0.0000 |       0.0000 |       0.0000 |       0.0000 |       0.0000 |       0.0000 |       0.0000 |       0.0000 |       0.0000 |       0.0000 |       0.0000 |       0.0000 |       0.0000 |       0.0000 |
itlb.accesses                               860239 |       860239 |       860239 |       860239 |      1749948 |      1749948 |      1749948 |      1749948 |      3960510 |      3960510 |      3960510 |      3960510 |      8062765 |      8062765 |      8062765 |      8062765 |     17979450 |     17979450 |     17979450 |     17979450 |     36566877 |     36566877 |     36566877 |     36566877 |     80540251 |     80540251 |     80540251 |     80540251 |    168430077 |    168430077 |    168430077 |    168430077 |    366568667 |    366568667 |    366568667 |    366568667 |    742870102 |    742870102 |    742870102 |    742870102 |   1604564522 |   1604564522 |   1604564522 |   1604564522 |
itlb.hits                                   860227 |       860227 |       860227 |       860227 |      1749936 |      1749936 |      1749936 |      1749936 |      3960498 |      3960498 |      3960498 |      3960498 |      8062753 |      8062753 |      8062753 |      8062753 |     17979438 |     17979438 |     17979438 |     17979438 |     36566865 |     36566865 |     36566865 |     36566865 |     80540239 |     80540239 |     80540239 |     80540239 |    168430065 |    168430065 |    168430065 |    168430065 |    366568655 |    366568655 |    366568655 |    366568655 |    742870090 |    742870090 |    742870090 |    742870090 |   1604564510 |   1604564510 |   1604564510 |   1604564510 |
itlb.misses                                     12 |           12 |           12 |           12 |           12 |           12 |           12 |           12 |           12 |           12 |           12 |           12 |           12 |           12 |           12 |           12 |           12 |           12 |           12 |           12 |           12 |           12 |           12 |           12 |           12 |           12 |           12 |           12 |           12 |           12 |           12 |           12 |           12 |           12 |           12 |           12 |           12 |           12 |           12 |           12 |           12 |           12 |           12 |           12 |
itlb.replacements                                0 |            0 |            0 |            0 |            0 |            0 |            0 |            0 |            0 |            0 |            0 |            0 |            0 |            0 |            0 |            0 |            0 |            0 |            0 |            0 |            0 |            0 |            0 |            0 |            0 |            0 |            0 |            0 |            0 |            0 |            0 |            0 |            0 |            0 |            0 |            0 |            0 |            0 |            0 |            0 |            0 |            0 |            0 |            0 |
itlb.writebacks                                  0 |            0 |            0 |            0 |            0 |            0 |            0 |            0 |            0 |            0 |            0 |            0 |            0 |            0 |            0 |            0 |            0 |            0 |            0 |            0 |            0 |            0 |            0 |            0 |            0 |            0 |            0 |            0 |            0 |            0 |            0 |            0 |            0 |            0 |            0 |            0 |            0 |            0 |            0 |            0 |            0 |            0 |            0 |            0 |
itlb.invalidations                               0 |            0 |            0 |            0 |            0 |            0 |            0 |            0 |            0 |            0 |            0 |            0 |            0 |            0 |            0 |            0 |            0 |            0 |            0 |            0 |            0 |            0 |            0 |            0 |            0 |            0 |            0 |            0 |            0 |            0 |            0 |            0 |            0 |            0 |            0 |            0 |            0 |            0 |            0 |            0 |            0 |            0 |            0 |            0 |
itlb.miss_rate                              0.0000 |       0.0000 |       0.0000 |       0.0000 |       0.0000 |       0.0000 |       0.0000 |       0.0000 |       0.0000 |       0.0000 |       0.0000 |       0.0000 |       0.0000 |       0.0000 |       0.0000 |       0.0000 |       0.0000 |       0.0000 |       0.0000 |       0.0000 |       0.0000 |       0.0000 |       0.0000 |       0.0000 |       0.0000 |       0.0000 |       0.0000 |       0.0000 |       0.0000 |       0.0000 |       0.0000 |       0.0000 |       0.0000 |       0.0000 |       0.0000 |       0.0000 |       0.0000 |       0.0000 |       0.0000 |       0.0000 |       0.0000 |       0.0000 |       0.0000 |       0.0000 |
itlb.repl_rate                              0.0000 |       0.0000 |       0.0000 |       0.0000 |       0.0000 |       0.0000 |       0.0000 |       0.0000 |       0.0000 |       0.0000 |       0.0000 |       0.0000 |       0.0000 |       0.0000 |       0.0000 |       0.0000 |       0.0000 |       0.0000 |       0.0000 |       0.0000 |       0.0000 |       0.0000 |       0.0000 |       0.0000 |       0.0000 |       0.0000 |       0.0000 |       0.0000 |       0.0000 |       0.0000 |       0.0000 |       0.0000 |       0.0000 |       0.0000 |       0.0000 |       0.0000 |       0.0000 |       0.0000 |       0.0000 |       0.0000 |       0.0000 |       0.0000 |       0.0000 |       0.0000 |
itlb.wb_rate                                0.0000 |       0.0000 |       0.0000 |       0.0000 |       0.0000 |       0.0000 |       0.0000 |       0.0000 |       0.0000 |       0.0000 |       0.0000 |       0.0000 |       0.0000 |       0.0000 |       0.0000 |       0.0000 |       0.0000 |       0.0000 |       0.0000 |       0.0000 |       0.0000 |       0.0000 |       0.0000 |       0.0000 |       0.0000 |       0.0000 |       0.0000 |       0.0000 |       0.0000 |       0.0000 |       0.0000 |       0.0000 |       0.0000 |       0.0000 |       0.0000 |       0.0000 |       0.0000 |       0.0000 |       0.0000 |       0.0000 |       0.0000 |       0.0000 |       0.0000 |       0.0000 |
itlb.inv_rate                               0.0000 |       0.0000 |       0.0000 |       0.0000 |       0.0000 |       0.0000 |       0.0000 |       0.0000 |       0.0000 |       0.0000 |       0.0000 |       0.0000 |       0.0000 |       0.0000 |       0.0000 |       0.0000 |       0.0000 |       0.0000 |       0.0000 |       0.0000 |       0.0000 |       0.0000 |       0.0000 |       0.0000 |       0.0000 |       0.0000 |       0.0000 |       0.0000 |       0.0000 |       0.0000 |       0.0000 |       0.0000 |       0.0000 |       0.0000 |       0.0000 |       0.0000 |       0.0000 |       0.0000 |       0.0000 |       0.0000 |       0.0000 |       0.0000 |       0.0000 |       0.0000 |
dtlb.accesses                               245497 |       245497 |       245497 |       245497 |       504670 |       504670 |       504670 |       504670 |      1117322 |      1117322 |      1117322 |      1117322 |      2302431 |      2302431 |      2302431 |      2302431 |      5046349 |      5046349 |      5046349 |      5046349 |     10378743 |     10378743 |     10378743 |     10378743 |     22530638 |     22530638 |     22530638 |     22530638 |     47805891 |     47805891 |     47805891 |     47805891 |    102723163 |    102723163 |    102723163 |    102723163 |    210056290 |    210056290 |    210056290 |    210056290 |    448589843 |    448589843 |    448589843 |    448589843 |
dtlb.hits                                   245481 |       245481 |       245481 |       245481 |       504646 |       504646 |       504646 |       504646 |      1117282 |      1117282 |      1117282 |      1117282 |      2302359 |      2302359 |      2302359 |      2302359 |      5046147 |      5046147 |      5046147 |      5046147 |     10376317 |     10376317 |     10376317 |     10376317 |     22525224 |     22525224 |     22525224 |     22525224 |     47793142 |     47793142 |     47793142 |     47793142 |    102695631 |    102695631 |    102695631 |    102695631 |    209997144 |    209997144 |    209997144 |    209997144 |    448463361 |    448463361 |    448463361 |    448463361 |
dtlb.misses                                     16 |           16 |           16 |           16 |           24 |           24 |           24 |           24 |           40 |           40 |           40 |           40 |           72 |           72 |           72 |           72 |          202 |          202 |          202 |          202 |         2426 |         2426 |         2426 |         2426 |         5414 |         5414 |         5414 |         5414 |        12749 |        12749 |        12749 |        12749 |        27532 |        27532 |        27532 |        27532 |        59146 |        59146 |        59146 |        59146 |       126482 |       126482 |       126482 |       126482 |
dtlb.replacements                                0 |            0 |            0 |            0 |            0 |            0 |            0 |            0 |            0 |            0 |            0 |            0 |            0 |            0 |            0 |            0 |           74 |           74 |           74 |           74 |         2298 |         2298 |         2298 |         2298 |         5286 |         5286 |         5286 |         5286 |        12621 |        12621 |        12621 |        12621 |        27404 |        27404 |        27404 |        27404 |        59018 |        59018 |        59018 |        59018 |       126354 |       126354 |       126354 |       126354 |
dtlb.writebacks                                  0 |            0 |            0 |            0 |            0 |            0 |            0 |            0 |            0 |            0 |            0 |            0 |            0 |            0 |            0 |            0 |           50 |           50 |           50 |           50 |         1335 |         1335 |         1335 |         1335 |         3030 |         3030 |         3030 |         3030 |         7085 |         7085 |         7085 |         7085 |        15249 |        15249 |        15249 |        15249 |        32598 |        32598 |        32598 |        32598 |        69359 |        69359 |        69359 |        69359 |
dtlb.invalidations                               0 |            0 |            0 |            0 |            0 |            0 |            0 |            0 |            0 |            0 |            0 |            0 |            0 |            0 |            0 |            0 |            0 |            0 |            0 |            0 |            0 |            0 |            0 |            0 |            0 |            0 |            0 |            0 |            0 |            0 |            0 |            0 |            0 |            0 |            0 |            0 |            0 |            0 |            0 |            0 |            0 |            0 |            0 |            0 |
dtlb.miss_rate                              0.0001 |       0.0001 |       0.0001 |       0.0001 |       0.0000 |       0.0000 |       0.0000 |       0.0000 |       0.0000 |       0.0000 |       0.0000 |       0.0000 |       0.0000 |       0.0000 |       0.0000 |       0.0000 |       0.0000 |       0.0000 |       0.0000 |       0.0000 |       0.0002 |       0.0002 |       0.0002 |       0.0002 |       0.0002 |       0.0002 |       0.0002 |       0.0002 |       0.0003 |       0.0003 |       0.0003 |       0.0003 |       0.0003 |       0.0003 |       0.0003 |       0.0003 |       0.0003 |       0.0003 |       0.0003 |       0.0003 |       0.0003 |       0.0003 |       0.0003 |       0.0003 |
dtlb.repl_rate                              0.0000 |       0.0000 |       0.0000 |       0.0000 |       0.0000 |       0.0000 |       0.0000 |       0.0000 |       0.0000 |       0.0000 |       0.0000 |       0.0000 |       0.0000 |       0.0000 |       0.0000 |       0.0000 |       0.0000 |       0.0000 |       0.0000 |       0.0000 |       0.0002 |       0.0002 |       0.0002 |       0.0002 |       0.0002 |       0.0002 |       0.0002 |       0.0002 |       0.0003 |       0.0003 |       0.0003 |       0.0003 |       0.0003 |       0.0003 |       0.0003 |       0.0003 |       0.0003 |       0.0003 |       0.0003 |       0.0003 |       0.0003 |       0.0003 |       0.0003 |       0.0003 |
dtlb.wb_rate                                0.0000 |       0.0000 |       0.0000 |       0.0000 |       0.0000 |       0.0000 |       0.0000 |       0.0000 |       0.0000 |       0.0000 |       0.0000 |       0.0000 |       0.0000 |       0.0000 |       0.0000 |       0.0000 |       0.0000 |       0.0000 |       0.0000 |       0.0000 |       0.0001 |       0.0001 |       0.0001 |       0.0001 |       0.0001 |       0.0001 |       0.0001 |       0.0001 |       0.0001 |       0.0001 |       0.0001 |       0.0001 |       0.0001 |       0.0001 |       0.0001 |       0.0001 |       0.0002 |       0.0002 |       0.0002 |       0.0002 |       0.0002 |       0.0002 |       0.0002 |       0.0002 |
dtlb.inv_rate                               0.0000 |       0.0000 |       0.0000 |       0.0000 |       0.0000 |       0.0000 |       0.0000 |       0.0000 |       0.0000 |       0.0000 |       0.0000 |       0.0000 |       0.0000 |       0.0000 |       0.0000 |       0.0000 |       0.0000 |       0.0000 |       0.0000 |       0.0000 |       0.0000 |       0.0000 |       0.0000 |       0.0000 |       0.0000 |       0.0000 |       0.0000 |       0.0000 |       0.0000 |       0.0000 |       0.0000 |       0.0000 |       0.0000 |       0.0000 |       0.0000 |       0.0000 |       0.0000 |       0.0000 |       0.0000 |       0.0000 |       0.0000 |       0.0000 |       0.0000 |       0.0000 |
ld_text_base                            0x00400000 |   0x00400000 |   0x00400000 |   0x00400000 |   0x00400000 |   0x00400000 |   0x00400000 |   0x00400000 |   0x00400000 |   0x00400000 |   0x00400000 |   0x00400000 |   0x00400000 |   0x00400000 |   0x00400000 |   0x00400000 |   0x00400000 |   0x00400000 |   0x00400000 |   0x00400000 |   0x00400000 |   0x00400000 |   0x00400000 |   0x00400000 |   0x00400000 |   0x00400000 |   0x00400000 |   0x00400000 |   0x00400000 |   0x00400000 |   0x00400000 |   0x00400000 |   0x00400000 |   0x00400000 |   0x00400000 |   0x00400000 |   0x00400000 |   0x00400000 |   0x00400000 |   0x00400000 |   0x00400000 |   0x00400000 |   0x00400000 |   0x00400000 |
ld_text_size                                 87648 |        87648 |        87648 |        87648 |        87680 |        87680 |        87680 |        87680 |        87696 |        87696 |        87696 |        87696 |        87712 |        87712 |        87712 |        87712 |        87712 |        87712 |        87712 |        87712 |        87712 |        87712 |        87712 |        87712 |        87712 |        87712 |        87712 |        87712 |        87712 |        87712 |        87712 |        87712 |        87712 |        87712 |        87712 |        87712 |        87712 |        87712 |        87712 |        87712 |        87712 |        87712 |        87712 |        87712 |
ld_data_base                            0x10000000 |   0x10000000 |   0x10000000 |   0x10000000 |   0x10000000 |   0x10000000 |   0x10000000 |   0x10000000 |   0x10000000 |   0x10000000 |   0x10000000 |   0x10000000 |   0x10000000 |   0x10000000 |   0x10000000 |   0x10000000 |   0x10000000 |   0x10000000 |   0x10000000 |   0x10000000 |   0x10000000 |   0x10000000 |   0x10000000 |   0x10000000 |   0x10000000 |   0x10000000 |   0x10000000 |   0x10000000 |   0x10000000 |   0x10000000 |   0x10000000 |   0x10000000 |   0x10000000 |   0x10000000 |   0x10000000 |   0x10000000 |   0x10000000 |   0x10000000 |   0x10000000 |   0x10000000 |   0x10000000 |   0x10000000 |   0x10000000 |   0x10000000 |
ld_data_size                                  8192 |         8192 |         8192 |         8192 |         8192 |         8192 |         8192 |         8192 |         8192 |         8192 |         8192 |         8192 |         8192 |         8192 |         8192 |         8192 |         8192 |         8192 |         8192 |         8192 |         8192 |         8192 |         8192 |         8192 |         8192 |         8192 |         8192 |         8192 |         8192 |         8192 |         8192 |         8192 |         8192 |         8192 |         8192 |         8192 |         8192 |         8192 |         8192 |         8192 |         8192 |         8192 |         8192 |         8192 |
ld_stack_base                           0x7fffc000 |   0x7fffc000 |   0x7fffc000 |   0x7fffc000 |   0x7fffc000 |   0x7fffc000 |   0x7fffc000 |   0x7fffc000 |   0x7fffc000 |   0x7fffc000 |   0x7fffc000 |   0x7fffc000 |   0x7fffc000 |   0x7fffc000 |   0x7fffc000 |   0x7fffc000 |   0x7fffc000 |   0x7fffc000 |   0x7fffc000 |   0x7fffc000 |   0x7fffc000 |   0x7fffc000 |   0x7fffc000 |   0x7fffc000 |   0x7fffc000 |   0x7fffc000 |   0x7fffc000 |   0x7fffc000 |   0x7fffc000 |   0x7fffc000 |   0x7fffc000 |   0x7fffc000 |   0x7fffc000 |   0x7fffc000 |   0x7fffc000 |   0x7fffc000 |   0x7fffc000 |   0x7fffc000 |   0x7fffc000 |   0x7fffc000 |   0x7fffc000 |   0x7fffc000 |   0x7fffc000 |   0x7fffc000 |
ld_stack_size                                16384 |        16384 |        16384 |        16384 |        16384 |        16384 |        16384 |        16384 |        16384 |        16384 |        16384 |        16384 |        16384 |        16384 |        16384 |        16384 |        16384 |        16384 |        16384 |        16384 |        16384 |        16384 |        16384 |        16384 |        16384 |        16384 |        16384 |        16384 |        16384 |        16384 |        16384 |        16384 |        16384 |        16384 |        16384 |        16384 |        16384 |        16384 |        16384 |        16384 |        16384 |        16384 |        16384 |        16384 |
ld_prog_entry                           0x00400140 |   0x00400140 |   0x00400140 |   0x00400140 |   0x00400140 |   0x00400140 |   0x00400140 |   0x00400140 |   0x00400140 |   0x00400140 |   0x00400140 |   0x00400140 |   0x00400140 |   0x00400140 |   0x00400140 |   0x00400140 |   0x00400140 |   0x00400140 |   0x00400140 |   0x00400140 |   0x00400140 |   0x00400140 |   0x00400140 |   0x00400140 |   0x00400140 |   0x00400140 |   0x00400140 |   0x00400140 |   0x00400140 |   0x00400140 |   0x00400140 |   0x00400140 |   0x00400140 |   0x00400140 |   0x00400140 |   0x00400140 |   0x00400140 |   0x00400140 |   0x00400140 |   0x00400140 |   0x00400140 |   0x00400140 |   0x00400140 |   0x00400140 |
ld_environ_base                         0x7fff8000 |   0x7fff8000 |   0x7fff8000 |   0x7fff8000 |   0x7fff8000 |   0x7fff8000 |   0x7fff8000 |   0x7fff8000 |   0x7fff8000 |   0x7fff8000 |   0x7fff8000 |   0x7fff8000 |   0x7fff8000 |   0x7fff8000 |   0x7fff8000 |   0x7fff8000 |   0x7fff8000 |   0x7fff8000 |   0x7fff8000 |   0x7fff8000 |   0x7fff8000 |   0x7fff8000 |   0x7fff8000 |   0x7fff8000 |   0x7fff8000 |   0x7fff8000 |   0x7fff8000 |   0x7fff8000 |   0x7fff8000 |   0x7fff8000 |   0x7fff8000 |   0x7fff8000 |   0x7fff8000 |   0x7fff8000 |   0x7fff8000 |   0x7fff8000 |   0x7fff8000 |   0x7fff8000 |   0x7fff8000 |   0x7fff8000 |   0x7fff8000 |   0x7fff8000 |   0x7fff8000 |   0x7fff8000 |
ld_target_big_endian                             0 |            0 |            0 |            0 |            0 |            0 |            0 |            0 |            0 |            0 |            0 |            0 |            0 |            0 |            0 |            0 |            0 |            0 |            0 |            0 |            0 |            0 |            0 |            0 |            0 |            0 |            0 |            0 |            0 |            0 |            0 |            0 |            0 |            0 |            0 |            0 |            0 |            0 |            0 |            0 |            0 |            0 |            0 |            0 |
mem.page_count                                  38 |           38 |           38 |           38 |           46 |           46 |           46 |           46 |           62 |           62 |           62 |           62 |           94 |           94 |           94 |           94 |          158 |          158 |          158 |          158 |          286 |          286 |          286 |          286 |          542 |          542 |          542 |          542 |         1060 |         1060 |         1060 |         1060 |         2084 |         2084 |         2084 |         2084 |         4138 |         4138 |         4138 |         4138 |         8246 |         8246 |         8246 |         8246 |
mem.page_mem                                  152k |         152k |         152k |         152k |         184k |         184k |         184k |         184k |         248k |         248k |         248k |         248k |         376k |         376k |         376k |         376k |         632k |         632k |         632k |         632k |        1144k |        1144k |        1144k |        1144k |        2168k |        2168k |        2168k |        2168k |        4240k |        4240k |        4240k |        4240k |        8336k |        8336k |        8336k |        8336k |       16552k |       16552k |       16552k |       16552k |       32984k |       32984k |       32984k |       32984k |
mem.ptab_misses                                 38 |           38 |           38 |           38 |           46 |           46 |           46 |           46 |           62 |           62 |           62 |           62 |           94 |           94 |           94 |           94 |          158 |          158 |          158 |          158 |          286 |          286 |          286 |          286 |          542 |          542 |          542 |          542 |         1078 |         1078 |         1078 |         1078 |       110424 |       110424 |       110424 |       110424 |       114578 |       114578 |       114578 |       114578 |       125950 |       125950 |       125950 |       125950 |
mem.ptab_accesses                          4472476 |      4472476 |      4472476 |      4472476 |      8549850 |      8549850 |      8549850 |      8549850 |     18617498 |     18617498 |     18617498 |     18617498 |     37396832 |     37396832 |     37396832 |     37396832 |     82551408 |     82551408 |     82551408 |     82551408 |    167565904 |    167565904 |    167565904 |    167565904 |    367763190 |    367763190 |    367763190 |    367763190 |    769873000 |    769873000 |    769873000 |    769873000 |   1672261904 |   1672261904 |   1672261904 |   1672261904 |   3392133898 |   3392133898 |   3392133898 |   3392133898 |   7315978684 |   7315978684 |   7315978684 |   7315978684 |
mem.ptab_miss_rate                          0.0000 |       0.0000 |       0.0000 |       0.0000 |       0.0000 |       0.0000 |       0.0000 |       0.0000 |       0.0000 |       0.0000 |       0.0000 |       0.0000 |       0.0000 |       0.0000 |       0.0000 |       0.0000 |       0.0000 |       0.0000 |       0.0000 |       0.0000 |       0.0000 |       0.0000 |       0.0000 |       0.0000 |       0.0000 |       0.0000 |       0.0000 |       0.0000 |       0.0000 |       0.0000 |       0.0000 |       0.0000 |       0.0001 |       0.0001 |       0.0001 |       0.0001 |       0.0000 |       0.0000 |       0.0000 |       0.0000 |       0.0000 |       0.0000 |       0.0000 |       0.0000 |
-------------------------------------------------------------------------------------------------
sim-bpred                                     4096 |         4096 |         4096 |         4096 |         4096 |         4096 |         4096 |         8192 |         8192 |         8192 |         8192 |         8192 |         8192 |         8192 |        16384 |        16384 |        16384 |        16384 |        16384 |        16384 |        16384 |        32768 |        32768 |        32768 |        32768 |        32768 |        32768 |        32768 |        65536 |        65536 |        65536 |        65536 |        65536 |        65536 |        65536 |       131072 |       131072 |       131072 |       131072 |       131072 |       131072 |       131072 |       262144 |       262144 |       262144 |       262144 |       262144 |       262144 |       262144 |       524288 |       524288 |       524288 |       524288 |       524288 |       524288 |       524288 |      1048576 |      1048576 |      1048576 |      1048576 |      1048576 |      1048576 |      1048576 |      2097152 |      2097152 |      2097152 |      2097152 |      2097152 |      2097152 |      2097152 |      4194304 |      4194304 |      4194304 |      4194304 |      4194304 |      4194304 |      4194304 |
-bpred bimod -bpred:bimod 512
-bpred bimod -bpred:bimod 1024
-bpred bimod -bpred:bimod 2048
-bpred 2lev -bpred:2lev 1 512 10 1
-bpred 2lev -bpred:2lev 1 1024 10 1
-bpred 2lev -bpred:2lev 1 2048 10 1
-bpred 2lev -bpred:2lev 1 4096 10 1
-------------------------------------------------------------------------------------------------
sim_num_insn                                860239 |       860239 |       860239 |       860239 |       860239 |       860239 |       860239 |      1749948 |      1749948 |      1749948 |      1749948 |      1749948 |      1749948 |      1749948 |      3960510 |      3960510 |      3960510 |      3960510 |      3960510 |      3960510 |      3960510 |      8062765 |      8062765 |      8062765 |      8062765 |      8062765 |      8062765 |      8062765 |     17979450 |     17979450 |     17979450 |     17979450 |     17979450 |     17979450 |     17979450 |     36566877 |     36566877 |     36566877 |     36566877 |     36566877 |     36566877 |     36566877 |     80540251 |     80540251 |     80540251 |     80540251 |     80540251 |     80540251 |     80540251 |    168430077 |    168430077 |    168430077 |    168430077 |    168430077 |    168430077 |    168430077 |    366568667 |    366568667 |    366568667 |    366568667 |    366568667 |    366568667 |    366568667 |    742870102 |    742870102 |    742870102 |    742870102 |    742870102 |    742870102 |    742870102 |   1604564522 |   1604564522 |   1604564522 |   1604564522 |   1604564522 |   1604564522 |   1604564522 |
sim_num_refs                                229031 |       229031 |       229031 |       229031 |       229031 |       229031 |       229031 |       471820 |       471820 |       471820 |       471820 |       471820 |       471820 |       471820 |      1051704 |      1051704 |      1051704 |      1051704 |      1051704 |      1051704 |      1051704 |      2171277 |      2171277 |      2171277 |      2171277 |      2171277 |      2171277 |      2171277 |      4784123 |      4784123 |      4784123 |      4784123 |      4784123 |      4784123 |      4784123 |      9854373 |      9854373 |      9854373 |      9854373 |      9854373 |      9854373 |      9854373 |     21481980 |     21481980 |     21481980 |     21481980 |     21481980 |     21481980 |     21481980 |     45708657 |     45708657 |     45708657 |     45708657 |     45708657 |     45708657 |     45708657 |     98528777 |     98528777 |     98528777 |     98528777 |     98528777 |     98528777 |     98528777 |    201667600 |    201667600 |    201667600 |    201667600 |    201667600 |    201667600 |    201667600 |    431812545 |    431812545 |    431812545 |    431812545 |    431812545 |    431812545 |    431812545 |
sim_elapsed_time                                 1 |            1 |            1 |            1 |            1 |            1 |            1 |            1 |            1 |            1 |            1 |            1 |            1 |            1 |            1 |            1 |            1 |            1 |            1 |            1 |            1 |            1 |            1 |            1 |            1 |            1 |            1 |            1 |            2 |            2 |            2 |            2 |            2 |            2 |            2 |            4 |            4 |            4 |            4 |            5 |            4 |            4 |            9 |            9 |            9 |            9 |            9 |            9 |            9 |           19 |           19 |           19 |           19 |           18 |           18 |           19 |           41 |           40 |           40 |           41 |           41 |           41 |           41 |           82 |           83 |           82 |           84 |           83 |           84 |           83 |          176 |          178 |          177 |          180 |          179 |          179 |          179 |
sim_inst_rate                          860239.0000 |  860239.0000 |  860239.0000 |  860239.0000 |  860239.0000 |  860239.0000 |  860239.0000 | 1749948.0000 | 1749948.0000 | 1749948.0000 | 1749948.0000 | 1749948.0000 | 1749948.0000 | 1749948.0000 | 3960510.0000 | 3960510.0000 | 3960510.0000 | 3960510.0000 | 3960510.0000 | 3960510.0000 | 3960510.0000 | 8062765.0000 | 8062765.0000 | 8062765.0000 | 8062765.0000 | 8062765.0000 | 8062765.0000 | 8062765.0000 | 8989725.0000 | 8989725.0000 | 8989725.0000 | 8989725.0000 | 8989725.0000 | 8989725.0000 | 8989725.0000 | 9141719.2500 | 9141719.2500 | 9141719.2500 | 9141719.2500 | 7313375.4000 | 9141719.2500 | 9141719.2500 | 8948916.7778 | 8948916.7778 | 8948916.7778 | 8948916.7778 | 8948916.7778 | 8948916.7778 | 8948916.7778 | 8864740.8947 | 8864740.8947 | 8864740.8947 | 8864740.8947 | 9357226.5000 | 9357226.5000 | 8864740.8947 | 8940699.1951 | 9164216.6750 | 9164216.6750 | 8940699.1951 | 8940699.1951 | 8940699.1951 | 8940699.1951 | 9059391.4878 | 8950242.1928 | 9059391.4878 | 8843691.6905 | 8950242.1928 | 8843691.6905 | 8950242.1928 | 9116843.8750 | 9014407.4270 | 9065336.2825 | 8914247.3444 | 8964047.6089 | 8964047.6089 | 8964047.6089 |
sim_num_branches                            112990 |       112990 |       112990 |       112990 |       112990 |       112990 |       112990 |       235679 |       235679 |       235679 |       235679 |       235679 |       235679 |       235679 |       514872 |       514872 |       514872 |       514872 |       514872 |       514872 |       514872 |      1072421 |      1072421 |      1072421 |      1072421 |      1072421 |      1072421 |      1072421 |      2319230 |      2319230 |      2319230 |      2319230 |      2319230 |      2319230 |      2319230 |      4812468 |      4812468 |      4812468 |      4812468 |      4812468 |      4812468 |      4812468 |     10323676 |     10323676 |     10323676 |     10323676 |     10323676 |     10323676 |     10323676 |     21939872 |     21939872 |     21939872 |     21939872 |     21939872 |     21939872 |     21939872 |     46688129 |     46688129 |     46688129 |     46688129 |     46688129 |     46688129 |     46688129 |     96153468 |     96153468 |     96153468 |     96153468 |     96153468 |     96153468 |     96153468 |    203543148 |    203543148 |    203543148 |    203543148 |    203543148 |    203543148 |    203543148 |
sim_IPB                                     7.6134 |       7.6134 |       7.6134 |       7.6134 |       7.6134 |       7.6134 |       7.6134 |       7.4251 |       7.4251 |       7.4251 |       7.4251 |       7.4251 |       7.4251 |       7.4251 |       7.6922 |       7.6922 |       7.6922 |       7.6922 |       7.6922 |       7.6922 |       7.6922 |       7.5183 |       7.5183 |       7.5183 |       7.5183 |       7.5183 |       7.5183 |       7.5183 |       7.7523 |       7.7523 |       7.7523 |       7.7523 |       7.7523 |       7.7523 |       7.7523 |       7.5984 |       7.5984 |       7.5984 |       7.5984 |       7.5984 |       7.5984 |       7.5984 |       7.8015 |       7.8015 |       7.8015 |       7.8015 |       7.8015 |       7.8015 |       7.8015 |       7.6769 |       7.6769 |       7.6769 |       7.6769 |       7.6769 |       7.6769 |       7.6769 |       7.8514 |       7.8514 |       7.8514 |       7.8514 |       7.8514 |       7.8514 |       7.8514 |       7.7259 |       7.7259 |       7.7259 |       7.7259 |       7.7259 |       7.7259 |       7.7259 |       7.8832 |       7.8832 |       7.8832 |       7.8832 |       7.8832 |       7.8832 |       7.8832 |
bpred_bimod.lookups                         112990 |       112990 |       112990 |xxxxxxxxxxxxx |xxxxxxxxxxxxx |xxxxxxxxxxxxx |xxxxxxxxxxxxx |       235679 |       235679 |       235679 |xxxxxxxxxxxxx |xxxxxxxxxxxxx |xxxxxxxxxxxxx |xxxxxxxxxxxxx |       514872 |       514872 |       514872 |xxxxxxxxxxxxx |xxxxxxxxxxxxx |xxxxxxxxxxxxx |xxxxxxxxxxxxx |      1072421 |      1072421 |      1072421 |xxxxxxxxxxxxx |xxxxxxxxxxxxx |xxxxxxxxxxxxx |xxxxxxxxxxxxx |      2319230 |      2319230 |      2319230 |xxxxxxxxxxxxx |xxxxxxxxxxxxx |xxxxxxxxxxxxx |xxxxxxxxxxxxx |      4812468 |      4812468 |      4812468 |xxxxxxxxxxxxx |xxxxxxxxxxxxx |xxxxxxxxxxxxx |xxxxxxxxxxxxx |     10323676 |     10323676 |     10323676 |xxxxxxxxxxxxx |xxxxxxxxxxxxx |xxxxxxxxxxxxx |xxxxxxxxxxxxx |     21939872 |     21939872 |     21939872 |xxxxxxxxxxxxx |xxxxxxxxxxxxx |xxxxxxxxxxxxx |xxxxxxxxxxxxx |     46688129 |     46688129 |     46688129 |xxxxxxxxxxxxx |xxxxxxxxxxxxx |xxxxxxxxxxxxx |xxxxxxxxxxxxx |     96153468 |     96153468 |     96153468 |xxxxxxxxxxxxx |xxxxxxxxxxxxx |xxxxxxxxxxxxx |xxxxxxxxxxxxx |    203543148 |    203543148 |    203543148 |
bpred_bimod.updates                         112990 |       112990 |       112990 |xxxxxxxxxxxxx |xxxxxxxxxxxxx |xxxxxxxxxxxxx |xxxxxxxxxxxxx |       235679 |       235679 |       235679 |xxxxxxxxxxxxx |xxxxxxxxxxxxx |xxxxxxxxxxxxx |xxxxxxxxxxxxx |       514872 |       514872 |       514872 |xxxxxxxxxxxxx |xxxxxxxxxxxxx |xxxxxxxxxxxxx |xxxxxxxxxxxxx |      1072421 |      1072421 |      1072421 |xxxxxxxxxxxxx |xxxxxxxxxxxxx |xxxxxxxxxxxxx |xxxxxxxxxxxxx |      2319230 |      2319230 |      2319230 |xxxxxxxxxxxxx |xxxxxxxxxxxxx |xxxxxxxxxxxxx |xxxxxxxxxxxxx |      4812468 |      4812468 |      4812468 |xxxxxxxxxxxxx |xxxxxxxxxxxxx |xxxxxxxxxxxxx |xxxxxxxxxxxxx |     10323676 |     10323676 |     10323676 |xxxxxxxxxxxxx |xxxxxxxxxxxxx |xxxxxxxxxxxxx |xxxxxxxxxxxxx |     21939872 |     21939872 |     21939872 |xxxxxxxxxxxxx |xxxxxxxxxxxxx |xxxxxxxxxxxxx |xxxxxxxxxxxxx |     46688129 |     46688129 |     46688129 |xxxxxxxxxxxxx |xxxxxxxxxxxxx |xxxxxxxxxxxxx |xxxxxxxxxxxxx |     96153468 |     96153468 |     96153468 |xxxxxxxxxxxxx |xxxxxxxxxxxxx |xxxxxxxxxxxxx |xxxxxxxxxxxxx |    203543148 |    203543148 |    203543148 |
bpred_bimod.addr_hits                        87350 |        87358 |        87360 |xxxxxxxxxxxxx |xxxxxxxxxxxxx |xxxxxxxxxxxxx |xxxxxxxxxxxxx |       183874 |       183881 |       183880 |xxxxxxxxxxxxx |xxxxxxxxxxxxx |xxxxxxxxxxxxx |xxxxxxxxxxxxx |       396509 |       396533 |       396535 |xxxxxxxxxxxxx |xxxxxxxxxxxxx |xxxxxxxxxxxxx |xxxxxxxxxxxxx |       833659 |       833661 |       833663 |xxxxxxxxxxxxx |xxxxxxxxxxxxx |xxxxxxxxxxxxx |xxxxxxxxxxxxx |      1781232 |      1781307 |      1781310 |xxxxxxxxxxxxx |xxxxxxxxxxxxx |xxxxxxxxxxxxx |xxxxxxxxxxxxx |      3727760 |      3727803 |      3727804 |xxxxxxxxxxxxx |xxxxxxxxxxxxx |xxxxxxxxxxxxx |xxxxxxxxxxxxx |      7911323 |      7911612 |      7911615 |xxxxxxxxxxxxx |xxxxxxxxxxxxx |xxxxxxxxxxxxx |xxxxxxxxxxxxx |     17071885 |     17072019 |     17072021 |xxxxxxxxxxxxx |xxxxxxxxxxxxx |xxxxxxxxxxxxx |xxxxxxxxxxxxx |     35992782 |     35993897 |     35993897 |xxxxxxxxxxxxx |xxxxxxxxxxxxx |xxxxxxxxxxxxx |xxxxxxxxxxxxx |     74593871 |     74594491 |     74594496 |xxxxxxxxxxxxx |xxxxxxxxxxxxx |xxxxxxxxxxxxx |xxxxxxxxxxxxx |    156565610 |    156569786 |    156569786 |
bpred_bimod.dir_hits                         87501 |        87509 |        87510 |xxxxxxxxxxxxx |xxxxxxxxxxxxx |xxxxxxxxxxxxx |xxxxxxxxxxxxx |       184024 |       184033 |       184033 |xxxxxxxxxxxxx |xxxxxxxxxxxxx |xxxxxxxxxxxxx |xxxxxxxxxxxxx |       396665 |       396685 |       396686 |xxxxxxxxxxxxx |xxxxxxxxxxxxx |xxxxxxxxxxxxx |xxxxxxxxxxxxx |       833806 |       833809 |       833813 |xxxxxxxxxxxxx |xxxxxxxxxxxxx |xxxxxxxxxxxxx |xxxxxxxxxxxxx |      1781381 |      1781456 |      1781461 |xxxxxxxxxxxxx |xxxxxxxxxxxxx |xxxxxxxxxxxxx |xxxxxxxxxxxxx |      3727908 |      3727952 |      3727955 |xxxxxxxxxxxxx |xxxxxxxxxxxxx |xxxxxxxxxxxxx |xxxxxxxxxxxxx |      7911469 |      7911757 |      7911763 |xxxxxxxxxxxxx |xxxxxxxxxxxxx |xxxxxxxxxxxxx |xxxxxxxxxxxxx |     17072056 |     17072190 |     17072193 |xxxxxxxxxxxxx |xxxxxxxxxxxxx |xxxxxxxxxxxxx |xxxxxxxxxxxxx |     35992956 |     35994070 |     35994071 |xxxxxxxxxxxxx |xxxxxxxxxxxxx |xxxxxxxxxxxxx |xxxxxxxxxxxxx |     74594044 |     74594664 |     74594669 |xxxxxxxxxxxxx |xxxxxxxxxxxxx |xxxxxxxxxxxxx |xxxxxxxxxxxxx |    156565784 |    156569959 |    156569960 |
bpred_bimod.misses                           25489 |        25481 |        25480 |xxxxxxxxxxxxx |xxxxxxxxxxxxx |xxxxxxxxxxxxx |xxxxxxxxxxxxx |        51655 |        51646 |        51646 |xxxxxxxxxxxxx |xxxxxxxxxxxxx |xxxxxxxxxxxxx |xxxxxxxxxxxxx |       118207 |       118187 |       118186 |xxxxxxxxxxxxx |xxxxxxxxxxxxx |xxxxxxxxxxxxx |xxxxxxxxxxxxx |       238615 |       238612 |       238608 |xxxxxxxxxxxxx |xxxxxxxxxxxxx |xxxxxxxxxxxxx |xxxxxxxxxxxxx |       537849 |       537774 |       537769 |xxxxxxxxxxxxx |xxxxxxxxxxxxx |xxxxxxxxxxxxx |xxxxxxxxxxxxx |      1084560 |      1084516 |      1084513 |xxxxxxxxxxxxx |xxxxxxxxxxxxx |xxxxxxxxxxxxx |xxxxxxxxxxxxx |      2412207 |      2411919 |      2411913 |xxxxxxxxxxxxx |xxxxxxxxxxxxx |xxxxxxxxxxxxx |xxxxxxxxxxxxx |      4867816 |      4867682 |      4867679 |xxxxxxxxxxxxx |xxxxxxxxxxxxx |xxxxxxxxxxxxx |xxxxxxxxxxxxx |     10695173 |     10694059 |     10694058 |xxxxxxxxxxxxx |xxxxxxxxxxxxx |xxxxxxxxxxxxx |xxxxxxxxxxxxx |     21559424 |     21558804 |     21558799 |xxxxxxxxxxxxx |xxxxxxxxxxxxx |xxxxxxxxxxxxx |xxxxxxxxxxxxx |     46977364 |     46973189 |     46973188 |
bpred_bimod.jr_hits                             79 |           79 |           79 |xxxxxxxxxxxxx |xxxxxxxxxxxxx |xxxxxxxxxxxxx |xxxxxxxxxxxxx |           87 |           87 |           87 |xxxxxxxxxxxxx |xxxxxxxxxxxxx |xxxxxxxxxxxxx |xxxxxxxxxxxxx |          103 |          103 |          103 |xxxxxxxxxxxxx |xxxxxxxxxxxxx |xxxxxxxxxxxxx |xxxxxxxxxxxxx |          135 |          135 |          135 |xxxxxxxxxxxxx |xxxxxxxxxxxxx |xxxxxxxxxxxxx |xxxxxxxxxxxxx |          199 |          199 |          199 |xxxxxxxxxxxxx |xxxxxxxxxxxxx |xxxxxxxxxxxxx |xxxxxxxxxxxxx |          327 |          327 |          327 |xxxxxxxxxxxxx |xxxxxxxxxxxxx |xxxxxxxxxxxxx |xxxxxxxxxxxxx |          583 |          583 |          583 |xxxxxxxxxxxxx |xxxxxxxxxxxxx |xxxxxxxxxxxxx |xxxxxxxxxxxxx |         1100 |         1100 |         1100 |xxxxxxxxxxxxx |xxxxxxxxxxxxx |xxxxxxxxxxxxx |xxxxxxxxxxxxx |         2126 |         2126 |         2126 |xxxxxxxxxxxxx |xxxxxxxxxxxxx |xxxxxxxxxxxxx |xxxxxxxxxxxxx |         4178 |         4178 |         4178 |xxxxxxxxxxxxx |xxxxxxxxxxxxx |xxxxxxxxxxxxx |xxxxxxxxxxxxx |         8282 |         8282 |         8282 |
bpred_bimod.jr_seen                             80 |           80 |           80 |xxxxxxxxxxxxx |xxxxxxxxxxxxx |xxxxxxxxxxxxx |xxxxxxxxxxxxx |           88 |           88 |           88 |xxxxxxxxxxxxx |xxxxxxxxxxxxx |xxxxxxxxxxxxx |xxxxxxxxxxxxx |          104 |          104 |          104 |xxxxxxxxxxxxx |xxxxxxxxxxxxx |xxxxxxxxxxxxx |xxxxxxxxxxxxx |          136 |          136 |          136 |xxxxxxxxxxxxx |xxxxxxxxxxxxx |xxxxxxxxxxxxx |xxxxxxxxxxxxx |          200 |          200 |          200 |xxxxxxxxxxxxx |xxxxxxxxxxxxx |xxxxxxxxxxxxx |xxxxxxxxxxxxx |          328 |          328 |          328 |xxxxxxxxxxxxx |xxxxxxxxxxxxx |xxxxxxxxxxxxx |xxxxxxxxxxxxx |          584 |          584 |          584 |xxxxxxxxxxxxx |xxxxxxxxxxxxx |xxxxxxxxxxxxx |xxxxxxxxxxxxx |         1101 |         1101 |         1101 |xxxxxxxxxxxxx |xxxxxxxxxxxxx |xxxxxxxxxxxxx |xxxxxxxxxxxxx |         2127 |         2127 |         2127 |xxxxxxxxxxxxx |xxxxxxxxxxxxx |xxxxxxxxxxxxx |xxxxxxxxxxxxx |         4179 |         4179 |         4179 |xxxxxxxxxxxxx |xxxxxxxxxxxxx |xxxxxxxxxxxxx |xxxxxxxxxxxxx |         8283 |         8283 |         8283 |
bpred_bimod.jr_non_ras_hits.PP                   0 |            0 |            0 |xxxxxxxxxxxxx |xxxxxxxxxxxxx |xxxxxxxxxxxxx |xxxxxxxxxxxxx |            0 |            0 |            0 |xxxxxxxxxxxxx |xxxxxxxxxxxxx |xxxxxxxxxxxxx |xxxxxxxxxxxxx |            0 |            0 |            0 |xxxxxxxxxxxxx |xxxxxxxxxxxxx |xxxxxxxxxxxxx |xxxxxxxxxxxxx |            0 |            0 |            0 |xxxxxxxxxxxxx |xxxxxxxxxxxxx |xxxxxxxxxxxxx |xxxxxxxxxxxxx |            0 |            0 |            0 |xxxxxxxxxxxxx |xxxxxxxxxxxxx |xxxxxxxxxxxxx |xxxxxxxxxxxxx |            0 |            0 |            0 |xxxxxxxxxxxxx |xxxxxxxxxxxxx |xxxxxxxxxxxxx |xxxxxxxxxxxxx |            0 |            0 |            0 |xxxxxxxxxxxxx |xxxxxxxxxxxxx |xxxxxxxxxxxxx |xxxxxxxxxxxxx |            0 |            0 |            0 |xxxxxxxxxxxxx |xxxxxxxxxxxxx |xxxxxxxxxxxxx |xxxxxxxxxxxxx |            0 |            0 |            0 |xxxxxxxxxxxxx |xxxxxxxxxxxxx |xxxxxxxxxxxxx |xxxxxxxxxxxxx |            0 |            0 |            0 |xxxxxxxxxxxxx |xxxxxxxxxxxxx |xxxxxxxxxxxxx |xxxxxxxxxxxxx |            0 |            0 |            0 |
bpred_bimod.jr_non_ras_seen.PP                   0 |            0 |            0 |xxxxxxxxxxxxx |xxxxxxxxxxxxx |xxxxxxxxxxxxx |xxxxxxxxxxxxx |            0 |            0 |            0 |xxxxxxxxxxxxx |xxxxxxxxxxxxx |xxxxxxxxxxxxx |xxxxxxxxxxxxx |            0 |            0 |            0 |xxxxxxxxxxxxx |xxxxxxxxxxxxx |xxxxxxxxxxxxx |xxxxxxxxxxxxx |            0 |            0 |            0 |xxxxxxxxxxxxx |xxxxxxxxxxxxx |xxxxxxxxxxxxx |xxxxxxxxxxxxx |            0 |            0 |            0 |xxxxxxxxxxxxx |xxxxxxxxxxxxx |xxxxxxxxxxxxx |xxxxxxxxxxxxx |            0 |            0 |            0 |xxxxxxxxxxxxx |xxxxxxxxxxxxx |xxxxxxxxxxxxx |xxxxxxxxxxxxx |            0 |            0 |            0 |xxxxxxxxxxxxx |xxxxxxxxxxxxx |xxxxxxxxxxxxx |xxxxxxxxxxxxx |            1 |            1 |            1 |xxxxxxxxxxxxx |xxxxxxxxxxxxx |xxxxxxxxxxxxx |xxxxxxxxxxxxx |            1 |            1 |            1 |xxxxxxxxxxxxx |xxxxxxxxxxxxx |xxxxxxxxxxxxx |xxxxxxxxxxxxx |            1 |            1 |            1 |xxxxxxxxxxxxx |xxxxxxxxxxxxx |xxxxxxxxxxxxx |xxxxxxxxxxxxx |            1 |            1 |            1 |
bpred_bimod.bpred_addr_rate                 0.7731 |       0.7731 |       0.7732 |xxxxxxxxxxxxx |xxxxxxxxxxxxx |xxxxxxxxxxxxx |xxxxxxxxxxxxx |       0.7802 |       0.7802 |       0.7802 |xxxxxxxxxxxxx |xxxxxxxxxxxxx |xxxxxxxxxxxxx |xxxxxxxxxxxxx |       0.7701 |       0.7702 |       0.7702 |xxxxxxxxxxxxx |xxxxxxxxxxxxx |xxxxxxxxxxxxx |xxxxxxxxxxxxx |       0.7774 |       0.7774 |       0.7774 |xxxxxxxxxxxxx |xxxxxxxxxxxxx |xxxxxxxxxxxxx |xxxxxxxxxxxxx |       0.7680 |       0.7681 |       0.7681 |xxxxxxxxxxxxx |xxxxxxxxxxxxx |xxxxxxxxxxxxx |xxxxxxxxxxxxx |       0.7746 |       0.7746 |       0.7746 |xxxxxxxxxxxxx |xxxxxxxxxxxxx |xxxxxxxxxxxxx |xxxxxxxxxxxxx |       0.7663 |       0.7664 |       0.7664 |xxxxxxxxxxxxx |xxxxxxxxxxxxx |xxxxxxxxxxxxx |xxxxxxxxxxxxx |       0.7781 |       0.7781 |       0.7781 |xxxxxxxxxxxxx |xxxxxxxxxxxxx |xxxxxxxxxxxxx |xxxxxxxxxxxxx |       0.7709 |       0.7709 |       0.7709 |xxxxxxxxxxxxx |xxxxxxxxxxxxx |xxxxxxxxxxxxx |xxxxxxxxxxxxx |       0.7758 |       0.7758 |       0.7758 |xxxxxxxxxxxxx |xxxxxxxxxxxxx |xxxxxxxxxxxxx |xxxxxxxxxxxxx |       0.7692 |       0.7692 |       0.7692 |
bpred_bimod.bpred_dir_rate                  0.7744 |       0.7745 |       0.7745 |xxxxxxxxxxxxx |xxxxxxxxxxxxx |xxxxxxxxxxxxx |xxxxxxxxxxxxx |       0.7808 |       0.7809 |       0.7809 |xxxxxxxxxxxxx |xxxxxxxxxxxxx |xxxxxxxxxxxxx |xxxxxxxxxxxxx |       0.7704 |       0.7705 |       0.7705 |xxxxxxxxxxxxx |xxxxxxxxxxxxx |xxxxxxxxxxxxx |xxxxxxxxxxxxx |       0.7775 |       0.7775 |       0.7775 |xxxxxxxxxxxxx |xxxxxxxxxxxxx |xxxxxxxxxxxxx |xxxxxxxxxxxxx |       0.7681 |       0.7681 |       0.7681 |xxxxxxxxxxxxx |xxxxxxxxxxxxx |xxxxxxxxxxxxx |xxxxxxxxxxxxx |       0.7746 |       0.7746 |       0.7746 |xxxxxxxxxxxxx |xxxxxxxxxxxxx |xxxxxxxxxxxxx |xxxxxxxxxxxxx |       0.7663 |       0.7664 |       0.7664 |xxxxxxxxxxxxx |xxxxxxxxxxxxx |xxxxxxxxxxxxx |xxxxxxxxxxxxx |       0.7781 |       0.7781 |       0.7781 |xxxxxxxxxxxxx |xxxxxxxxxxxxx |xxxxxxxxxxxxx |xxxxxxxxxxxxx |       0.7709 |       0.7709 |       0.7709 |xxxxxxxxxxxxx |xxxxxxxxxxxxx |xxxxxxxxxxxxx |xxxxxxxxxxxxx |       0.7758 |       0.7758 |       0.7758 |xxxxxxxxxxxxx |xxxxxxxxxxxxx |xxxxxxxxxxxxx |xxxxxxxxxxxxx |       0.7692 |       0.7692 |       0.7692 |
bpred_bimod.bpred_jr_rate                   0.9875 |       0.9875 |       0.9875 |xxxxxxxxxxxxx |xxxxxxxxxxxxx |xxxxxxxxxxxxx |xxxxxxxxxxxxx |       0.9886 |       0.9886 |       0.9886 |xxxxxxxxxxxxx |xxxxxxxxxxxxx |xxxxxxxxxxxxx |xxxxxxxxxxxxx |       0.9904 |       0.9904 |       0.9904 |xxxxxxxxxxxxx |xxxxxxxxxxxxx |xxxxxxxxxxxxx |xxxxxxxxxxxxx |       0.9926 |       0.9926 |       0.9926 |xxxxxxxxxxxxx |xxxxxxxxxxxxx |xxxxxxxxxxxxx |xxxxxxxxxxxxx |       0.9950 |       0.9950 |       0.9950 |xxxxxxxxxxxxx |xxxxxxxxxxxxx |xxxxxxxxxxxxx |xxxxxxxxxxxxx |       0.9970 |       0.9970 |       0.9970 |xxxxxxxxxxxxx |xxxxxxxxxxxxx |xxxxxxxxxxxxx |xxxxxxxxxxxxx |       0.9983 |       0.9983 |       0.9983 |xxxxxxxxxxxxx |xxxxxxxxxxxxx |xxxxxxxxxxxxx |xxxxxxxxxxxxx |       0.9991 |       0.9991 |       0.9991 |xxxxxxxxxxxxx |xxxxxxxxxxxxx |xxxxxxxxxxxxx |xxxxxxxxxxxxx |       0.9995 |       0.9995 |       0.9995 |xxxxxxxxxxxxx |xxxxxxxxxxxxx |xxxxxxxxxxxxx |xxxxxxxxxxxxx |       0.9998 |       0.9998 |       0.9998 |xxxxxxxxxxxxx |xxxxxxxxxxxxx |xxxxxxxxxxxxx |xxxxxxxxxxxxx |       0.9999 |       0.9999 |       0.9999 |
bpred_bimod.bpred_jr_non_ras_rate.PP       <error: |      <error: |      <error: |xxxxxxxxxxxxx |xxxxxxxxxxxxx |xxxxxxxxxxxxx |xxxxxxxxxxxxx |      <error: |      <error: |      <error: |xxxxxxxxxxxxx |xxxxxxxxxxxxx |xxxxxxxxxxxxx |xxxxxxxxxxxxx |      <error: |      <error: |      <error: |xxxxxxxxxxxxx |xxxxxxxxxxxxx |xxxxxxxxxxxxx |xxxxxxxxxxxxx |      <error: |      <error: |      <error: |xxxxxxxxxxxxx |xxxxxxxxxxxxx |xxxxxxxxxxxxx |xxxxxxxxxxxxx |      <error: |      <error: |      <error: |xxxxxxxxxxxxx |xxxxxxxxxxxxx |xxxxxxxxxxxxx |xxxxxxxxxxxxx |      <error: |      <error: |      <error: |xxxxxxxxxxxxx |xxxxxxxxxxxxx |xxxxxxxxxxxxx |xxxxxxxxxxxxx |      <error: |      <error: |      <error: |xxxxxxxxxxxxx |xxxxxxxxxxxxx |xxxxxxxxxxxxx |xxxxxxxxxxxxx |       0.0000 |       0.0000 |       0.0000 |xxxxxxxxxxxxx |xxxxxxxxxxxxx |xxxxxxxxxxxxx |xxxxxxxxxxxxx |       0.0000 |       0.0000 |       0.0000 |xxxxxxxxxxxxx |xxxxxxxxxxxxx |xxxxxxxxxxxxx |xxxxxxxxxxxxx |       0.0000 |       0.0000 |       0.0000 |xxxxxxxxxxxxx |xxxxxxxxxxxxx |xxxxxxxxxxxxx |xxxxxxxxxxxxx |       0.0000 |       0.0000 |       0.0000 |
bpred_bimod.retstack_pushes                     82 |           82 |           82 |xxxxxxxxxxxxx |xxxxxxxxxxxxx |xxxxxxxxxxxxx |xxxxxxxxxxxxx |           90 |           90 |           90 |xxxxxxxxxxxxx |xxxxxxxxxxxxx |xxxxxxxxxxxxx |xxxxxxxxxxxxx |          106 |          106 |          106 |xxxxxxxxxxxxx |xxxxxxxxxxxxx |xxxxxxxxxxxxx |xxxxxxxxxxxxx |          138 |          138 |          138 |xxxxxxxxxxxxx |xxxxxxxxxxxxx |xxxxxxxxxxxxx |xxxxxxxxxxxxx |          202 |          202 |          202 |xxxxxxxxxxxxx |xxxxxxxxxxxxx |xxxxxxxxxxxxx |xxxxxxxxxxxxx |          330 |          330 |          330 |xxxxxxxxxxxxx |xxxxxxxxxxxxx |xxxxxxxxxxxxx |xxxxxxxxxxxxx |          586 |          586 |          586 |xxxxxxxxxxxxx |xxxxxxxxxxxxx |xxxxxxxxxxxxx |xxxxxxxxxxxxx |         1102 |         1102 |         1102 |xxxxxxxxxxxxx |xxxxxxxxxxxxx |xxxxxxxxxxxxx |xxxxxxxxxxxxx |         2128 |         2128 |         2128 |xxxxxxxxxxxxx |xxxxxxxxxxxxx |xxxxxxxxxxxxx |xxxxxxxxxxxxx |         4180 |         4180 |         4180 |xxxxxxxxxxxxx |xxxxxxxxxxxxx |xxxxxxxxxxxxx |xxxxxxxxxxxxx |         8284 |         8284 |         8284 |
bpred_bimod.retstack_pops                       80 |           80 |           80 |xxxxxxxxxxxxx |xxxxxxxxxxxxx |xxxxxxxxxxxxx |xxxxxxxxxxxxx |           88 |           88 |           88 |xxxxxxxxxxxxx |xxxxxxxxxxxxx |xxxxxxxxxxxxx |xxxxxxxxxxxxx |          104 |          104 |          104 |xxxxxxxxxxxxx |xxxxxxxxxxxxx |xxxxxxxxxxxxx |xxxxxxxxxxxxx |          136 |          136 |          136 |xxxxxxxxxxxxx |xxxxxxxxxxxxx |xxxxxxxxxxxxx |xxxxxxxxxxxxx |          200 |          200 |          200 |xxxxxxxxxxxxx |xxxxxxxxxxxxx |xxxxxxxxxxxxx |xxxxxxxxxxxxx |          328 |          328 |          328 |xxxxxxxxxxxxx |xxxxxxxxxxxxx |xxxxxxxxxxxxx |xxxxxxxxxxxxx |          584 |          584 |          584 |xxxxxxxxxxxxx |xxxxxxxxxxxxx |xxxxxxxxxxxxx |xxxxxxxxxxxxx |         1100 |         1100 |         1100 |xxxxxxxxxxxxx |xxxxxxxxxxxxx |xxxxxxxxxxxxx |xxxxxxxxxxxxx |         2126 |         2126 |         2126 |xxxxxxxxxxxxx |xxxxxxxxxxxxx |xxxxxxxxxxxxx |xxxxxxxxxxxxx |         4178 |         4178 |         4178 |xxxxxxxxxxxxx |xxxxxxxxxxxxx |xxxxxxxxxxxxx |xxxxxxxxxxxxx |         8282 |         8282 |         8282 |
bpred_bimod.used_ras.PP                         80 |           80 |           80 |xxxxxxxxxxxxx |xxxxxxxxxxxxx |xxxxxxxxxxxxx |xxxxxxxxxxxxx |           88 |           88 |           88 |xxxxxxxxxxxxx |xxxxxxxxxxxxx |xxxxxxxxxxxxx |xxxxxxxxxxxxx |          104 |          104 |          104 |xxxxxxxxxxxxx |xxxxxxxxxxxxx |xxxxxxxxxxxxx |xxxxxxxxxxxxx |          136 |          136 |          136 |xxxxxxxxxxxxx |xxxxxxxxxxxxx |xxxxxxxxxxxxx |xxxxxxxxxxxxx |          200 |          200 |          200 |xxxxxxxxxxxxx |xxxxxxxxxxxxx |xxxxxxxxxxxxx |xxxxxxxxxxxxx |          328 |          328 |          328 |xxxxxxxxxxxxx |xxxxxxxxxxxxx |xxxxxxxxxxxxx |xxxxxxxxxxxxx |          584 |          584 |          584 |xxxxxxxxxxxxx |xxxxxxxxxxxxx |xxxxxxxxxxxxx |xxxxxxxxxxxxx |         1100 |         1100 |         1100 |xxxxxxxxxxxxx |xxxxxxxxxxxxx |xxxxxxxxxxxxx |xxxxxxxxxxxxx |         2126 |         2126 |         2126 |xxxxxxxxxxxxx |xxxxxxxxxxxxx |xxxxxxxxxxxxx |xxxxxxxxxxxxx |         4178 |         4178 |         4178 |xxxxxxxxxxxxx |xxxxxxxxxxxxx |xxxxxxxxxxxxx |xxxxxxxxxxxxx |         8282 |         8282 |         8282 |
bpred_bimod.ras_hits.PP                         79 |           79 |           79 |xxxxxxxxxxxxx |xxxxxxxxxxxxx |xxxxxxxxxxxxx |xxxxxxxxxxxxx |           87 |           87 |           87 |xxxxxxxxxxxxx |xxxxxxxxxxxxx |xxxxxxxxxxxxx |xxxxxxxxxxxxx |          103 |          103 |          103 |xxxxxxxxxxxxx |xxxxxxxxxxxxx |xxxxxxxxxxxxx |xxxxxxxxxxxxx |          135 |          135 |          135 |xxxxxxxxxxxxx |xxxxxxxxxxxxx |xxxxxxxxxxxxx |xxxxxxxxxxxxx |          199 |          199 |          199 |xxxxxxxxxxxxx |xxxxxxxxxxxxx |xxxxxxxxxxxxx |xxxxxxxxxxxxx |          327 |          327 |          327 |xxxxxxxxxxxxx |xxxxxxxxxxxxx |xxxxxxxxxxxxx |xxxxxxxxxxxxx |          583 |          583 |          583 |xxxxxxxxxxxxx |xxxxxxxxxxxxx |xxxxxxxxxxxxx |xxxxxxxxxxxxx |         1100 |         1100 |         1100 |xxxxxxxxxxxxx |xxxxxxxxxxxxx |xxxxxxxxxxxxx |xxxxxxxxxxxxx |         2126 |         2126 |         2126 |xxxxxxxxxxxxx |xxxxxxxxxxxxx |xxxxxxxxxxxxx |xxxxxxxxxxxxx |         4178 |         4178 |         4178 |xxxxxxxxxxxxx |xxxxxxxxxxxxx |xxxxxxxxxxxxx |xxxxxxxxxxxxx |         8282 |         8282 |         8282 |
bpred_bimod.ras_rate.PP                     0.9875 |       0.9875 |       0.9875 |xxxxxxxxxxxxx |xxxxxxxxxxxxx |xxxxxxxxxxxxx |xxxxxxxxxxxxx |       0.9886 |       0.9886 |       0.9886 |xxxxxxxxxxxxx |xxxxxxxxxxxxx |xxxxxxxxxxxxx |xxxxxxxxxxxxx |       0.9904 |       0.9904 |       0.9904 |xxxxxxxxxxxxx |xxxxxxxxxxxxx |xxxxxxxxxxxxx |xxxxxxxxxxxxx |       0.9926 |       0.9926 |       0.9926 |xxxxxxxxxxxxx |xxxxxxxxxxxxx |xxxxxxxxxxxxx |xxxxxxxxxxxxx |       0.9950 |       0.9950 |       0.9950 |xxxxxxxxxxxxx |xxxxxxxxxxxxx |xxxxxxxxxxxxx |xxxxxxxxxxxxx |       0.9970 |       0.9970 |       0.9970 |xxxxxxxxxxxxx |xxxxxxxxxxxxx |xxxxxxxxxxxxx |xxxxxxxxxxxxx |       0.9983 |       0.9983 |       0.9983 |xxxxxxxxxxxxx |xxxxxxxxxxxxx |xxxxxxxxxxxxx |xxxxxxxxxxxxx |       1.0000 |       1.0000 |       1.0000 |xxxxxxxxxxxxx |xxxxxxxxxxxxx |xxxxxxxxxxxxx |xxxxxxxxxxxxx |       1.0000 |       1.0000 |       1.0000 |xxxxxxxxxxxxx |xxxxxxxxxxxxx |xxxxxxxxxxxxx |xxxxxxxxxxxxx |       1.0000 |       1.0000 |       1.0000 |xxxxxxxxxxxxx |xxxxxxxxxxxxx |xxxxxxxxxxxxx |xxxxxxxxxxxxx |       1.0000 |       1.0000 |       1.0000 |
bpred_2lev.lookups                   xxxxxxxxxxxxx |xxxxxxxxxxxxx |xxxxxxxxxxxxx |       112990 |       112990 |       112990 |       112990 |xxxxxxxxxxxxx |xxxxxxxxxxxxx |xxxxxxxxxxxxx |       235679 |       235679 |       235679 |       235679 |xxxxxxxxxxxxx |xxxxxxxxxxxxx |xxxxxxxxxxxxx |       514872 |       514872 |       514872 |       514872 |xxxxxxxxxxxxx |xxxxxxxxxxxxx |xxxxxxxxxxxxx |      1072421 |      1072421 |      1072421 |      1072421 |xxxxxxxxxxxxx |xxxxxxxxxxxxx |xxxxxxxxxxxxx |      2319230 |      2319230 |      2319230 |      2319230 |xxxxxxxxxxxxx |xxxxxxxxxxxxx |xxxxxxxxxxxxx |      4812468 |      4812468 |      4812468 |      4812468 |xxxxxxxxxxxxx |xxxxxxxxxxxxx |xxxxxxxxxxxxx |     10323676 |     10323676 |     10323676 |     10323676 |xxxxxxxxxxxxx |xxxxxxxxxxxxx |xxxxxxxxxxxxx |     21939872 |     21939872 |     21939872 |     21939872 |xxxxxxxxxxxxx |xxxxxxxxxxxxx |xxxxxxxxxxxxx |     46688129 |     46688129 |     46688129 |     46688129 |xxxxxxxxxxxxx |xxxxxxxxxxxxx |xxxxxxxxxxxxx |     96153468 |     96153468 |     96153468 |     96153468 |xxxxxxxxxxxxx |xxxxxxxxxxxxx |xxxxxxxxxxxxx |    203543148 |    203543148 |    203543148 |    203543148 |
[...]
bpred_2lev.retstack_pops             xxxxxxxxxxxxx |xxxxxxxxxxxxx |xxxxxxxxxxxxx |           80 |           80 |           80 |           80 |xxxxxxxxxxxxx |xxxxxxxxxxxxx |xxxxxxxxxxxxx |           88 |           88 |           88 |           88 |xxxxxxxxxxxxx |xxxxxxxxxxxxx |xxxxxxxxxxxxx |          104 |          104 |          104 |          104 |xxxxxxxxxxxxx |xxxxxxxxxxxxx |xxxxxxxxxxxxx |          136 |          136 |          136 |          136 |xxxxxxxxxxxxx |xxxxxxxxxxxxx |xxxxxxxxxxxxx |          200 |          200 |          200 |          200 |xxxxxxxxxxxxx |xxxxxxxxxxxxx |xxxxxxxxxxxxx |          328 |          328 |          328 |          328 |xxxxxxxxxxxxx |xxxxxxxxxxxxx |xxxxxxxxxxxxx |          584 |          584 |          584 |          584 |xxxxxxxxxxxxx |xxxxxxxxxxxxx |xxxxxxxxxxxxx |         1100 |         1100 |         1100 |         1100 |xxxxxxxxxxxxx |xxxxxxxxxxxxx |xxxxxxxxxxxxx |         2126 |         2126 |         2126 |         2126 |xxxxxxxxxxxxx |xxxxxxxxxxxxx |xxxxxxxxxxxxx |         4178 |         4178 |         4178 |         4178 |xxxxxxxxxxxxx |xxxxxxxxxxxxx |xxxxxxxxxxxxx |         8282 |         8282 |         8282 |         8282 |
bpred_2lev.used_ras.PP               xxxxxxxxxxxxx |xxxxxxxxxxxxx |xxxxxxxxxxxxx |           80 |           80 |           80 |           80 |xxxxxxxxxxxxx |xxxxxxxxxxxxx |xxxxxxxxxxxxx |           88 |           88 |           88 |           88 |xxxxxxxxxxxxx |xxxxxxxxxxxxx |xxxxxxxxxxxxx |          104 |          104 |          104 |          104 |xxxxxxxxxxxxx |xxxxxxxxxxxxx |xxxxxxxxxxxxx |          136 |          136 |          136 |          136 |xxxxxxxxxxxxx |xxxxxxxxxxxxx |xxxxxxxxxxxxx |          200 |          200 |          200 |          200 |xxxxxxxxxxxxx |xxxxxxxxxxxxx |xxxxxxxxxxxxx |          328 |          328 |          328 |          328 |xxxxxxxxxxxxx |xxxxxxxxxxxxx |xxxxxxxxxxxxx |          584 |          584 |          584 |          584 |xxxxxxxxxxxxx |xxxxxxxxxxxxx |xxxxxxxxxxxxx |         1100 |         1100 |         1100 |         1100 |xxxxxxxxxxxxx |xxxxxxxxxxxxx |xxxxxxxxxxxxx |         2126 |         2126 |         2126 |         2126 |xxxxxxxxxxxxx |xxxxxxxxxxxxx |xxxxxxxxxxxxx |         4178 |         4178 |         4178 |         4178 |xxxxxxxxxxxxx |xxxxxxxxxxxxx |xxxxxxxxxxxxx |         8282 |         8282 |         8282 |         8282 |
bpred_2lev.ras_hits.PP               xxxxxxxxxxxxx |xxxxxxxxxxxxx |xxxxxxxxxxxxx |           79 |           79 |           79 |           79 |xxxxxxxxxxxxx |xxxxxxxxxxxxx |xxxxxxxxxxxxx |           87 |           87 |           87 |           87 |xxxxxxxxxxxxx |xxxxxxxxxxxxx |xxxxxxxxxxxxx |          103 |          103 |          103 |          103 |xxxxxxxxxxxxx |xxxxxxxxxxxxx |xxxxxxxxxxxxx |          135 |          135 |          135 |          135 |xxxxxxxxxxxxx |xxxxxxxxxxxxx |xxxxxxxxxxxxx |          199 |          199 |          199 |          199 |xxxxxxxxxxxxx |xxxxxxxxxxxxx |xxxxxxxxxxxxx |          327 |          327 |          327 |          327 |xxxxxxxxxxxxx |xxxxxxxxxxxxx |xxxxxxxxxxxxx |          583 |          583 |          583 |          583 |xxxxxxxxxxxxx |xxxxxxxxxxxxx |xxxxxxxxxxxxx |         1100 |         1100 |         1100 |         1100 |xxxxxxxxxxxxx |xxxxxxxxxxxxx |xxxxxxxxxxxxx |         2126 |         2126 |         2126 |         2126 |xxxxxxxxxxxxx |xxxxxxxxxxxxx |xxxxxxxxxxxxx |         4178 |         4178 |         4178 |         4178 |xxxxxxxxxxxxx |xxxxxxxxxxxxx |xxxxxxxxxxxxx |         8282 |         8282 |         8282 |         8282 |
bpred_2lev.ras_rate.PP               xxxxxxxxxxxxx |xxxxxxxxxxxxx |xxxxxxxxxxxxx |       0.9875 |       0.9875 |       0.9875 |       0.9875 |xxxxxxxxxxxxx |xxxxxxxxxxxxx |xxxxxxxxxxxxx |       0.9886 |       0.9886 |       0.9886 |       0.9886 |xxxxxxxxxxxxx |xxxxxxxxxxxxx |xxxxxxxxxxxxx |       0.9904 |       0.9904 |       0.9904 |       0.9904 |xxxxxxxxxxxxx |xxxxxxxxxxxxx |xxxxxxxxxxxxx |       0.9926 |       0.9926 |       0.9926 |       0.9926 |xxxxxxxxxxxxx |xxxxxxxxxxxxx |xxxxxxxxxxxxx |       0.9950 |       0.9950 |       0.9950 |       0.9950 |xxxxxxxxxxxxx |xxxxxxxxxxxxx |xxxxxxxxxxxxx |       0.9970 |       0.9970 |       0.9970 |       0.9970 |xxxxxxxxxxxxx |xxxxxxxxxxxxx |xxxxxxxxxxxxx |       0.9983 |       0.9983 |       0.9983 |       0.9983 |xxxxxxxxxxxxx |xxxxxxxxxxxxx |xxxxxxxxxxxxx |       1.0000 |       1.0000 |       1.0000 |       1.0000 |xxxxxxxxxxxxx |xxxxxxxxxxxxx |xxxxxxxxxxxxx |       1.0000 |       1.0000 |       1.0000 |       1.0000 |xxxxxxxxxxxxx |xxxxxxxxxxxxx |xxxxxxxxxxxxx |       1.0000 |       1.0000 |       1.0000 |       1.0000 |xxxxxxxxxxxxx |xxxxxxxxxxxxx |xxxxxxxxxxxxx |       1.0000 |       1.0000 |       1.0000 |       1.0000 |

Command list: 
	sslittle-na-sstrix-gcc -Wall -O3 -funroll-loops -finline-functions  -DRANDOM_SIZE=4096 -DOFFSET=3 -DSORT=double_aligned_mergesort sorts/double_aligned_mergesort1344082349.c simpleMain.c -o double_aligned_mergesort2038783635
	sim-cache -cache:dl1 dl1:256:32:1:l -cache:dl2 dl2:131072:32:1:l -cache:il1 il1:256:32:1:l -cache:il2 dl2 double_aligned_mergesort2038783635
	sim-cache -cache:dl1 dl1:256:32:1:l -cache:dl2 dl2:65536:32:1:l -cache:il1 il1:256:32:1:l -cache:il2 dl2 double_aligned_mergesort2038783635
	sim-cache -cache:dl1 dl1:1:32:256:l -cache:dl2 dl2:1:32:131072:l -cache:il1 il1:1:32:256:l -cache:il2 dl2 double_aligned_mergesort2038783635
	sim-cache -cache:dl1 dl1:1:32:256:l -cache:dl2 dl2:1:32:65536:l -cache:il1 il1:1:32:256:l -cache:il2 dl2 double_aligned_mergesort2038783635
	sim-bpred -bpred bimod -bpred:bimod 512 double_aligned_mergesort2038783635
	sim-bpred -bpred bimod -bpred:bimod 1024 double_aligned_mergesort2038783635
	sim-bpred -bpred bimod -bpred:bimod 2048 double_aligned_mergesort2038783635
	sim-bpred -bpred 2lev -bpred:2lev 1 512 10 1 double_aligned_mergesort2038783635
	sim-bpred -bpred 2lev -bpred:2lev 1 1024 10 1 double_aligned_mergesort2038783635
	sim-bpred -bpred 2lev -bpred:2lev 1 2048 10 1 double_aligned_mergesort2038783635
	sim-bpred -bpred 2lev -bpred:2lev 1 4096 10 1 double_aligned_mergesort2038783635
	sslittle-na-sstrix-gcc -Wall -O3 -funroll-loops -finline-functions  -DRANDOM_SIZE=8192 -DOFFSET=3 -DSORT=double_aligned_mergesort sorts/double_aligned_mergesort1344082349.c simpleMain.c -o double_aligned_mergesort2038783635
	sim-cache -cache:dl1 dl1:256:32:1:l -cache:dl2 dl2:131072:32:1:l -cache:il1 il1:256:32:1:l -cache:il2 dl2 double_aligned_mergesort2038783635
	sim-cache -cache:dl1 dl1:256:32:1:l -cache:dl2 dl2:65536:32:1:l -cache:il1 il1:256:32:1:l -cache:il2 dl2 double_aligned_mergesort2038783635
	sim-cache -cache:dl1 dl1:1:32:256:l -cache:dl2 dl2:1:32:131072:l -cache:il1 il1:1:32:256:l -cache:il2 dl2 double_aligned_mergesort2038783635
	sim-cache -cache:dl1 dl1:1:32:256:l -cache:dl2 dl2:1:32:65536:l -cache:il1 il1:1:32:256:l -cache:il2 dl2 double_aligned_mergesort2038783635
	sim-bpred -bpred bimod -bpred:bimod 512 double_aligned_mergesort2038783635
	sim-bpred -bpred bimod -bpred:bimod 1024 double_aligned_mergesort2038783635
	sim-bpred -bpred bimod -bpred:bimod 2048 double_aligned_mergesort2038783635
	sim-bpred -bpred 2lev -bpred:2lev 1 512 10 1 double_aligned_mergesort2038783635
	sim-bpred -bpred 2lev -bpred:2lev 1 1024 10 1 double_aligned_mergesort2038783635
	sim-bpred -bpred 2lev -bpred:2lev 1 2048 10 1 double_aligned_mergesort2038783635
	sim-bpred -bpred 2lev -bpred:2lev 1 4096 10 1 double_aligned_mergesort2038783635
	sslittle-na-sstrix-gcc -Wall -O3 -funroll-loops -finline-functions  -DRANDOM_SIZE=16384 -DOFFSET=3 -DSORT=double_aligned_mergesort sorts/double_aligned_mergesort1344082349.c simpleMain.c -o double_aligned_mergesort2038783635
	sim-cache -cache:dl1 dl1:256:32:1:l -cache:dl2 dl2:131072:32:1:l -cache:il1 il1:256:32:1:l -cache:il2 dl2 double_aligned_mergesort2038783635
	sim-cache -cache:dl1 dl1:256:32:1:l -cache:dl2 dl2:65536:32:1:l -cache:il1 il1:256:32:1:l -cache:il2 dl2 double_aligned_mergesort2038783635
	sim-cache -cache:dl1 dl1:1:32:256:l -cache:dl2 dl2:1:32:131072:l -cache:il1 il1:1:32:256:l -cache:il2 dl2 double_aligned_mergesort2038783635
	sim-cache -cache:dl1 dl1:1:32:256:l -cache:dl2 dl2:1:32:65536:l -cache:il1 il1:1:32:256:l -cache:il2 dl2 double_aligned_mergesort2038783635
	sim-bpred -bpred bimod -bpred:bimod 512 double_aligned_mergesort2038783635
	sim-bpred -bpred bimod -bpred:bimod 1024 double_aligned_mergesort2038783635
	sim-bpred -bpred bimod -bpred:bimod 2048 double_aligned_mergesort2038783635
	sim-bpred -bpred 2lev -bpred:2lev 1 512 10 1 double_aligned_mergesort2038783635
	sim-bpred -bpred 2lev -bpred:2lev 1 1024 10 1 double_aligned_mergesort2038783635
	sim-bpred -bpred 2lev -bpred:2lev 1 2048 10 1 double_aligned_mergesort2038783635
	sim-bpred -bpred 2lev -bpred:2lev 1 4096 10 1 double_aligned_mergesort2038783635
	sslittle-na-sstrix-gcc -Wall -O3 -funroll-loops -finline-functions  -DRANDOM_SIZE=32768 -DOFFSET=3 -DSORT=double_aligned_mergesort sorts/double_aligned_mergesort1344082349.c simpleMain.c -o double_aligned_mergesort2038783635
	sim-cache -cache:dl1 dl1:256:32:1:l -cache:dl2 dl2:131072:32:1:l -cache:il1 il1:256:32:1:l -cache:il2 dl2 double_aligned_mergesort2038783635
	sim-cache -cache:dl1 dl1:256:32:1:l -cache:dl2 dl2:65536:32:1:l -cache:il1 il1:256:32:1:l -cache:il2 dl2 double_aligned_mergesort2038783635
	sim-cache -cache:dl1 dl1:1:32:256:l -cache:dl2 dl2:1:32:131072:l -cache:il1 il1:1:32:256:l -cache:il2 dl2 double_aligned_mergesort2038783635
	sim-cache -cache:dl1 dl1:1:32:256:l -cache:dl2 dl2:1:32:65536:l -cache:il1 il1:1:32:256:l -cache:il2 dl2 double_aligned_mergesort2038783635
	sim-bpred -bpred bimod -bpred:bimod 512 double_aligned_mergesort2038783635
	sim-bpred -bpred bimod -bpred:bimod 1024 double_aligned_mergesort2038783635
	sim-bpred -bpred bimod -bpred:bimod 2048 double_aligned_mergesort2038783635
	sim-bpred -bpred 2lev -bpred:2lev 1 512 10 1 double_aligned_mergesort2038783635
	sim-bpred -bpred 2lev -bpred:2lev 1 1024 10 1 double_aligned_mergesort2038783635
	sim-bpred -bpred 2lev -bpred:2lev 1 2048 10 1 double_aligned_mergesort2038783635
	sim-bpred -bpred 2lev -bpred:2lev 1 4096 10 1 double_aligned_mergesort2038783635
	sslittle-na-sstrix-gcc -Wall -O3 -funroll-loops -finline-functions  -DRANDOM_SIZE=65536 -DOFFSET=3 -DSORT=double_aligned_mergesort sorts/double_aligned_mergesort1344082349.c simpleMain.c -o double_aligned_mergesort2038783635
	sim-cache -cache:dl1 dl1:256:32:1:l -cache:dl2 dl2:131072:32:1:l -cache:il1 il1:256:32:1:l -cache:il2 dl2 double_aligned_mergesort2038783635
	sim-cache -cache:dl1 dl1:256:32:1:l -cache:dl2 dl2:65536:32:1:l -cache:il1 il1:256:32:1:l -cache:il2 dl2 double_aligned_mergesort2038783635
	sim-cache -cache:dl1 dl1:1:32:256:l -cache:dl2 dl2:1:32:131072:l -cache:il1 il1:1:32:256:l -cache:il2 dl2 double_aligned_mergesort2038783635
	sim-cache -cache:dl1 dl1:1:32:256:l -cache:dl2 dl2:1:32:65536:l -cache:il1 il1:1:32:256:l -cache:il2 dl2 double_aligned_mergesort2038783635
	sim-bpred -bpred bimod -bpred:bimod 512 double_aligned_mergesort2038783635
	sim-bpred -bpred bimod -bpred:bimod 1024 double_aligned_mergesort2038783635
	sim-bpred -bpred bimod -bpred:bimod 2048 double_aligned_mergesort2038783635
	sim-bpred -bpred 2lev -bpred:2lev 1 512 10 1 double_aligned_mergesort2038783635
	sim-bpred -bpred 2lev -bpred:2lev 1 1024 10 1 double_aligned_mergesort2038783635
	sim-bpred -bpred 2lev -bpred:2lev 1 2048 10 1 double_aligned_mergesort2038783635
	sim-bpred -bpred 2lev -bpred:2lev 1 4096 10 1 double_aligned_mergesort2038783635
	sslittle-na-sstrix-gcc -Wall -O3 -funroll-loops -finline-functions  -DRANDOM_SIZE=131072 -DOFFSET=3 -DSORT=double_aligned_mergesort sorts/double_aligned_mergesort1344082349.c simpleMain.c -o double_aligned_mergesort2038783635
	sim-cache -cache:dl1 dl1:256:32:1:l -cache:dl2 dl2:131072:32:1:l -cache:il1 il1:256:32:1:l -cache:il2 dl2 double_aligned_mergesort2038783635
	sim-cache -cache:dl1 dl1:256:32:1:l -cache:dl2 dl2:65536:32:1:l -cache:il1 il1:256:32:1:l -cache:il2 dl2 double_aligned_mergesort2038783635
	sim-cache -cache:dl1 dl1:1:32:256:l -cache:dl2 dl2:1:32:131072:l -cache:il1 il1:1:32:256:l -cache:il2 dl2 double_aligned_mergesort2038783635
	sim-cache -cache:dl1 dl1:1:32:256:l -cache:dl2 dl2:1:32:65536:l -cache:il1 il1:1:32:256:l -cache:il2 dl2 double_aligned_mergesort2038783635
	sim-bpred -bpred bimod -bpred:bimod 512 double_aligned_mergesort2038783635
	sim-bpred -bpred bimod -bpred:bimod 1024 double_aligned_mergesort2038783635
	sim-bpred -bpred bimod -bpred:bimod 2048 double_aligned_mergesort2038783635
	sim-bpred -bpred 2lev -bpred:2lev 1 512 10 1 double_aligned_mergesort2038783635
	sim-bpred -bpred 2lev -bpred:2lev 1 1024 10 1 double_aligned_mergesort2038783635
	sim-bpred -bpred 2lev -bpred:2lev 1 2048 10 1 double_aligned_mergesort2038783635
	sim-bpred -bpred 2lev -bpred:2lev 1 4096 10 1 double_aligned_mergesort2038783635
	sslittle-na-sstrix-gcc -Wall -O3 -funroll-loops -finline-functions  -DRANDOM_SIZE=262144 -DOFFSET=3 -DSORT=double_aligned_mergesort sorts/double_aligned_mergesort1344082349.c simpleMain.c -o double_aligned_mergesort2038783635
	sim-cache -cache:dl1 dl1:256:32:1:l -cache:dl2 dl2:131072:32:1:l -cache:il1 il1:256:32:1:l -cache:il2 dl2 double_aligned_mergesort2038783635
	sim-cache -cache:dl1 dl1:256:32:1:l -cache:dl2 dl2:65536:32:1:l -cache:il1 il1:256:32:1:l -cache:il2 dl2 double_aligned_mergesort2038783635
	sim-cache -cache:dl1 dl1:1:32:256:l -cache:dl2 dl2:1:32:131072:l -cache:il1 il1:1:32:256:l -cache:il2 dl2 double_aligned_mergesort2038783635
	sim-cache -cache:dl1 dl1:1:32:256:l -cache:dl2 dl2:1:32:65536:l -cache:il1 il1:1:32:256:l -cache:il2 dl2 double_aligned_mergesort2038783635
	sim-bpred -bpred bimod -bpred:bimod 512 double_aligned_mergesort2038783635
	sim-bpred -bpred bimod -bpred:bimod 1024 double_aligned_mergesort2038783635
	sim-bpred -bpred bimod -bpred:bimod 2048 double_aligned_mergesort2038783635
	sim-bpred -bpred 2lev -bpred:2lev 1 512 10 1 double_aligned_mergesort2038783635
	sim-bpred -bpred 2lev -bpred:2lev 1 1024 10 1 double_aligned_mergesort2038783635
	sim-bpred -bpred 2lev -bpred:2lev 1 2048 10 1 double_aligned_mergesort2038783635
	sim-bpred -bpred 2lev -bpred:2lev 1 4096 10 1 double_aligned_mergesort2038783635
	sslittle-na-sstrix-gcc -Wall -O3 -funroll-loops -finline-functions  -DRANDOM_SIZE=524288 -DOFFSET=3 -DSORT=double_aligned_mergesort sorts/double_aligned_mergesort1344082349.c simpleMain.c -o double_aligned_mergesort2038783635
	sim-cache -cache:dl1 dl1:256:32:1:l -cache:dl2 dl2:131072:32:1:l -cache:il1 il1:256:32:1:l -cache:il2 dl2 double_aligned_mergesort2038783635
	sim-cache -cache:dl1 dl1:256:32:1:l -cache:dl2 dl2:65536:32:1:l -cache:il1 il1:256:32:1:l -cache:il2 dl2 double_aligned_mergesort2038783635
	sim-cache -cache:dl1 dl1:1:32:256:l -cache:dl2 dl2:1:32:131072:l -cache:il1 il1:1:32:256:l -cache:il2 dl2 double_aligned_mergesort2038783635
	sim-cache -cache:dl1 dl1:1:32:256:l -cache:dl2 dl2:1:32:65536:l -cache:il1 il1:1:32:256:l -cache:il2 dl2 double_aligned_mergesort2038783635
	sim-bpred -bpred bimod -bpred:bimod 512 double_aligned_mergesort2038783635
	sim-bpred -bpred bimod -bpred:bimod 1024 double_aligned_mergesort2038783635
	sim-bpred -bpred bimod -bpred:bimod 2048 double_aligned_mergesort2038783635
	sim-bpred -bpred 2lev -bpred:2lev 1 512 10 1 double_aligned_mergesort2038783635
	sim-bpred -bpred 2lev -bpred:2lev 1 1024 10 1 double_aligned_mergesort2038783635
	sim-bpred -bpred 2lev -bpred:2lev 1 2048 10 1 double_aligned_mergesort2038783635
	sim-bpred -bpred 2lev -bpred:2lev 1 4096 10 1 double_aligned_mergesort2038783635
	sslittle-na-sstrix-gcc -Wall -O3 -funroll-loops -finline-functions  -DRANDOM_SIZE=1048576 -DOFFSET=3 -DSORT=double_aligned_mergesort sorts/double_aligned_mergesort1344082349.c simpleMain.c -o double_aligned_mergesort2038783635
	sim-cache -cache:dl1 dl1:256:32:1:l -cache:dl2 dl2:131072:32:1:l -cache:il1 il1:256:32:1:l -cache:il2 dl2 double_aligned_mergesort2038783635
	sim-cache -cache:dl1 dl1:256:32:1:l -cache:dl2 dl2:65536:32:1:l -cache:il1 il1:256:32:1:l -cache:il2 dl2 double_aligned_mergesort2038783635
	sim-cache -cache:dl1 dl1:1:32:256:l -cache:dl2 dl2:1:32:131072:l -cache:il1 il1:1:32:256:l -cache:il2 dl2 double_aligned_mergesort2038783635
	sim-cache -cache:dl1 dl1:1:32:256:l -cache:dl2 dl2:1:32:65536:l -cache:il1 il1:1:32:256:l -cache:il2 dl2 double_aligned_mergesort2038783635
	sim-bpred -bpred bimod -bpred:bimod 512 double_aligned_mergesort2038783635
	sim-bpred -bpred bimod -bpred:bimod 1024 double_aligned_mergesort2038783635
	sim-bpred -bpred bimod -bpred:bimod 2048 double_aligned_mergesort2038783635
	sim-bpred -bpred 2lev -bpred:2lev 1 512 10 1 double_aligned_mergesort2038783635
	sim-bpred -bpred 2lev -bpred:2lev 1 1024 10 1 double_aligned_mergesort2038783635
	sim-bpred -bpred 2lev -bpred:2lev 1 2048 10 1 double_aligned_mergesort2038783635
	sim-bpred -bpred 2lev -bpred:2lev 1 4096 10 1 double_aligned_mergesort2038783635
	sslittle-na-sstrix-gcc -Wall -O3 -funroll-loops -finline-functions  -DRANDOM_SIZE=2097152 -DOFFSET=3 -DSORT=double_aligned_mergesort sorts/double_aligned_mergesort1344082349.c simpleMain.c -o double_aligned_mergesort2038783635
	sim-cache -cache:dl1 dl1:256:32:1:l -cache:dl2 dl2:131072:32:1:l -cache:il1 il1:256:32:1:l -cache:il2 dl2 double_aligned_mergesort2038783635
	sim-cache -cache:dl1 dl1:256:32:1:l -cache:dl2 dl2:65536:32:1:l -cache:il1 il1:256:32:1:l -cache:il2 dl2 double_aligned_mergesort2038783635
	sim-cache -cache:dl1 dl1:1:32:256:l -cache:dl2 dl2:1:32:131072:l -cache:il1 il1:1:32:256:l -cache:il2 dl2 double_aligned_mergesort2038783635
	sim-cache -cache:dl1 dl1:1:32:256:l -cache:dl2 dl2:1:32:65536:l -cache:il1 il1:1:32:256:l -cache:il2 dl2 double_aligned_mergesort2038783635
	sim-bpred -bpred bimod -bpred:bimod 512 double_aligned_mergesort2038783635
	sim-bpred -bpred bimod -bpred:bimod 1024 double_aligned_mergesort2038783635
	sim-bpred -bpred bimod -bpred:bimod 2048 double_aligned_mergesort2038783635
	sim-bpred -bpred 2lev -bpred:2lev 1 512 10 1 double_aligned_mergesort2038783635
	sim-bpred -bpred 2lev -bpred:2lev 1 1024 10 1 double_aligned_mergesort2038783635
	sim-bpred -bpred 2lev -bpred:2lev 1 2048 10 1 double_aligned_mergesort2038783635
	sim-bpred -bpred 2lev -bpred:2lev 1 4096 10 1 double_aligned_mergesort2038783635
	sslittle-na-sstrix-gcc -Wall -O3 -funroll-loops -finline-functions  -DRANDOM_SIZE=4194304 -DOFFSET=3 -DSORT=double_aligned_mergesort sorts/double_aligned_mergesort1344082349.c simpleMain.c -o double_aligned_mergesort2038783635
	sim-cache -cache:dl1 dl1:256:32:1:l -cache:dl2 dl2:131072:32:1:l -cache:il1 il1:256:32:1:l -cache:il2 dl2 double_aligned_mergesort2038783635
	sim-cache -cache:dl1 dl1:256:32:1:l -cache:dl2 dl2:65536:32:1:l -cache:il1 il1:256:32:1:l -cache:il2 dl2 double_aligned_mergesort2038783635
	sim-cache -cache:dl1 dl1:1:32:256:l -cache:dl2 dl2:1:32:131072:l -cache:il1 il1:1:32:256:l -cache:il2 dl2 double_aligned_mergesort2038783635
	sim-cache -cache:dl1 dl1:1:32:256:l -cache:dl2 dl2:1:32:65536:l -cache:il1 il1:1:32:256:l -cache:il2 dl2 double_aligned_mergesort2038783635
	sim-bpred -bpred bimod -bpred:bimod 512 double_aligned_mergesort2038783635
	sim-bpred -bpred bimod -bpred:bimod 1024 double_aligned_mergesort2038783635
	sim-bpred -bpred bimod -bpred:bimod 2048 double_aligned_mergesort2038783635
	sim-bpred -bpred 2lev -bpred:2lev 1 512 10 1 double_aligned_mergesort2038783635
	sim-bpred -bpred 2lev -bpred:2lev 1 1024 10 1 double_aligned_mergesort2038783635
	sim-bpred -bpred 2lev -bpred:2lev 1 2048 10 1 double_aligned_mergesort2038783635
	sim-bpred -bpred 2lev -bpred:2lev 1 4096 10 1 double_aligned_mergesort2038783635
