Tue Jun 14 13:03:48 2005
Run as: "./simple -c random.org0 -o 0 double_aligned_tiled_mergesort"
-------------------------------------------------------------------------------------------------
sim-cache                                     4096 |         4096 |         4096 |         4096 |         8192 |         8192 |         8192 |         8192 |        16384 |        16384 |        16384 |        16384 |        32768 |        32768 |        32768 |        32768 |        65536 |        65536 |        65536 |        65536 |       131072 |       131072 |       131072 |       131072 |       262144 |       262144 |       262144 |       262144 |       524288 |       524288 |       524288 |       524288 |      1048576 |      1048576 |      1048576 |      1048576 |      2097152 |      2097152 |      2097152 |      2097152 |      4194304 |      4194304 |      4194304 |      4194304 |
-cache:dl1 dl1:256:32:1:l -cache:dl2 dl2:131072:32:1:l -cache:il1 il1:256:32:1:l -cache:il2 dl2
-cache:dl1 dl1:256:32:1:l -cache:dl2 dl2:65536:32:1:l -cache:il1 il1:256:32:1:l -cache:il2 dl2
-cache:dl1 dl1:1:32:256:l -cache:dl2 dl2:1:32:131072:l -cache:il1 il1:1:32:256:l -cache:il2 dl2
-cache:dl1 dl1:1:32:256:l -cache:dl2 dl2:1:32:65536:l -cache:il1 il1:1:32:256:l -cache:il2 dl2
-------------------------------------------------------------------------------------------------
sim_num_insn                                860529 |       860529 |       860529 |       860529 |      1751741 |      1751741 |      1751741 |      1751741 |      3960457 |      3960457 |      3960457 |      3960457 |      8061892 |      8061892 |      8061892 |      8061892 |     17986992 |     17986992 |     17986992 |     17986992 |     36561479 |     36561479 |     36561479 |     36561479 |     80560580 |     80560580 |     80560580 |     80560580 |    168398637 |    168398637 |    168398637 |    168398637 |    366524535 |    366524535 |    366524535 |    366524535 |    742950559 |    742950559 |    742950559 |    742950559 |   1604766082 |   1604766082 |   1604766082 |   1604766082 |
sim_num_refs                                229063 |       229063 |       229063 |       229063 |       472153 |       472153 |       472153 |       472153 |      1051778 |      1051778 |      1051778 |      1051778 |      2170581 |      2170581 |      2170581 |      2170581 |      4785786 |      4785786 |      4785786 |      4785786 |      9852783 |      9852783 |      9852783 |      9852783 |     21486162 |     21486162 |     21486162 |     21486162 |     45701281 |     45701281 |     45701281 |     45701281 |     98519681 |     98519681 |     98519681 |     98519681 |    201681323 |    201681323 |    201681323 |    201681323 |    431851971 |    431851971 |    431851971 |    431851971 |
sim_elapsed_time                                 1 |            1 |           10 |            5 |            1 |            1 |           16 |            8 |            1 |            1 |           27 |           14 |            2 |            2 |           48 |           25 |            5 |            5 |           89 |           44 |           10 |           10 |          163 |           77 |           24 |           22 |          281 |          108 |           45 |           45 |          389 |          134 |           97 |           97 |          447 |          191 |          198 |          197 |          557 |          303 |          425 |          424 |          812 |          560 |
sim_inst_rate                          860529.0000 |  860529.0000 |   86052.9000 |  172105.8000 | 1751741.0000 | 1751741.0000 |  109483.8125 |  218967.6250 | 3960457.0000 | 3960457.0000 |  146683.5926 |  282889.7857 | 4030946.0000 | 4030946.0000 |  167956.0833 |  322475.6800 | 3597398.4000 | 3597398.4000 |  202101.0337 |  408795.2727 | 3656147.9000 | 3656147.9000 |  224303.5521 |  474824.4026 | 3356690.8333 | 3661844.5455 |  286692.4555 |  745931.2963 | 3742191.9333 | 3742191.9333 |  432901.3805 | 1256706.2463 | 3778603.4536 | 3778603.4536 |  819965.4027 | 1918976.6230 | 3752275.5505 | 3771322.6345 | 1333843.0144 | 2451982.0429 | 3775920.1929 | 3784825.6651 | 1976312.9089 | 2865653.7179 |
il1.accesses                                860529 |       860529 |       860529 |       860529 |      1751741 |      1751741 |      1751741 |      1751741 |      3960457 |      3960457 |      3960457 |      3960457 |      8061892 |      8061892 |      8061892 |      8061892 |     17986992 |     17986992 |     17986992 |     17986992 |     36561479 |     36561479 |     36561479 |     36561479 |     80560580 |     80560580 |     80560580 |     80560580 |    168398637 |    168398637 |    168398637 |    168398637 |    366524535 |    366524535 |    366524535 |    366524535 |    742950559 |    742950559 |    742950559 |    742950559 |   1604766082 |   1604766082 |   1604766082 |   1604766082 |
il1.hits                                    859852 |       859852 |       859955 |       859955 |      1751049 |      1751049 |      1751146 |      1751146 |      3959783 |      3959783 |      3959878 |      3959878 |      8061196 |      8061196 |      8061293 |      8061293 |     17986314 |     17986314 |     17986415 |     17986415 |     36560783 |     36560783 |     36560880 |     36560880 |     80559904 |     80559904 |     80560005 |     80560005 |    168396350 |    168396350 |    168397962 |    168397962 |    366520723 |    366520723 |    366523878 |    366523878 |    742943628 |    742943628 |    742949884 |    742949884 |   1604753006 |   1604753006 |   1604765425 |   1604765425 |
il1.misses                                     677 |          677 |          574 |          574 |          692 |          692 |          595 |          595 |          674 |          674 |          579 |          579 |          696 |          696 |          599 |          599 |          678 |          678 |          577 |          577 |          696 |          696 |          599 |          599 |          676 |          676 |          575 |          575 |         2287 |         2287 |          675 |          675 |         3812 |         3812 |          657 |          657 |         6931 |         6931 |          675 |          675 |        13076 |        13076 |          657 |          657 |
il1.replacements                               437 |          437 |          318 |          318 |          450 |          450 |          339 |          339 |          431 |          431 |          323 |          323 |          454 |          454 |          343 |          343 |          437 |          437 |          321 |          321 |          454 |          454 |          343 |          343 |          447 |          447 |          319 |          319 |         2061 |         2061 |          419 |          419 |         3587 |         3587 |          401 |          401 |         6705 |         6705 |          419 |          419 |        12851 |        12851 |          401 |          401 |
il1.writebacks                                   0 |            0 |            0 |            0 |            0 |            0 |            0 |            0 |            0 |            0 |            0 |            0 |            0 |            0 |            0 |            0 |            0 |            0 |            0 |            0 |            0 |            0 |            0 |            0 |            0 |            0 |            0 |            0 |            0 |            0 |            0 |            0 |            0 |            0 |            0 |            0 |            0 |            0 |            0 |            0 |            0 |            0 |            0 |            0 |
il1.invalidations                                0 |            0 |            0 |            0 |            0 |            0 |            0 |            0 |            0 |            0 |            0 |            0 |            0 |            0 |            0 |            0 |            0 |            0 |            0 |            0 |            0 |            0 |            0 |            0 |            0 |            0 |            0 |            0 |            0 |            0 |            0 |            0 |            0 |            0 |            0 |            0 |            0 |            0 |            0 |            0 |            0 |            0 |            0 |            0 |
il1.miss_rate                               0.0008 |       0.0008 |       0.0007 |       0.0007 |       0.0004 |       0.0004 |       0.0003 |       0.0003 |       0.0002 |       0.0002 |       0.0001 |       0.0001 |       0.0001 |       0.0001 |       0.0001 |       0.0001 |       0.0000 |       0.0000 |       0.0000 |       0.0000 |       0.0000 |       0.0000 |       0.0000 |       0.0000 |       0.0000 |       0.0000 |       0.0000 |       0.0000 |       0.0000 |       0.0000 |       0.0000 |       0.0000 |       0.0000 |       0.0000 |       0.0000 |       0.0000 |       0.0000 |       0.0000 |       0.0000 |       0.0000 |       0.0000 |       0.0000 |       0.0000 |       0.0000 |
il1.repl_rate                               0.0005 |       0.0005 |       0.0004 |       0.0004 |       0.0003 |       0.0003 |       0.0002 |       0.0002 |       0.0001 |       0.0001 |       0.0001 |       0.0001 |       0.0001 |       0.0001 |       0.0000 |       0.0000 |       0.0000 |       0.0000 |       0.0000 |       0.0000 |       0.0000 |       0.0000 |       0.0000 |       0.0000 |       0.0000 |       0.0000 |       0.0000 |       0.0000 |       0.0000 |       0.0000 |       0.0000 |       0.0000 |       0.0000 |       0.0000 |       0.0000 |       0.0000 |       0.0000 |       0.0000 |       0.0000 |       0.0000 |       0.0000 |       0.0000 |       0.0000 |       0.0000 |
il1.wb_rate                                 0.0000 |       0.0000 |       0.0000 |       0.0000 |       0.0000 |       0.0000 |       0.0000 |       0.0000 |       0.0000 |       0.0000 |       0.0000 |       0.0000 |       0.0000 |       0.0000 |       0.0000 |       0.0000 |       0.0000 |       0.0000 |       0.0000 |       0.0000 |       0.0000 |       0.0000 |       0.0000 |       0.0000 |       0.0000 |       0.0000 |       0.0000 |       0.0000 |       0.0000 |       0.0000 |       0.0000 |       0.0000 |       0.0000 |       0.0000 |       0.0000 |       0.0000 |       0.0000 |       0.0000 |       0.0000 |       0.0000 |       0.0000 |       0.0000 |       0.0000 |       0.0000 |
il1.inv_rate                                0.0000 |       0.0000 |       0.0000 |       0.0000 |       0.0000 |       0.0000 |       0.0000 |       0.0000 |       0.0000 |       0.0000 |       0.0000 |       0.0000 |       0.0000 |       0.0000 |       0.0000 |       0.0000 |       0.0000 |       0.0000 |       0.0000 |       0.0000 |       0.0000 |       0.0000 |       0.0000 |       0.0000 |       0.0000 |       0.0000 |       0.0000 |       0.0000 |       0.0000 |       0.0000 |       0.0000 |       0.0000 |       0.0000 |       0.0000 |       0.0000 |       0.0000 |       0.0000 |       0.0000 |       0.0000 |       0.0000 |       0.0000 |       0.0000 |       0.0000 |       0.0000 |
dl1.accesses                                245521 |       245521 |       245521 |       245521 |       504995 |       504995 |       504995 |       504995 |      1117388 |      1117388 |      1117388 |      1117388 |      2301727 |      2301727 |      2301727 |      2301727 |      5048004 |      5048004 |      5048004 |      5048004 |     10377145 |     10377145 |     10377145 |     10377145 |     22534812 |     22534812 |     22534812 |     22534812 |     47798507 |     47798507 |     47798507 |     47798507 |    102714059 |    102714059 |    102714059 |    102714059 |    210070005 |    210070005 |    210070005 |    210070005 |    448629261 |    448629261 |    448629261 |    448629261 |
dl1.hits                                    240130 |       240130 |       238592 |       238592 |       492477 |       492477 |       490813 |       490813 |      1088236 |      1088236 |      1082858 |      1082858 |      2234856 |      2234856 |      2230004 |      2230004 |      4896331 |      4896331 |      4878403 |      4878403 |     10038173 |     10038173 |     10026018 |     10026018 |     21784182 |     21784182 |     21726813 |     21726813 |     46013353 |     46013353 |     46000881 |     46000881 |     98850379 |     98850379 |     98695731 |     98695731 |    201772044 |    201772044 |    201834158 |    201834158 |    430843740 |    430843740 |    430461019 |    430461019 |
dl1.misses                                    5391 |         5391 |         6929 |         6929 |        12518 |        12518 |        14182 |        14182 |        29152 |        29152 |        34530 |        34530 |        66871 |        66871 |        71723 |        71723 |       151673 |       151673 |       169601 |       169601 |       338972 |       338972 |       351127 |       351127 |       750630 |       750630 |       807999 |       807999 |      1785154 |      1785154 |      1797626 |      1797626 |      3863680 |      3863680 |      4018328 |      4018328 |      8297961 |      8297961 |      8235847 |      8235847 |     17785521 |     17785521 |     18168242 |     18168242 |
dl1.replacements                              5135 |         5135 |         6673 |         6673 |        12262 |        12262 |        13926 |        13926 |        28896 |        28896 |        34274 |        34274 |        66615 |        66615 |        71467 |        71467 |       151417 |       151417 |       169345 |       169345 |       338716 |       338716 |       350871 |       350871 |       750374 |       750374 |       807743 |       807743 |      1784898 |      1784898 |      1797370 |      1797370 |      3863424 |      3863424 |      4018072 |      4018072 |      8297705 |      8297705 |      8235591 |      8235591 |     17785265 |     17785265 |     18167986 |     18167986 |
dl1.writebacks                                3499 |         3499 |         5039 |         5039 |         7753 |         7753 |         9762 |         9762 |        17391 |        17391 |        23337 |        23337 |        38828 |        38828 |        46320 |        46320 |        85981 |        85981 |       108902 |       108902 |       188858 |       188858 |       217215 |       217215 |       412310 |       412310 |       500291 |       500291 |       960867 |       960867 |      1065556 |      1065556 |      2060408 |      2060408 |      2394400 |      2394400 |      4394356 |      4394356 |      4784821 |      4784821 |      9348132 |      9348132 |     10625796 |     10625796 |
dl1.invalidations                                0 |            0 |            0 |            0 |            0 |            0 |            0 |            0 |            0 |            0 |            0 |            0 |            0 |            0 |            0 |            0 |            0 |            0 |            0 |            0 |            0 |            0 |            0 |            0 |            0 |            0 |            0 |            0 |            0 |            0 |            0 |            0 |            0 |            0 |            0 |            0 |            0 |            0 |            0 |            0 |            0 |            0 |            0 |            0 |
dl1.miss_rate                               0.0220 |       0.0220 |       0.0282 |       0.0282 |       0.0248 |       0.0248 |       0.0281 |       0.0281 |       0.0261 |       0.0261 |       0.0309 |       0.0309 |       0.0291 |       0.0291 |       0.0312 |       0.0312 |       0.0300 |       0.0300 |       0.0336 |       0.0336 |       0.0327 |       0.0327 |       0.0338 |       0.0338 |       0.0333 |       0.0333 |       0.0359 |       0.0359 |       0.0373 |       0.0373 |       0.0376 |       0.0376 |       0.0376 |       0.0376 |       0.0391 |       0.0391 |       0.0395 |       0.0395 |       0.0392 |       0.0392 |       0.0396 |       0.0396 |       0.0405 |       0.0405 |
dl1.repl_rate                               0.0209 |       0.0209 |       0.0272 |       0.0272 |       0.0243 |       0.0243 |       0.0276 |       0.0276 |       0.0259 |       0.0259 |       0.0307 |       0.0307 |       0.0289 |       0.0289 |       0.0310 |       0.0310 |       0.0300 |       0.0300 |       0.0335 |       0.0335 |       0.0326 |       0.0326 |       0.0338 |       0.0338 |       0.0333 |       0.0333 |       0.0358 |       0.0358 |       0.0373 |       0.0373 |       0.0376 |       0.0376 |       0.0376 |       0.0376 |       0.0391 |       0.0391 |       0.0395 |       0.0395 |       0.0392 |       0.0392 |       0.0396 |       0.0396 |       0.0405 |       0.0405 |
dl1.wb_rate                                 0.0143 |       0.0143 |       0.0205 |       0.0205 |       0.0154 |       0.0154 |       0.0193 |       0.0193 |       0.0156 |       0.0156 |       0.0209 |       0.0209 |       0.0169 |       0.0169 |       0.0201 |       0.0201 |       0.0170 |       0.0170 |       0.0216 |       0.0216 |       0.0182 |       0.0182 |       0.0209 |       0.0209 |       0.0183 |       0.0183 |       0.0222 |       0.0222 |       0.0201 |       0.0201 |       0.0223 |       0.0223 |       0.0201 |       0.0201 |       0.0233 |       0.0233 |       0.0209 |       0.0209 |       0.0228 |       0.0228 |       0.0208 |       0.0208 |       0.0237 |       0.0237 |
dl1.inv_rate                                0.0000 |       0.0000 |       0.0000 |       0.0000 |       0.0000 |       0.0000 |       0.0000 |       0.0000 |       0.0000 |       0.0000 |       0.0000 |       0.0000 |       0.0000 |       0.0000 |       0.0000 |       0.0000 |       0.0000 |       0.0000 |       0.0000 |       0.0000 |       0.0000 |       0.0000 |       0.0000 |       0.0000 |       0.0000 |       0.0000 |       0.0000 |       0.0000 |       0.0000 |       0.0000 |       0.0000 |       0.0000 |       0.0000 |       0.0000 |       0.0000 |       0.0000 |       0.0000 |       0.0000 |       0.0000 |       0.0000 |       0.0000 |       0.0000 |       0.0000 |       0.0000 |
dl2.accesses                                  9567 |         9567 |        12542 |        12542 |        20963 |        20963 |        24539 |        24539 |        47217 |        47217 |        58446 |        58446 |       106395 |       106395 |       118642 |       118642 |       238332 |       238332 |       279080 |       279080 |       528526 |       528526 |       568941 |       568941 |      1163616 |      1163616 |      1308865 |      1308865 |      2748308 |      2748308 |      2863857 |      2863857 |      5927900 |      5927900 |      6413385 |      6413385 |     12699248 |     12699248 |     13021343 |     13021343 |     27146729 |     27146729 |     28794695 |     28794695 |
dl2.hits                                      7591 |         7591 |        10584 |        10584 |        17947 |        17947 |        21540 |        21540 |        42164 |        42164 |        53412 |        53412 |        97231 |        97231 |       109496 |       109496 |       220993 |       220993 |       261759 |       261759 |       494786 |       494786 |       535219 |       535219 |      1097127 |      1094592 |      1242394 |      1205759 |      2506605 |      2336542 |      2696574 |      2342108 |      4943779 |      4737133 |      5231910 |      5110347 |      9816559 |      9794131 |     10135079 |      9893465 |     20289827 |     20288506 |     21974722 |     21491693 |
dl2.misses                                    1976 |         1976 |         1958 |         1958 |         3016 |         3016 |         2999 |         2999 |         5053 |         5053 |         5034 |         5034 |         9164 |         9164 |         9146 |         9146 |        17339 |        17339 |        17321 |        17321 |        33740 |        33740 |        33722 |        33722 |        66489 |        69024 |        66471 |       103106 |       241703 |       411766 |       167283 |       521749 |       984121 |      1190767 |      1181475 |      1303038 |      2882689 |      2905117 |      2886264 |      3127878 |      6856902 |      6858223 |      6819973 |      7303002 |
dl2.replacements                               164 |          164 |            0 |            0 |          179 |          179 |            0 |            0 |          167 |          167 |            0 |            0 |          182 |          182 |            0 |            0 |          166 |          166 |            0 |            0 |          182 |          182 |            0 |            0 |          165 |         3605 |            0 |        37570 |       141852 |       346230 |        36211 |       456213 |       853049 |      1125231 |      1050403 |      1237502 |      2751617 |      2839581 |      2755192 |      3062342 |      6725830 |      6792687 |      6688901 |      7237466 |
dl2.writebacks                                 112 |          112 |            0 |            0 |          128 |          128 |            0 |            0 |          114 |          114 |            0 |            0 |          129 |          129 |            0 |            0 |          113 |          113 |            0 |            0 |          129 |          129 |            0 |            0 |          112 |         2207 |            0 |        37136 |        98217 |       267279 |        35741 |       357165 |       727957 |       760012 |       722136 |       876241 |      1813553 |      1813706 |      1771483 |      2045508 |      4184478 |      4184817 |      4132322 |      4647430 |
dl2.invalidations                                0 |            0 |            0 |            0 |            0 |            0 |            0 |            0 |            0 |            0 |            0 |            0 |            0 |            0 |            0 |            0 |            0 |            0 |            0 |            0 |            0 |            0 |            0 |            0 |            0 |            0 |            0 |            0 |            0 |            0 |            0 |            0 |            0 |            0 |            0 |            0 |            0 |            0 |            0 |            0 |            0 |            0 |            0 |            0 |
dl2.miss_rate                               0.2065 |       0.2065 |       0.1561 |       0.1561 |       0.1439 |       0.1439 |       0.1222 |       0.1222 |       0.1070 |       0.1070 |       0.0861 |       0.0861 |       0.0861 |       0.0861 |       0.0771 |       0.0771 |       0.0728 |       0.0728 |       0.0621 |       0.0621 |       0.0638 |       0.0638 |       0.0593 |       0.0593 |       0.0571 |       0.0593 |       0.0508 |       0.0788 |       0.0879 |       0.1498 |       0.0584 |       0.1822 |       0.1660 |       0.2009 |       0.1842 |       0.2032 |       0.2270 |       0.2288 |       0.2217 |       0.2402 |       0.2526 |       0.2526 |       0.2368 |       0.2536 |
dl2.repl_rate                               0.0171 |       0.0171 |       0.0000 |       0.0000 |       0.0085 |       0.0085 |       0.0000 |       0.0000 |       0.0035 |       0.0035 |       0.0000 |       0.0000 |       0.0017 |       0.0017 |       0.0000 |       0.0000 |       0.0007 |       0.0007 |       0.0000 |       0.0000 |       0.0003 |       0.0003 |       0.0000 |       0.0000 |       0.0001 |       0.0031 |       0.0000 |       0.0287 |       0.0516 |       0.1260 |       0.0126 |       0.1593 |       0.1439 |       0.1898 |       0.1638 |       0.1930 |       0.2167 |       0.2236 |       0.2116 |       0.2352 |       0.2478 |       0.2502 |       0.2323 |       0.2513 |
dl2.wb_rate                                 0.0117 |       0.0117 |       0.0000 |       0.0000 |       0.0061 |       0.0061 |       0.0000 |       0.0000 |       0.0024 |       0.0024 |       0.0000 |       0.0000 |       0.0012 |       0.0012 |       0.0000 |       0.0000 |       0.0005 |       0.0005 |       0.0000 |       0.0000 |       0.0002 |       0.0002 |       0.0000 |       0.0000 |       0.0001 |       0.0019 |       0.0000 |       0.0284 |       0.0357 |       0.0973 |       0.0125 |       0.1247 |       0.1228 |       0.1282 |       0.1126 |       0.1366 |       0.1428 |       0.1428 |       0.1360 |       0.1571 |       0.1541 |       0.1542 |       0.1435 |       0.1614 |
dl2.inv_rate                                0.0000 |       0.0000 |       0.0000 |       0.0000 |       0.0000 |       0.0000 |       0.0000 |       0.0000 |       0.0000 |       0.0000 |       0.0000 |       0.0000 |       0.0000 |       0.0000 |       0.0000 |       0.0000 |       0.0000 |       0.0000 |       0.0000 |       0.0000 |       0.0000 |       0.0000 |       0.0000 |       0.0000 |       0.0000 |       0.0000 |       0.0000 |       0.0000 |       0.0000 |       0.0000 |       0.0000 |       0.0000 |       0.0000 |       0.0000 |       0.0000 |       0.0000 |       0.0000 |       0.0000 |       0.0000 |       0.0000 |       0.0000 |       0.0000 |       0.0000 |       0.0000 |
itlb.accesses                               860529 |       860529 |       860529 |       860529 |      1751741 |      1751741 |      1751741 |      1751741 |      3960457 |      3960457 |      3960457 |      3960457 |      8061892 |      8061892 |      8061892 |      8061892 |     17986992 |     17986992 |     17986992 |     17986992 |     36561479 |     36561479 |     36561479 |     36561479 |     80560580 |     80560580 |     80560580 |     80560580 |    168398637 |    168398637 |    168398637 |    168398637 |    366524535 |    366524535 |    366524535 |    366524535 |    742950559 |    742950559 |    742950559 |    742950559 |   1604766082 |   1604766082 |   1604766082 |   1604766082 |
itlb.hits                                   860517 |       860517 |       860517 |       860517 |      1751729 |      1751729 |      1751729 |      1751729 |      3960445 |      3960445 |      3960445 |      3960445 |      8061880 |      8061880 |      8061880 |      8061880 |     17986980 |     17986980 |     17986980 |     17986980 |     36561467 |     36561467 |     36561467 |     36561467 |     80560568 |     80560568 |     80560568 |     80560568 |    168398625 |    168398625 |    168398625 |    168398625 |    366524523 |    366524523 |    366524523 |    366524523 |    742950547 |    742950547 |    742950547 |    742950547 |   1604766070 |   1604766070 |   1604766070 |   1604766070 |
itlb.misses                                     12 |           12 |           12 |           12 |           12 |           12 |           12 |           12 |           12 |           12 |           12 |           12 |           12 |           12 |           12 |           12 |           12 |           12 |           12 |           12 |           12 |           12 |           12 |           12 |           12 |           12 |           12 |           12 |           12 |           12 |           12 |           12 |           12 |           12 |           12 |           12 |           12 |           12 |           12 |           12 |           12 |           12 |           12 |           12 |
itlb.replacements                                0 |            0 |            0 |            0 |            0 |            0 |            0 |            0 |            0 |            0 |            0 |            0 |            0 |            0 |            0 |            0 |            0 |            0 |            0 |            0 |            0 |            0 |            0 |            0 |            0 |            0 |            0 |            0 |            0 |            0 |            0 |            0 |            0 |            0 |            0 |            0 |            0 |            0 |            0 |            0 |            0 |            0 |            0 |            0 |
itlb.writebacks                                  0 |            0 |            0 |            0 |            0 |            0 |            0 |            0 |            0 |            0 |            0 |            0 |            0 |            0 |            0 |            0 |            0 |            0 |            0 |            0 |            0 |            0 |            0 |            0 |            0 |            0 |            0 |            0 |            0 |            0 |            0 |            0 |            0 |            0 |            0 |            0 |            0 |            0 |            0 |            0 |            0 |            0 |            0 |            0 |
itlb.invalidations                               0 |            0 |            0 |            0 |            0 |            0 |            0 |            0 |            0 |            0 |            0 |            0 |            0 |            0 |            0 |            0 |            0 |            0 |            0 |            0 |            0 |            0 |            0 |            0 |            0 |            0 |            0 |            0 |            0 |            0 |            0 |            0 |            0 |            0 |            0 |            0 |            0 |            0 |            0 |            0 |            0 |            0 |            0 |            0 |
itlb.miss_rate                              0.0000 |       0.0000 |       0.0000 |       0.0000 |       0.0000 |       0.0000 |       0.0000 |       0.0000 |       0.0000 |       0.0000 |       0.0000 |       0.0000 |       0.0000 |       0.0000 |       0.0000 |       0.0000 |       0.0000 |       0.0000 |       0.0000 |       0.0000 |       0.0000 |       0.0000 |       0.0000 |       0.0000 |       0.0000 |       0.0000 |       0.0000 |       0.0000 |       0.0000 |       0.0000 |       0.0000 |       0.0000 |       0.0000 |       0.0000 |       0.0000 |       0.0000 |       0.0000 |       0.0000 |       0.0000 |       0.0000 |       0.0000 |       0.0000 |       0.0000 |       0.0000 |
itlb.repl_rate                              0.0000 |       0.0000 |       0.0000 |       0.0000 |       0.0000 |       0.0000 |       0.0000 |       0.0000 |       0.0000 |       0.0000 |       0.0000 |       0.0000 |       0.0000 |       0.0000 |       0.0000 |       0.0000 |       0.0000 |       0.0000 |       0.0000 |       0.0000 |       0.0000 |       0.0000 |       0.0000 |       0.0000 |       0.0000 |       0.0000 |       0.0000 |       0.0000 |       0.0000 |       0.0000 |       0.0000 |       0.0000 |       0.0000 |       0.0000 |       0.0000 |       0.0000 |       0.0000 |       0.0000 |       0.0000 |       0.0000 |       0.0000 |       0.0000 |       0.0000 |       0.0000 |
itlb.wb_rate                                0.0000 |       0.0000 |       0.0000 |       0.0000 |       0.0000 |       0.0000 |       0.0000 |       0.0000 |       0.0000 |       0.0000 |       0.0000 |       0.0000 |       0.0000 |       0.0000 |       0.0000 |       0.0000 |       0.0000 |       0.0000 |       0.0000 |       0.0000 |       0.0000 |       0.0000 |       0.0000 |       0.0000 |       0.0000 |       0.0000 |       0.0000 |       0.0000 |       0.0000 |       0.0000 |       0.0000 |       0.0000 |       0.0000 |       0.0000 |       0.0000 |       0.0000 |       0.0000 |       0.0000 |       0.0000 |       0.0000 |       0.0000 |       0.0000 |       0.0000 |       0.0000 |
itlb.inv_rate                               0.0000 |       0.0000 |       0.0000 |       0.0000 |       0.0000 |       0.0000 |       0.0000 |       0.0000 |       0.0000 |       0.0000 |       0.0000 |       0.0000 |       0.0000 |       0.0000 |       0.0000 |       0.0000 |       0.0000 |       0.0000 |       0.0000 |       0.0000 |       0.0000 |       0.0000 |       0.0000 |       0.0000 |       0.0000 |       0.0000 |       0.0000 |       0.0000 |       0.0000 |       0.0000 |       0.0000 |       0.0000 |       0.0000 |       0.0000 |       0.0000 |       0.0000 |       0.0000 |       0.0000 |       0.0000 |       0.0000 |       0.0000 |       0.0000 |       0.0000 |       0.0000 |
dtlb.accesses                               245521 |       245521 |       245521 |       245521 |       504995 |       504995 |       504995 |       504995 |      1117388 |      1117388 |      1117388 |      1117388 |      2301727 |      2301727 |      2301727 |      2301727 |      5048004 |      5048004 |      5048004 |      5048004 |     10377145 |     10377145 |     10377145 |     10377145 |     22534812 |     22534812 |     22534812 |     22534812 |     47798507 |     47798507 |     47798507 |     47798507 |    102714059 |    102714059 |    102714059 |    102714059 |    210070005 |    210070005 |    210070005 |    210070005 |    448629261 |    448629261 |    448629261 |    448629261 |
dtlb.hits                                   245505 |       245505 |       245505 |       245505 |       504971 |       504971 |       504971 |       504971 |      1117348 |      1117348 |      1117348 |      1117348 |      2301655 |      2301655 |      2301655 |      2301655 |      5047803 |      5047803 |      5047803 |      5047803 |     10374720 |     10374720 |     10374720 |     10374720 |     22529399 |     22529399 |     22529399 |     22529399 |     47785759 |     47785759 |     47785759 |     47785759 |    102686528 |    102686528 |    102686528 |    102686528 |    210010860 |    210010860 |    210010860 |    210010860 |    448502780 |    448502780 |    448502780 |    448502780 |
dtlb.misses                                     16 |           16 |           16 |           16 |           24 |           24 |           24 |           24 |           40 |           40 |           40 |           40 |           72 |           72 |           72 |           72 |          201 |          201 |          201 |          201 |         2425 |         2425 |         2425 |         2425 |         5413 |         5413 |         5413 |         5413 |        12748 |        12748 |        12748 |        12748 |        27531 |        27531 |        27531 |        27531 |        59145 |        59145 |        59145 |        59145 |       126481 |       126481 |       126481 |       126481 |
dtlb.replacements                                0 |            0 |            0 |            0 |            0 |            0 |            0 |            0 |            0 |            0 |            0 |            0 |            0 |            0 |            0 |            0 |           73 |           73 |           73 |           73 |         2297 |         2297 |         2297 |         2297 |         5285 |         5285 |         5285 |         5285 |        12620 |        12620 |        12620 |        12620 |        27403 |        27403 |        27403 |        27403 |        59017 |        59017 |        59017 |        59017 |       126353 |       126353 |       126353 |       126353 |
dtlb.writebacks                                  0 |            0 |            0 |            0 |            0 |            0 |            0 |            0 |            0 |            0 |            0 |            0 |            0 |            0 |            0 |            0 |           50 |           50 |           50 |           50 |         1335 |         1335 |         1335 |         1335 |         3030 |         3030 |         3030 |         3030 |         7085 |         7085 |         7085 |         7085 |        15249 |        15249 |        15249 |        15249 |        32598 |        32598 |        32598 |        32598 |        69359 |        69359 |        69359 |        69359 |
dtlb.invalidations                               0 |            0 |            0 |            0 |            0 |            0 |            0 |            0 |            0 |            0 |            0 |            0 |            0 |            0 |            0 |            0 |            0 |            0 |            0 |            0 |            0 |            0 |            0 |            0 |            0 |            0 |            0 |            0 |            0 |            0 |            0 |            0 |            0 |            0 |            0 |            0 |            0 |            0 |            0 |            0 |            0 |            0 |            0 |            0 |
dtlb.miss_rate                              0.0001 |       0.0001 |       0.0001 |       0.0001 |       0.0000 |       0.0000 |       0.0000 |       0.0000 |       0.0000 |       0.0000 |       0.0000 |       0.0000 |       0.0000 |       0.0000 |       0.0000 |       0.0000 |       0.0000 |       0.0000 |       0.0000 |       0.0000 |       0.0002 |       0.0002 |       0.0002 |       0.0002 |       0.0002 |       0.0002 |       0.0002 |       0.0002 |       0.0003 |       0.0003 |       0.0003 |       0.0003 |       0.0003 |       0.0003 |       0.0003 |       0.0003 |       0.0003 |       0.0003 |       0.0003 |       0.0003 |       0.0003 |       0.0003 |       0.0003 |       0.0003 |
dtlb.repl_rate                              0.0000 |       0.0000 |       0.0000 |       0.0000 |       0.0000 |       0.0000 |       0.0000 |       0.0000 |       0.0000 |       0.0000 |       0.0000 |       0.0000 |       0.0000 |       0.0000 |       0.0000 |       0.0000 |       0.0000 |       0.0000 |       0.0000 |       0.0000 |       0.0002 |       0.0002 |       0.0002 |       0.0002 |       0.0002 |       0.0002 |       0.0002 |       0.0002 |       0.0003 |       0.0003 |       0.0003 |       0.0003 |       0.0003 |       0.0003 |       0.0003 |       0.0003 |       0.0003 |       0.0003 |       0.0003 |       0.0003 |       0.0003 |       0.0003 |       0.0003 |       0.0003 |
dtlb.wb_rate                                0.0000 |       0.0000 |       0.0000 |       0.0000 |       0.0000 |       0.0000 |       0.0000 |       0.0000 |       0.0000 |       0.0000 |       0.0000 |       0.0000 |       0.0000 |       0.0000 |       0.0000 |       0.0000 |       0.0000 |       0.0000 |       0.0000 |       0.0000 |       0.0001 |       0.0001 |       0.0001 |       0.0001 |       0.0001 |       0.0001 |       0.0001 |       0.0001 |       0.0001 |       0.0001 |       0.0001 |       0.0001 |       0.0001 |       0.0001 |       0.0001 |       0.0001 |       0.0002 |       0.0002 |       0.0002 |       0.0002 |       0.0002 |       0.0002 |       0.0002 |       0.0002 |
dtlb.inv_rate                               0.0000 |       0.0000 |       0.0000 |       0.0000 |       0.0000 |       0.0000 |       0.0000 |       0.0000 |       0.0000 |       0.0000 |       0.0000 |       0.0000 |       0.0000 |       0.0000 |       0.0000 |       0.0000 |       0.0000 |       0.0000 |       0.0000 |       0.0000 |       0.0000 |       0.0000 |       0.0000 |       0.0000 |       0.0000 |       0.0000 |       0.0000 |       0.0000 |       0.0000 |       0.0000 |       0.0000 |       0.0000 |       0.0000 |       0.0000 |       0.0000 |       0.0000 |       0.0000 |       0.0000 |       0.0000 |       0.0000 |       0.0000 |       0.0000 |       0.0000 |       0.0000 |
ld_text_base                            0x00400000 |   0x00400000 |   0x00400000 |   0x00400000 |   0x00400000 |   0x00400000 |   0x00400000 |   0x00400000 |   0x00400000 |   0x00400000 |   0x00400000 |   0x00400000 |   0x00400000 |   0x00400000 |   0x00400000 |   0x00400000 |   0x00400000 |   0x00400000 |   0x00400000 |   0x00400000 |   0x00400000 |   0x00400000 |   0x00400000 |   0x00400000 |   0x00400000 |   0x00400000 |   0x00400000 |   0x00400000 |   0x00400000 |   0x00400000 |   0x00400000 |   0x00400000 |   0x00400000 |   0x00400000 |   0x00400000 |   0x00400000 |   0x00400000 |   0x00400000 |   0x00400000 |   0x00400000 |   0x00400000 |   0x00400000 |   0x00400000 |   0x00400000 |
ld_text_size                                 87632 |        87632 |        87632 |        87632 |        87664 |        87664 |        87664 |        87664 |        87680 |        87680 |        87680 |        87680 |        87696 |        87696 |        87696 |        87696 |        87696 |        87696 |        87696 |        87696 |        87696 |        87696 |        87696 |        87696 |        87696 |        87696 |        87696 |        87696 |        87696 |        87696 |        87696 |        87696 |        87696 |        87696 |        87696 |        87696 |        87696 |        87696 |        87696 |        87696 |        87696 |        87696 |        87696 |        87696 |
ld_data_base                            0x10000000 |   0x10000000 |   0x10000000 |   0x10000000 |   0x10000000 |   0x10000000 |   0x10000000 |   0x10000000 |   0x10000000 |   0x10000000 |   0x10000000 |   0x10000000 |   0x10000000 |   0x10000000 |   0x10000000 |   0x10000000 |   0x10000000 |   0x10000000 |   0x10000000 |   0x10000000 |   0x10000000 |   0x10000000 |   0x10000000 |   0x10000000 |   0x10000000 |   0x10000000 |   0x10000000 |   0x10000000 |   0x10000000 |   0x10000000 |   0x10000000 |   0x10000000 |   0x10000000 |   0x10000000 |   0x10000000 |   0x10000000 |   0x10000000 |   0x10000000 |   0x10000000 |   0x10000000 |   0x10000000 |   0x10000000 |   0x10000000 |   0x10000000 |
ld_data_size                                  8192 |         8192 |         8192 |         8192 |         8192 |         8192 |         8192 |         8192 |         8192 |         8192 |         8192 |         8192 |         8192 |         8192 |         8192 |         8192 |         8192 |         8192 |         8192 |         8192 |         8192 |         8192 |         8192 |         8192 |         8192 |         8192 |         8192 |         8192 |         8192 |         8192 |         8192 |         8192 |         8192 |         8192 |         8192 |         8192 |         8192 |         8192 |         8192 |         8192 |         8192 |         8192 |         8192 |         8192 |
ld_stack_base                           0x7fffc000 |   0x7fffc000 |   0x7fffc000 |   0x7fffc000 |   0x7fffc000 |   0x7fffc000 |   0x7fffc000 |   0x7fffc000 |   0x7fffc000 |   0x7fffc000 |   0x7fffc000 |   0x7fffc000 |   0x7fffc000 |   0x7fffc000 |   0x7fffc000 |   0x7fffc000 |   0x7fffc000 |   0x7fffc000 |   0x7fffc000 |   0x7fffc000 |   0x7fffc000 |   0x7fffc000 |   0x7fffc000 |   0x7fffc000 |   0x7fffc000 |   0x7fffc000 |   0x7fffc000 |   0x7fffc000 |   0x7fffc000 |   0x7fffc000 |   0x7fffc000 |   0x7fffc000 |   0x7fffc000 |   0x7fffc000 |   0x7fffc000 |   0x7fffc000 |   0x7fffc000 |   0x7fffc000 |   0x7fffc000 |   0x7fffc000 |   0x7fffc000 |   0x7fffc000 |   0x7fffc000 |   0x7fffc000 |
ld_stack_size                                16384 |        16384 |        16384 |        16384 |        16384 |        16384 |        16384 |        16384 |        16384 |        16384 |        16384 |        16384 |        16384 |        16384 |        16384 |        16384 |        16384 |        16384 |        16384 |        16384 |        16384 |        16384 |        16384 |        16384 |        16384 |        16384 |        16384 |        16384 |        16384 |        16384 |        16384 |        16384 |        16384 |        16384 |        16384 |        16384 |        16384 |        16384 |        16384 |        16384 |        16384 |        16384 |        16384 |        16384 |
ld_prog_entry                           0x00400140 |   0x00400140 |   0x00400140 |   0x00400140 |   0x00400140 |   0x00400140 |   0x00400140 |   0x00400140 |   0x00400140 |   0x00400140 |   0x00400140 |   0x00400140 |   0x00400140 |   0x00400140 |   0x00400140 |   0x00400140 |   0x00400140 |   0x00400140 |   0x00400140 |   0x00400140 |   0x00400140 |   0x00400140 |   0x00400140 |   0x00400140 |   0x00400140 |   0x00400140 |   0x00400140 |   0x00400140 |   0x00400140 |   0x00400140 |   0x00400140 |   0x00400140 |   0x00400140 |   0x00400140 |   0x00400140 |   0x00400140 |   0x00400140 |   0x00400140 |   0x00400140 |   0x00400140 |   0x00400140 |   0x00400140 |   0x00400140 |   0x00400140 |
ld_environ_base                         0x7fff8000 |   0x7fff8000 |   0x7fff8000 |   0x7fff8000 |   0x7fff8000 |   0x7fff8000 |   0x7fff8000 |   0x7fff8000 |   0x7fff8000 |   0x7fff8000 |   0x7fff8000 |   0x7fff8000 |   0x7fff8000 |   0x7fff8000 |   0x7fff8000 |   0x7fff8000 |   0x7fff8000 |   0x7fff8000 |   0x7fff8000 |   0x7fff8000 |   0x7fff8000 |   0x7fff8000 |   0x7fff8000 |   0x7fff8000 |   0x7fff8000 |   0x7fff8000 |   0x7fff8000 |   0x7fff8000 |   0x7fff8000 |   0x7fff8000 |   0x7fff8000 |   0x7fff8000 |   0x7fff8000 |   0x7fff8000 |   0x7fff8000 |   0x7fff8000 |   0x7fff8000 |   0x7fff8000 |   0x7fff8000 |   0x7fff8000 |   0x7fff8000 |   0x7fff8000 |   0x7fff8000 |   0x7fff8000 |
ld_target_big_endian                             0 |            0 |            0 |            0 |            0 |            0 |            0 |            0 |            0 |            0 |            0 |            0 |            0 |            0 |            0 |            0 |            0 |            0 |            0 |            0 |            0 |            0 |            0 |            0 |            0 |            0 |            0 |            0 |            0 |            0 |            0 |            0 |            0 |            0 |            0 |            0 |            0 |            0 |            0 |            0 |            0 |            0 |            0 |            0 |
mem.page_count                                  38 |           38 |           38 |           38 |           46 |           46 |           46 |           46 |           62 |           62 |           62 |           62 |           94 |           94 |           94 |           94 |          158 |          158 |          158 |          158 |          286 |          286 |          286 |          286 |          542 |          542 |          542 |          542 |         1060 |         1060 |         1060 |         1060 |         2084 |         2084 |         2084 |         2084 |         4138 |         4138 |         4138 |         4138 |         8246 |         8246 |         8246 |         8246 |
mem.page_mem                                  152k |         152k |         152k |         152k |         184k |         184k |         184k |         184k |         248k |         248k |         248k |         248k |         376k |         376k |         376k |         376k |         632k |         632k |         632k |         632k |        1144k |        1144k |        1144k |        1144k |        2168k |        2168k |        2168k |        2168k |        4240k |        4240k |        4240k |        4240k |        8336k |        8336k |        8336k |        8336k |       16552k |       16552k |       16552k |       16552k |       32984k |       32984k |       32984k |       32984k |
mem.ptab_misses                                 38 |           38 |           38 |           38 |           46 |           46 |           46 |           46 |           62 |           62 |           62 |           62 |           94 |           94 |           94 |           94 |          158 |          158 |          158 |          158 |          286 |          286 |          286 |          286 |          542 |          542 |          542 |          542 |         1078 |         1078 |         1078 |         1078 |       111250 |       111250 |       111250 |       111250 |       115216 |       115216 |       115216 |       115216 |       126566 |       126566 |       126566 |       126566 |
mem.ptab_accesses                          4473608 |      4473608 |      4473608 |      4473608 |      8557596 |      8557596 |      8557596 |      8557596 |     18617342 |     18617342 |     18617342 |     18617342 |     37391856 |     37391856 |     37391856 |     37391856 |     82584810 |     82584810 |     82584810 |     82584810 |    167541040 |    167541040 |    167541040 |    167541040 |    367852778 |    367852778 |    367852778 |    367852778 |    769732396 |    769732396 |    769732396 |    769732396 |   1672067092 |   1672067092 |   1672067092 |   1672067092 |   3392483080 |   3392483080 |   3392483080 |   3392483080 |   7316863684 |   7316863684 |   7316863684 |   7316863684 |
mem.ptab_miss_rate                          0.0000 |       0.0000 |       0.0000 |       0.0000 |       0.0000 |       0.0000 |       0.0000 |       0.0000 |       0.0000 |       0.0000 |       0.0000 |       0.0000 |       0.0000 |       0.0000 |       0.0000 |       0.0000 |       0.0000 |       0.0000 |       0.0000 |       0.0000 |       0.0000 |       0.0000 |       0.0000 |       0.0000 |       0.0000 |       0.0000 |       0.0000 |       0.0000 |       0.0000 |       0.0000 |       0.0000 |       0.0000 |       0.0001 |       0.0001 |       0.0001 |       0.0001 |       0.0000 |       0.0000 |       0.0000 |       0.0000 |       0.0000 |       0.0000 |       0.0000 |       0.0000 |
-------------------------------------------------------------------------------------------------
sim-bpred                                     4096 |         4096 |         4096 |         4096 |         4096 |         4096 |         4096 |         8192 |         8192 |         8192 |         8192 |         8192 |         8192 |         8192 |        16384 |        16384 |        16384 |        16384 |        16384 |        16384 |        16384 |        32768 |        32768 |        32768 |        32768 |        32768 |        32768 |        32768 |        65536 |        65536 |        65536 |        65536 |        65536 |        65536 |        65536 |       131072 |       131072 |       131072 |       131072 |       131072 |       131072 |       131072 |       262144 |       262144 |       262144 |       262144 |       262144 |       262144 |       262144 |       524288 |       524288 |       524288 |       524288 |       524288 |       524288 |       524288 |      1048576 |      1048576 |      1048576 |      1048576 |      1048576 |      1048576 |      1048576 |      2097152 |      2097152 |      2097152 |      2097152 |      2097152 |      2097152 |      2097152 |      4194304 |      4194304 |      4194304 |      4194304 |      4194304 |      4194304 |      4194304 |
-bpred bimod -bpred:bimod 512
-bpred bimod -bpred:bimod 1024
-bpred bimod -bpred:bimod 2048
-bpred 2lev -bpred:2lev 1 512 10 1
-bpred 2lev -bpred:2lev 1 1024 10 1
-bpred 2lev -bpred:2lev 1 2048 10 1
-bpred 2lev -bpred:2lev 1 4096 10 1
-------------------------------------------------------------------------------------------------
sim_num_insn                                860529 |       860529 |       860529 |       860529 |       860529 |       860529 |       860529 |      1751741 |      1751741 |      1751741 |      1751741 |      1751741 |      1751741 |      1751741 |      3960457 |      3960457 |      3960457 |      3960457 |      3960457 |      3960457 |      3960457 |      8061892 |      8061892 |      8061892 |      8061892 |      8061892 |      8061892 |      8061892 |     17986992 |     17986992 |     17986992 |     17986992 |     17986992 |     17986992 |     17986992 |     36561479 |     36561479 |     36561479 |     36561479 |     36561479 |     36561479 |     36561479 |     80560580 |     80560580 |     80560580 |     80560580 |     80560580 |     80560580 |     80560580 |    168398637 |    168398637 |    168398637 |    168398637 |    168398637 |    168398637 |    168398637 |    366524535 |    366524535 |    366524535 |    366524535 |    366524535 |    366524535 |    366524535 |    742950559 |    742950559 |    742950559 |    742950559 |    742950559 |    742950559 |    742950559 |   1604766082 |   1604766082 |   1604766082 |   1604766082 |   1604766082 |   1604766082 |   1604766082 |
sim_num_refs                                229063 |       229063 |       229063 |       229063 |       229063 |       229063 |       229063 |       472153 |       472153 |       472153 |       472153 |       472153 |       472153 |       472153 |      1051778 |      1051778 |      1051778 |      1051778 |      1051778 |      1051778 |      1051778 |      2170581 |      2170581 |      2170581 |      2170581 |      2170581 |      2170581 |      2170581 |      4785786 |      4785786 |      4785786 |      4785786 |      4785786 |      4785786 |      4785786 |      9852783 |      9852783 |      9852783 |      9852783 |      9852783 |      9852783 |      9852783 |     21486162 |     21486162 |     21486162 |     21486162 |     21486162 |     21486162 |     21486162 |     45701281 |     45701281 |     45701281 |     45701281 |     45701281 |     45701281 |     45701281 |     98519681 |     98519681 |     98519681 |     98519681 |     98519681 |     98519681 |     98519681 |    201681323 |    201681323 |    201681323 |    201681323 |    201681323 |    201681323 |    201681323 |    431851971 |    431851971 |    431851971 |    431851971 |    431851971 |    431851971 |    431851971 |
sim_elapsed_time                                 1 |            1 |            1 |            1 |            1 |            1 |            1 |            1 |            1 |            1 |            1 |            1 |            1 |            1 |            1 |            1 |            1 |            1 |            1 |            1 |            1 |            1 |            1 |            1 |            1 |            1 |            1 |            1 |            2 |            2 |            2 |            2 |            2 |            2 |            2 |            4 |            4 |            4 |            4 |            5 |            4 |            4 |            9 |            9 |            9 |            9 |           10 |            9 |            9 |           19 |           19 |           19 |           19 |           19 |           19 |           20 |           42 |           41 |           41 |           42 |           41 |           42 |           42 |           83 |           83 |           84 |           84 |           85 |           84 |           85 |          179 |          178 |          180 |          181 |          182 |          181 |          181 |
sim_inst_rate                          860529.0000 |  860529.0000 |  860529.0000 |  860529.0000 |  860529.0000 |  860529.0000 |  860529.0000 | 1751741.0000 | 1751741.0000 | 1751741.0000 | 1751741.0000 | 1751741.0000 | 1751741.0000 | 1751741.0000 | 3960457.0000 | 3960457.0000 | 3960457.0000 | 3960457.0000 | 3960457.0000 | 3960457.0000 | 3960457.0000 | 8061892.0000 | 8061892.0000 | 8061892.0000 | 8061892.0000 | 8061892.0000 | 8061892.0000 | 8061892.0000 | 8993496.0000 | 8993496.0000 | 8993496.0000 | 8993496.0000 | 8993496.0000 | 8993496.0000 | 8993496.0000 | 9140369.7500 | 9140369.7500 | 9140369.7500 | 9140369.7500 | 7312295.8000 | 9140369.7500 | 9140369.7500 | 8951175.5556 | 8951175.5556 | 8951175.5556 | 8951175.5556 | 8056058.0000 | 8951175.5556 | 8951175.5556 | 8863086.1579 | 8863086.1579 | 8863086.1579 | 8863086.1579 | 8863086.1579 | 8863086.1579 | 8419931.8500 | 8726774.6429 | 8939622.8049 | 8939622.8049 | 8726774.6429 | 8939622.8049 | 8726774.6429 | 8726774.6429 | 8951211.5542 | 8951211.5542 | 8844649.5119 | 8844649.5119 | 8740594.8118 | 8844649.5119 | 8740594.8118 | 8965173.6425 | 9015539.7865 | 8915367.1222 | 8866110.9503 | 8817396.0549 | 8866110.9503 | 8866110.9503 |
sim_num_branches                            112987 |       112987 |       112987 |       112987 |       112987 |       112987 |       112987 |       235885 |       235885 |       235885 |       235885 |       235885 |       235885 |       235885 |       514995 |       514995 |       514995 |       514995 |       514995 |       514995 |       514995 |      1071295 |      1071295 |      1071295 |      1071295 |      1071295 |      1071295 |      1071295 |      2320530 |      2320530 |      2320530 |      2320530 |      2320530 |      2320530 |      2320530 |      4810744 |      4810744 |      4810744 |      4810744 |      4810744 |      4810744 |      4810744 |     10326670 |     10326670 |     10326670 |     10326670 |     10326670 |     10326670 |     10326670 |     21933433 |     21933433 |     21933433 |     21933433 |     21933433 |     21933433 |     21933433 |     46682276 |     46682276 |     46682276 |     46682276 |     46682276 |     46682276 |     46682276 |     96159063 |     96159063 |     96159063 |     96159063 |     96159063 |     96159063 |     96159063 |    203568204 |    203568204 |    203568204 |    203568204 |    203568204 |    203568204 |    203568204 |
sim_IPB                                     7.6162 |       7.6162 |       7.6162 |       7.6162 |       7.6162 |       7.6162 |       7.6162 |       7.4263 |       7.4263 |       7.4263 |       7.4263 |       7.4263 |       7.4263 |       7.4263 |       7.6903 |       7.6903 |       7.6903 |       7.6903 |       7.6903 |       7.6903 |       7.6903 |       7.5254 |       7.5254 |       7.5254 |       7.5254 |       7.5254 |       7.5254 |       7.5254 |       7.7512 |       7.7512 |       7.7512 |       7.7512 |       7.7512 |       7.7512 |       7.7512 |       7.6000 |       7.6000 |       7.6000 |       7.6000 |       7.6000 |       7.6000 |       7.6000 |       7.8012 |       7.8012 |       7.8012 |       7.8012 |       7.8012 |       7.8012 |       7.8012 |       7.6777 |       7.6777 |       7.6777 |       7.6777 |       7.6777 |       7.6777 |       7.6777 |       7.8515 |       7.8515 |       7.8515 |       7.8515 |       7.8515 |       7.8515 |       7.8515 |       7.7263 |       7.7263 |       7.7263 |       7.7263 |       7.7263 |       7.7263 |       7.7263 |       7.8832 |       7.8832 |       7.8832 |       7.8832 |       7.8832 |       7.8832 |       7.8832 |
bpred_bimod.lookups                         112987 |       112987 |       112987 |xxxxxxxxxxxxx |xxxxxxxxxxxxx |xxxxxxxxxxxxx |xxxxxxxxxxxxx |       235885 |       235885 |       235885 |xxxxxxxxxxxxx |xxxxxxxxxxxxx |xxxxxxxxxxxxx |xxxxxxxxxxxxx |       514995 |       514995 |       514995 |xxxxxxxxxxxxx |xxxxxxxxxxxxx |xxxxxxxxxxxxx |xxxxxxxxxxxxx |      1071295 |      1071295 |      1071295 |xxxxxxxxxxxxx |xxxxxxxxxxxxx |xxxxxxxxxxxxx |xxxxxxxxxxxxx |      2320530 |      2320530 |      2320530 |xxxxxxxxxxxxx |xxxxxxxxxxxxx |xxxxxxxxxxxxx |xxxxxxxxxxxxx |      4810744 |      4810744 |      4810744 |xxxxxxxxxxxxx |xxxxxxxxxxxxx |xxxxxxxxxxxxx |xxxxxxxxxxxxx |     10326670 |     10326670 |     10326670 |xxxxxxxxxxxxx |xxxxxxxxxxxxx |xxxxxxxxxxxxx |xxxxxxxxxxxxx |     21933433 |     21933433 |     21933433 |xxxxxxxxxxxxx |xxxxxxxxxxxxx |xxxxxxxxxxxxx |xxxxxxxxxxxxx |     46682276 |     46682276 |     46682276 |xxxxxxxxxxxxx |xxxxxxxxxxxxx |xxxxxxxxxxxxx |xxxxxxxxxxxxx |     96159063 |     96159063 |     96159063 |xxxxxxxxxxxxx |xxxxxxxxxxxxx |xxxxxxxxxxxxx |xxxxxxxxxxxxx |    203568204 |    203568204 |    203568204 |
bpred_bimod.updates                         112987 |       112987 |       112987 |xxxxxxxxxxxxx |xxxxxxxxxxxxx |xxxxxxxxxxxxx |xxxxxxxxxxxxx |       235885 |       235885 |       235885 |xxxxxxxxxxxxx |xxxxxxxxxxxxx |xxxxxxxxxxxxx |xxxxxxxxxxxxx |       514995 |       514995 |       514995 |xxxxxxxxxxxxx |xxxxxxxxxxxxx |xxxxxxxxxxxxx |xxxxxxxxxxxxx |      1071295 |      1071295 |      1071295 |xxxxxxxxxxxxx |xxxxxxxxxxxxx |xxxxxxxxxxxxx |xxxxxxxxxxxxx |      2320530 |      2320530 |      2320530 |xxxxxxxxxxxxx |xxxxxxxxxxxxx |xxxxxxxxxxxxx |xxxxxxxxxxxxx |      4810744 |      4810744 |      4810744 |xxxxxxxxxxxxx |xxxxxxxxxxxxx |xxxxxxxxxxxxx |xxxxxxxxxxxxx |     10326670 |     10326670 |     10326670 |xxxxxxxxxxxxx |xxxxxxxxxxxxx |xxxxxxxxxxxxx |xxxxxxxxxxxxx |     21933433 |     21933433 |     21933433 |xxxxxxxxxxxxx |xxxxxxxxxxxxx |xxxxxxxxxxxxx |xxxxxxxxxxxxx |     46682276 |     46682276 |     46682276 |xxxxxxxxxxxxx |xxxxxxxxxxxxx |xxxxxxxxxxxxx |xxxxxxxxxxxxx |     96159063 |     96159063 |     96159063 |xxxxxxxxxxxxx |xxxxxxxxxxxxx |xxxxxxxxxxxxx |xxxxxxxxxxxxx |    203568204 |    203568204 |    203568204 |
bpred_bimod.addr_hits                        87268 |        87275 |        87274 |xxxxxxxxxxxxx |xxxxxxxxxxxxx |xxxxxxxxxxxxx |xxxxxxxxxxxxx |       184114 |       184126 |       184128 |xxxxxxxxxxxxx |xxxxxxxxxxxxx |xxxxxxxxxxxxx |xxxxxxxxxxxxx |       396719 |       396742 |       396741 |xxxxxxxxxxxxx |xxxxxxxxxxxxx |xxxxxxxxxxxxx |xxxxxxxxxxxxx |       832104 |       832117 |       832119 |xxxxxxxxxxxxx |xxxxxxxxxxxxx |xxxxxxxxxxxxx |xxxxxxxxxxxxx |      1783208 |      1783275 |      1783279 |xxxxxxxxxxxxx |xxxxxxxxxxxxx |xxxxxxxxxxxxx |xxxxxxxxxxxxx |      3725256 |      3725301 |      3725302 |xxxxxxxxxxxxx |xxxxxxxxxxxxx |xxxxxxxxxxxxx |xxxxxxxxxxxxx |      7915005 |      7915242 |      7915245 |xxxxxxxxxxxxx |xxxxxxxxxxxxx |xxxxxxxxxxxxx |xxxxxxxxxxxxx |     17065433 |     17065619 |     17065619 |xxxxxxxxxxxxx |xxxxxxxxxxxxx |xxxxxxxxxxxxx |xxxxxxxxxxxxx |     35983932 |     35984925 |     35984927 |xxxxxxxxxxxxx |xxxxxxxxxxxxx |xxxxxxxxxxxxx |xxxxxxxxxxxxx |     74597288 |     74597859 |     74597861 |xxxxxxxxxxxxx |xxxxxxxxxxxxx |xxxxxxxxxxxxx |xxxxxxxxxxxxx |    156596030 |    156600176 |    156600178 |
bpred_bimod.dir_hits                         87417 |        87423 |        87423 |xxxxxxxxxxxxx |xxxxxxxxxxxxx |xxxxxxxxxxxxx |xxxxxxxxxxxxx |       184268 |       184279 |       184281 |xxxxxxxxxxxxx |xxxxxxxxxxxxx |xxxxxxxxxxxxx |xxxxxxxxxxxxx |       396865 |       396889 |       396889 |xxxxxxxxxxxxx |xxxxxxxxxxxxx |xxxxxxxxxxxxx |xxxxxxxxxxxxx |       832259 |       832270 |       832274 |xxxxxxxxxxxxx |xxxxxxxxxxxxx |xxxxxxxxxxxxx |xxxxxxxxxxxxx |      1783359 |      1783423 |      1783429 |xxxxxxxxxxxxx |xxxxxxxxxxxxx |xxxxxxxxxxxxx |xxxxxxxxxxxxx |      3725412 |      3725455 |      3725458 |xxxxxxxxxxxxx |xxxxxxxxxxxxx |xxxxxxxxxxxxx |xxxxxxxxxxxxx |      7915153 |      7915386 |      7915391 |xxxxxxxxxxxxx |xxxxxxxxxxxxx |xxxxxxxxxxxxx |xxxxxxxxxxxxx |     17065610 |     17065793 |     17065796 |xxxxxxxxxxxxx |xxxxxxxxxxxxx |xxxxxxxxxxxxx |xxxxxxxxxxxxx |     35984106 |     35985096 |     35985099 |xxxxxxxxxxxxx |xxxxxxxxxxxxx |xxxxxxxxxxxxx |xxxxxxxxxxxxx |     74597466 |     74598034 |     74598039 |xxxxxxxxxxxxx |xxxxxxxxxxxxx |xxxxxxxxxxxxx |xxxxxxxxxxxxx |    156596204 |    156600347 |    156600350 |
bpred_bimod.misses                           25570 |        25564 |        25564 |xxxxxxxxxxxxx |xxxxxxxxxxxxx |xxxxxxxxxxxxx |xxxxxxxxxxxxx |        51617 |        51606 |        51604 |xxxxxxxxxxxxx |xxxxxxxxxxxxx |xxxxxxxxxxxxx |xxxxxxxxxxxxx |       118130 |       118106 |       118106 |xxxxxxxxxxxxx |xxxxxxxxxxxxx |xxxxxxxxxxxxx |xxxxxxxxxxxxx |       239036 |       239025 |       239021 |xxxxxxxxxxxxx |xxxxxxxxxxxxx |xxxxxxxxxxxxx |xxxxxxxxxxxxx |       537171 |       537107 |       537101 |xxxxxxxxxxxxx |xxxxxxxxxxxxx |xxxxxxxxxxxxx |xxxxxxxxxxxxx |      1085332 |      1085289 |      1085286 |xxxxxxxxxxxxx |xxxxxxxxxxxxx |xxxxxxxxxxxxx |xxxxxxxxxxxxx |      2411517 |      2411284 |      2411279 |xxxxxxxxxxxxx |xxxxxxxxxxxxx |xxxxxxxxxxxxx |xxxxxxxxxxxxx |      4867823 |      4867640 |      4867637 |xxxxxxxxxxxxx |xxxxxxxxxxxxx |xxxxxxxxxxxxx |xxxxxxxxxxxxx |     10698170 |     10697180 |     10697177 |xxxxxxxxxxxxx |xxxxxxxxxxxxx |xxxxxxxxxxxxx |xxxxxxxxxxxxx |     21561597 |     21561029 |     21561024 |xxxxxxxxxxxxx |xxxxxxxxxxxxx |xxxxxxxxxxxxx |xxxxxxxxxxxxx |     46972000 |     46967857 |     46967854 |
bpred_bimod.jr_hits                             79 |           79 |           79 |xxxxxxxxxxxxx |xxxxxxxxxxxxx |xxxxxxxxxxxxx |xxxxxxxxxxxxx |           87 |           87 |           87 |xxxxxxxxxxxxx |xxxxxxxxxxxxx |xxxxxxxxxxxxx |xxxxxxxxxxxxx |          103 |          103 |          103 |xxxxxxxxxxxxx |xxxxxxxxxxxxx |xxxxxxxxxxxxx |xxxxxxxxxxxxx |          135 |          135 |          135 |xxxxxxxxxxxxx |xxxxxxxxxxxxx |xxxxxxxxxxxxx |xxxxxxxxxxxxx |          199 |          199 |          199 |xxxxxxxxxxxxx |xxxxxxxxxxxxx |xxxxxxxxxxxxx |xxxxxxxxxxxxx |          327 |          327 |          327 |xxxxxxxxxxxxx |xxxxxxxxxxxxx |xxxxxxxxxxxxx |xxxxxxxxxxxxx |          583 |          583 |          583 |xxxxxxxxxxxxx |xxxxxxxxxxxxx |xxxxxxxxxxxxx |xxxxxxxxxxxxx |         1100 |         1100 |         1100 |xxxxxxxxxxxxx |xxxxxxxxxxxxx |xxxxxxxxxxxxx |xxxxxxxxxxxxx |         2126 |         2126 |         2126 |xxxxxxxxxxxxx |xxxxxxxxxxxxx |xxxxxxxxxxxxx |xxxxxxxxxxxxx |         4178 |         4178 |         4178 |xxxxxxxxxxxxx |xxxxxxxxxxxxx |xxxxxxxxxxxxx |xxxxxxxxxxxxx |         8282 |         8282 |         8282 |
bpred_bimod.jr_seen                             80 |           80 |           80 |xxxxxxxxxxxxx |xxxxxxxxxxxxx |xxxxxxxxxxxxx |xxxxxxxxxxxxx |           88 |           88 |           88 |xxxxxxxxxxxxx |xxxxxxxxxxxxx |xxxxxxxxxxxxx |xxxxxxxxxxxxx |          104 |          104 |          104 |xxxxxxxxxxxxx |xxxxxxxxxxxxx |xxxxxxxxxxxxx |xxxxxxxxxxxxx |          136 |          136 |          136 |xxxxxxxxxxxxx |xxxxxxxxxxxxx |xxxxxxxxxxxxx |xxxxxxxxxxxxx |          200 |          200 |          200 |xxxxxxxxxxxxx |xxxxxxxxxxxxx |xxxxxxxxxxxxx |xxxxxxxxxxxxx |          328 |          328 |          328 |xxxxxxxxxxxxx |xxxxxxxxxxxxx |xxxxxxxxxxxxx |xxxxxxxxxxxxx |          584 |          584 |          584 |xxxxxxxxxxxxx |xxxxxxxxxxxxx |xxxxxxxxxxxxx |xxxxxxxxxxxxx |         1101 |         1101 |         1101 |xxxxxxxxxxxxx |xxxxxxxxxxxxx |xxxxxxxxxxxxx |xxxxxxxxxxxxx |         2127 |         2127 |         2127 |xxxxxxxxxxxxx |xxxxxxxxxxxxx |xxxxxxxxxxxxx |xxxxxxxxxxxxx |         4179 |         4179 |         4179 |xxxxxxxxxxxxx |xxxxxxxxxxxxx |xxxxxxxxxxxxx |xxxxxxxxxxxxx |         8283 |         8283 |         8283 |
bpred_bimod.jr_non_ras_hits.PP                   0 |            0 |            0 |xxxxxxxxxxxxx |xxxxxxxxxxxxx |xxxxxxxxxxxxx |xxxxxxxxxxxxx |            0 |            0 |            0 |xxxxxxxxxxxxx |xxxxxxxxxxxxx |xxxxxxxxxxxxx |xxxxxxxxxxxxx |            0 |            0 |            0 |xxxxxxxxxxxxx |xxxxxxxxxxxxx |xxxxxxxxxxxxx |xxxxxxxxxxxxx |            0 |            0 |            0 |xxxxxxxxxxxxx |xxxxxxxxxxxxx |xxxxxxxxxxxxx |xxxxxxxxxxxxx |            0 |            0 |            0 |xxxxxxxxxxxxx |xxxxxxxxxxxxx |xxxxxxxxxxxxx |xxxxxxxxxxxxx |            0 |            0 |            0 |xxxxxxxxxxxxx |xxxxxxxxxxxxx |xxxxxxxxxxxxx |xxxxxxxxxxxxx |            0 |            0 |            0 |xxxxxxxxxxxxx |xxxxxxxxxxxxx |xxxxxxxxxxxxx |xxxxxxxxxxxxx |            0 |            0 |            0 |xxxxxxxxxxxxx |xxxxxxxxxxxxx |xxxxxxxxxxxxx |xxxxxxxxxxxxx |            0 |            0 |            0 |xxxxxxxxxxxxx |xxxxxxxxxxxxx |xxxxxxxxxxxxx |xxxxxxxxxxxxx |            0 |            0 |            0 |xxxxxxxxxxxxx |xxxxxxxxxxxxx |xxxxxxxxxxxxx |xxxxxxxxxxxxx |            0 |            0 |            0 |
bpred_bimod.jr_non_ras_seen.PP                   0 |            0 |            0 |xxxxxxxxxxxxx |xxxxxxxxxxxxx |xxxxxxxxxxxxx |xxxxxxxxxxxxx |            0 |            0 |            0 |xxxxxxxxxxxxx |xxxxxxxxxxxxx |xxxxxxxxxxxxx |xxxxxxxxxxxxx |            0 |            0 |            0 |xxxxxxxxxxxxx |xxxxxxxxxxxxx |xxxxxxxxxxxxx |xxxxxxxxxxxxx |            0 |            0 |            0 |xxxxxxxxxxxxx |xxxxxxxxxxxxx |xxxxxxxxxxxxx |xxxxxxxxxxxxx |            0 |            0 |            0 |xxxxxxxxxxxxx |xxxxxxxxxxxxx |xxxxxxxxxxxxx |xxxxxxxxxxxxx |            0 |            0 |            0 |xxxxxxxxxxxxx |xxxxxxxxxxxxx |xxxxxxxxxxxxx |xxxxxxxxxxxxx |            0 |            0 |            0 |xxxxxxxxxxxxx |xxxxxxxxxxxxx |xxxxxxxxxxxxx |xxxxxxxxxxxxx |            1 |            1 |            1 |xxxxxxxxxxxxx |xxxxxxxxxxxxx |xxxxxxxxxxxxx |xxxxxxxxxxxxx |            1 |            1 |            1 |xxxxxxxxxxxxx |xxxxxxxxxxxxx |xxxxxxxxxxxxx |xxxxxxxxxxxxx |            1 |            1 |            1 |xxxxxxxxxxxxx |xxxxxxxxxxxxx |xxxxxxxxxxxxx |xxxxxxxxxxxxx |            1 |            1 |            1 |
bpred_bimod.bpred_addr_rate                 0.7724 |       0.7724 |       0.7724 |xxxxxxxxxxxxx |xxxxxxxxxxxxx |xxxxxxxxxxxxx |xxxxxxxxxxxxx |       0.7805 |       0.7806 |       0.7806 |xxxxxxxxxxxxx |xxxxxxxxxxxxx |xxxxxxxxxxxxx |xxxxxxxxxxxxx |       0.7703 |       0.7704 |       0.7704 |xxxxxxxxxxxxx |xxxxxxxxxxxxx |xxxxxxxxxxxxx |xxxxxxxxxxxxx |       0.7767 |       0.7767 |       0.7767 |xxxxxxxxxxxxx |xxxxxxxxxxxxx |xxxxxxxxxxxxx |xxxxxxxxxxxxx |       0.7684 |       0.7685 |       0.7685 |xxxxxxxxxxxxx |xxxxxxxxxxxxx |xxxxxxxxxxxxx |xxxxxxxxxxxxx |       0.7744 |       0.7744 |       0.7744 |xxxxxxxxxxxxx |xxxxxxxxxxxxx |xxxxxxxxxxxxx |xxxxxxxxxxxxx |       0.7665 |       0.7665 |       0.7665 |xxxxxxxxxxxxx |xxxxxxxxxxxxx |xxxxxxxxxxxxx |xxxxxxxxxxxxx |       0.7781 |       0.7781 |       0.7781 |xxxxxxxxxxxxx |xxxxxxxxxxxxx |xxxxxxxxxxxxx |xxxxxxxxxxxxx |       0.7708 |       0.7708 |       0.7708 |xxxxxxxxxxxxx |xxxxxxxxxxxxx |xxxxxxxxxxxxx |xxxxxxxxxxxxx |       0.7758 |       0.7758 |       0.7758 |xxxxxxxxxxxxx |xxxxxxxxxxxxx |xxxxxxxxxxxxx |xxxxxxxxxxxxx |       0.7693 |       0.7693 |       0.7693 |
bpred_bimod.bpred_dir_rate                  0.7737 |       0.7737 |       0.7737 |xxxxxxxxxxxxx |xxxxxxxxxxxxx |xxxxxxxxxxxxx |xxxxxxxxxxxxx |       0.7812 |       0.7812 |       0.7812 |xxxxxxxxxxxxx |xxxxxxxxxxxxx |xxxxxxxxxxxxx |xxxxxxxxxxxxx |       0.7706 |       0.7707 |       0.7707 |xxxxxxxxxxxxx |xxxxxxxxxxxxx |xxxxxxxxxxxxx |xxxxxxxxxxxxx |       0.7769 |       0.7769 |       0.7769 |xxxxxxxxxxxxx |xxxxxxxxxxxxx |xxxxxxxxxxxxx |xxxxxxxxxxxxx |       0.7685 |       0.7685 |       0.7685 |xxxxxxxxxxxxx |xxxxxxxxxxxxx |xxxxxxxxxxxxx |xxxxxxxxxxxxx |       0.7744 |       0.7744 |       0.7744 |xxxxxxxxxxxxx |xxxxxxxxxxxxx |xxxxxxxxxxxxx |xxxxxxxxxxxxx |       0.7665 |       0.7665 |       0.7665 |xxxxxxxxxxxxx |xxxxxxxxxxxxx |xxxxxxxxxxxxx |xxxxxxxxxxxxx |       0.7781 |       0.7781 |       0.7781 |xxxxxxxxxxxxx |xxxxxxxxxxxxx |xxxxxxxxxxxxx |xxxxxxxxxxxxx |       0.7708 |       0.7709 |       0.7709 |xxxxxxxxxxxxx |xxxxxxxxxxxxx |xxxxxxxxxxxxx |xxxxxxxxxxxxx |       0.7758 |       0.7758 |       0.7758 |xxxxxxxxxxxxx |xxxxxxxxxxxxx |xxxxxxxxxxxxx |xxxxxxxxxxxxx |       0.7693 |       0.7693 |       0.7693 |
bpred_bimod.bpred_jr_rate                   0.9875 |       0.9875 |       0.9875 |xxxxxxxxxxxxx |xxxxxxxxxxxxx |xxxxxxxxxxxxx |xxxxxxxxxxxxx |       0.9886 |       0.9886 |       0.9886 |xxxxxxxxxxxxx |xxxxxxxxxxxxx |xxxxxxxxxxxxx |xxxxxxxxxxxxx |       0.9904 |       0.9904 |       0.9904 |xxxxxxxxxxxxx |xxxxxxxxxxxxx |xxxxxxxxxxxxx |xxxxxxxxxxxxx |       0.9926 |       0.9926 |       0.9926 |xxxxxxxxxxxxx |xxxxxxxxxxxxx |xxxxxxxxxxxxx |xxxxxxxxxxxxx |       0.9950 |       0.9950 |       0.9950 |xxxxxxxxxxxxx |xxxxxxxxxxxxx |xxxxxxxxxxxxx |xxxxxxxxxxxxx |       0.9970 |       0.9970 |       0.9970 |xxxxxxxxxxxxx |xxxxxxxxxxxxx |xxxxxxxxxxxxx |xxxxxxxxxxxxx |       0.9983 |       0.9983 |       0.9983 |xxxxxxxxxxxxx |xxxxxxxxxxxxx |xxxxxxxxxxxxx |xxxxxxxxxxxxx |       0.9991 |       0.9991 |       0.9991 |xxxxxxxxxxxxx |xxxxxxxxxxxxx |xxxxxxxxxxxxx |xxxxxxxxxxxxx |       0.9995 |       0.9995 |       0.9995 |xxxxxxxxxxxxx |xxxxxxxxxxxxx |xxxxxxxxxxxxx |xxxxxxxxxxxxx |       0.9998 |       0.9998 |       0.9998 |xxxxxxxxxxxxx |xxxxxxxxxxxxx |xxxxxxxxxxxxx |xxxxxxxxxxxxx |       0.9999 |       0.9999 |       0.9999 |
bpred_bimod.bpred_jr_non_ras_rate.PP       <error: |      <error: |      <error: |xxxxxxxxxxxxx |xxxxxxxxxxxxx |xxxxxxxxxxxxx |xxxxxxxxxxxxx |      <error: |      <error: |      <error: |xxxxxxxxxxxxx |xxxxxxxxxxxxx |xxxxxxxxxxxxx |xxxxxxxxxxxxx |      <error: |      <error: |      <error: |xxxxxxxxxxxxx |xxxxxxxxxxxxx |xxxxxxxxxxxxx |xxxxxxxxxxxxx |      <error: |      <error: |      <error: |xxxxxxxxxxxxx |xxxxxxxxxxxxx |xxxxxxxxxxxxx |xxxxxxxxxxxxx |      <error: |      <error: |      <error: |xxxxxxxxxxxxx |xxxxxxxxxxxxx |xxxxxxxxxxxxx |xxxxxxxxxxxxx |      <error: |      <error: |      <error: |xxxxxxxxxxxxx |xxxxxxxxxxxxx |xxxxxxxxxxxxx |xxxxxxxxxxxxx |      <error: |      <error: |      <error: |xxxxxxxxxxxxx |xxxxxxxxxxxxx |xxxxxxxxxxxxx |xxxxxxxxxxxxx |       0.0000 |       0.0000 |       0.0000 |xxxxxxxxxxxxx |xxxxxxxxxxxxx |xxxxxxxxxxxxx |xxxxxxxxxxxxx |       0.0000 |       0.0000 |       0.0000 |xxxxxxxxxxxxx |xxxxxxxxxxxxx |xxxxxxxxxxxxx |xxxxxxxxxxxxx |       0.0000 |       0.0000 |       0.0000 |xxxxxxxxxxxxx |xxxxxxxxxxxxx |xxxxxxxxxxxxx |xxxxxxxxxxxxx |       0.0000 |       0.0000 |       0.0000 |
bpred_bimod.retstack_pushes                     82 |           82 |           82 |xxxxxxxxxxxxx |xxxxxxxxxxxxx |xxxxxxxxxxxxx |xxxxxxxxxxxxx |           90 |           90 |           90 |xxxxxxxxxxxxx |xxxxxxxxxxxxx |xxxxxxxxxxxxx |xxxxxxxxxxxxx |          106 |          106 |          106 |xxxxxxxxxxxxx |xxxxxxxxxxxxx |xxxxxxxxxxxxx |xxxxxxxxxxxxx |          138 |          138 |          138 |xxxxxxxxxxxxx |xxxxxxxxxxxxx |xxxxxxxxxxxxx |xxxxxxxxxxxxx |          202 |          202 |          202 |xxxxxxxxxxxxx |xxxxxxxxxxxxx |xxxxxxxxxxxxx |xxxxxxxxxxxxx |          330 |          330 |          330 |xxxxxxxxxxxxx |xxxxxxxxxxxxx |xxxxxxxxxxxxx |xxxxxxxxxxxxx |          586 |          586 |          586 |xxxxxxxxxxxxx |xxxxxxxxxxxxx |xxxxxxxxxxxxx |xxxxxxxxxxxxx |         1102 |         1102 |         1102 |xxxxxxxxxxxxx |xxxxxxxxxxxxx |xxxxxxxxxxxxx |xxxxxxxxxxxxx |         2128 |         2128 |         2128 |xxxxxxxxxxxxx |xxxxxxxxxxxxx |xxxxxxxxxxxxx |xxxxxxxxxxxxx |         4180 |         4180 |         4180 |xxxxxxxxxxxxx |xxxxxxxxxxxxx |xxxxxxxxxxxxx |xxxxxxxxxxxxx |         8284 |         8284 |         8284 |
bpred_bimod.retstack_pops                       80 |           80 |           80 |xxxxxxxxxxxxx |xxxxxxxxxxxxx |xxxxxxxxxxxxx |xxxxxxxxxxxxx |           88 |           88 |           88 |xxxxxxxxxxxxx |xxxxxxxxxxxxx |xxxxxxxxxxxxx |xxxxxxxxxxxxx |          104 |          104 |          104 |xxxxxxxxxxxxx |xxxxxxxxxxxxx |xxxxxxxxxxxxx |xxxxxxxxxxxxx |          136 |          136 |          136 |xxxxxxxxxxxxx |xxxxxxxxxxxxx |xxxxxxxxxxxxx |xxxxxxxxxxxxx |          200 |          200 |          200 |xxxxxxxxxxxxx |xxxxxxxxxxxxx |xxxxxxxxxxxxx |xxxxxxxxxxxxx |          328 |          328 |          328 |xxxxxxxxxxxxx |xxxxxxxxxxxxx |xxxxxxxxxxxxx |xxxxxxxxxxxxx |          584 |          584 |          584 |xxxxxxxxxxxxx |xxxxxxxxxxxxx |xxxxxxxxxxxxx |xxxxxxxxxxxxx |         1100 |         1100 |         1100 |xxxxxxxxxxxxx |xxxxxxxxxxxxx |xxxxxxxxxxxxx |xxxxxxxxxxxxx |         2126 |         2126 |         2126 |xxxxxxxxxxxxx |xxxxxxxxxxxxx |xxxxxxxxxxxxx |xxxxxxxxxxxxx |         4178 |         4178 |         4178 |xxxxxxxxxxxxx |xxxxxxxxxxxxx |xxxxxxxxxxxxx |xxxxxxxxxxxxx |         8282 |         8282 |         8282 |
bpred_bimod.used_ras.PP                         80 |           80 |           80 |xxxxxxxxxxxxx |xxxxxxxxxxxxx |xxxxxxxxxxxxx |xxxxxxxxxxxxx |           88 |           88 |           88 |xxxxxxxxxxxxx |xxxxxxxxxxxxx |xxxxxxxxxxxxx |xxxxxxxxxxxxx |          104 |          104 |          104 |xxxxxxxxxxxxx |xxxxxxxxxxxxx |xxxxxxxxxxxxx |xxxxxxxxxxxxx |          136 |          136 |          136 |xxxxxxxxxxxxx |xxxxxxxxxxxxx |xxxxxxxxxxxxx |xxxxxxxxxxxxx |          200 |          200 |          200 |xxxxxxxxxxxxx |xxxxxxxxxxxxx |xxxxxxxxxxxxx |xxxxxxxxxxxxx |          328 |          328 |          328 |xxxxxxxxxxxxx |xxxxxxxxxxxxx |xxxxxxxxxxxxx |xxxxxxxxxxxxx |          584 |          584 |          584 |xxxxxxxxxxxxx |xxxxxxxxxxxxx |xxxxxxxxxxxxx |xxxxxxxxxxxxx |         1100 |         1100 |         1100 |xxxxxxxxxxxxx |xxxxxxxxxxxxx |xxxxxxxxxxxxx |xxxxxxxxxxxxx |         2126 |         2126 |         2126 |xxxxxxxxxxxxx |xxxxxxxxxxxxx |xxxxxxxxxxxxx |xxxxxxxxxxxxx |         4178 |         4178 |         4178 |xxxxxxxxxxxxx |xxxxxxxxxxxxx |xxxxxxxxxxxxx |xxxxxxxxxxxxx |         8282 |         8282 |         8282 |
bpred_bimod.ras_hits.PP                         79 |           79 |           79 |xxxxxxxxxxxxx |xxxxxxxxxxxxx |xxxxxxxxxxxxx |xxxxxxxxxxxxx |           87 |           87 |           87 |xxxxxxxxxxxxx |xxxxxxxxxxxxx |xxxxxxxxxxxxx |xxxxxxxxxxxxx |          103 |          103 |          103 |xxxxxxxxxxxxx |xxxxxxxxxxxxx |xxxxxxxxxxxxx |xxxxxxxxxxxxx |          135 |          135 |          135 |xxxxxxxxxxxxx |xxxxxxxxxxxxx |xxxxxxxxxxxxx |xxxxxxxxxxxxx |          199 |          199 |          199 |xxxxxxxxxxxxx |xxxxxxxxxxxxx |xxxxxxxxxxxxx |xxxxxxxxxxxxx |          327 |          327 |          327 |xxxxxxxxxxxxx |xxxxxxxxxxxxx |xxxxxxxxxxxxx |xxxxxxxxxxxxx |          583 |          583 |          583 |xxxxxxxxxxxxx |xxxxxxxxxxxxx |xxxxxxxxxxxxx |xxxxxxxxxxxxx |         1100 |         1100 |         1100 |xxxxxxxxxxxxx |xxxxxxxxxxxxx |xxxxxxxxxxxxx |xxxxxxxxxxxxx |         2126 |         2126 |         2126 |xxxxxxxxxxxxx |xxxxxxxxxxxxx |xxxxxxxxxxxxx |xxxxxxxxxxxxx |         4178 |         4178 |         4178 |xxxxxxxxxxxxx |xxxxxxxxxxxxx |xxxxxxxxxxxxx |xxxxxxxxxxxxx |         8282 |         8282 |         8282 |
bpred_bimod.ras_rate.PP                     0.9875 |       0.9875 |       0.9875 |xxxxxxxxxxxxx |xxxxxxxxxxxxx |xxxxxxxxxxxxx |xxxxxxxxxxxxx |       0.9886 |       0.9886 |       0.9886 |xxxxxxxxxxxxx |xxxxxxxxxxxxx |xxxxxxxxxxxxx |xxxxxxxxxxxxx |       0.9904 |       0.9904 |       0.9904 |xxxxxxxxxxxxx |xxxxxxxxxxxxx |xxxxxxxxxxxxx |xxxxxxxxxxxxx |       0.9926 |       0.9926 |       0.9926 |xxxxxxxxxxxxx |xxxxxxxxxxxxx |xxxxxxxxxxxxx |xxxxxxxxxxxxx |       0.9950 |       0.9950 |       0.9950 |xxxxxxxxxxxxx |xxxxxxxxxxxxx |xxxxxxxxxxxxx |xxxxxxxxxxxxx |       0.9970 |       0.9970 |       0.9970 |xxxxxxxxxxxxx |xxxxxxxxxxxxx |xxxxxxxxxxxxx |xxxxxxxxxxxxx |       0.9983 |       0.9983 |       0.9983 |xxxxxxxxxxxxx |xxxxxxxxxxxxx |xxxxxxxxxxxxx |xxxxxxxxxxxxx |       1.0000 |       1.0000 |       1.0000 |xxxxxxxxxxxxx |xxxxxxxxxxxxx |xxxxxxxxxxxxx |xxxxxxxxxxxxx |       1.0000 |       1.0000 |       1.0000 |xxxxxxxxxxxxx |xxxxxxxxxxxxx |xxxxxxxxxxxxx |xxxxxxxxxxxxx |       1.0000 |       1.0000 |       1.0000 |xxxxxxxxxxxxx |xxxxxxxxxxxxx |xxxxxxxxxxxxx |xxxxxxxxxxxxx |       1.0000 |       1.0000 |       1.0000 |
bpred_2lev.lookups                   xxxxxxxxxxxxx |xxxxxxxxxxxxx |xxxxxxxxxxxxx |       112987 |       112987 |       112987 |       112987 |xxxxxxxxxxxxx |xxxxxxxxxxxxx |xxxxxxxxxxxxx |       235885 |       235885 |       235885 |       235885 |xxxxxxxxxxxxx |xxxxxxxxxxxxx |xxxxxxxxxxxxx |       514995 |       514995 |       514995 |       514995 |xxxxxxxxxxxxx |xxxxxxxxxxxxx |xxxxxxxxxxxxx |      1071295 |      1071295 |      1071295 |      1071295 |xxxxxxxxxxxxx |xxxxxxxxxxxxx |xxxxxxxxxxxxx |      2320530 |      2320530 |      2320530 |      2320530 |xxxxxxxxxxxxx |xxxxxxxxxxxxx |xxxxxxxxxxxxx |      4810744 |      4810744 |      4810744 |      4810744 |xxxxxxxxxxxxx |xxxxxxxxxxxxx |xxxxxxxxxxxxx |     10326670 |     10326670 |     10326670 |     10326670 |xxxxxxxxxxxxx |xxxxxxxxxxxxx |xxxxxxxxxxxxx |     21933433 |     21933433 |     21933433 |     21933433 |xxxxxxxxxxxxx |xxxxxxxxxxxxx |xxxxxxxxxxxxx |     46682276 |     46682276 |     46682276 |     46682276 |xxxxxxxxxxxxx |xxxxxxxxxxxxx |xxxxxxxxxxxxx |     96159063 |     96159063 |     96159063 |     96159063 |xxxxxxxxxxxxx |xxxxxxxxxxxxx |xxxxxxxxxxxxx |    203568204 |    203568204 |    203568204 |    203568204 |
[...]
bpred_2lev.used_ras.PP               xxxxxxxxxxxxx |xxxxxxxxxxxxx |xxxxxxxxxxxxx |           80 |           80 |           80 |           80 |xxxxxxxxxxxxx |xxxxxxxxxxxxx |xxxxxxxxxxxxx |           88 |           88 |           88 |           88 |xxxxxxxxxxxxx |xxxxxxxxxxxxx |xxxxxxxxxxxxx |          104 |          104 |          104 |          104 |xxxxxxxxxxxxx |xxxxxxxxxxxxx |xxxxxxxxxxxxx |          136 |          136 |          136 |          136 |xxxxxxxxxxxxx |xxxxxxxxxxxxx |xxxxxxxxxxxxx |          200 |          200 |          200 |          200 |xxxxxxxxxxxxx |xxxxxxxxxxxxx |xxxxxxxxxxxxx |          328 |          328 |          328 |          328 |xxxxxxxxxxxxx |xxxxxxxxxxxxx |xxxxxxxxxxxxx |          584 |          584 |          584 |          584 |xxxxxxxxxxxxx |xxxxxxxxxxxxx |xxxxxxxxxxxxx |         1100 |         1100 |         1100 |         1100 |xxxxxxxxxxxxx |xxxxxxxxxxxxx |xxxxxxxxxxxxx |         2126 |         2126 |         2126 |         2126 |xxxxxxxxxxxxx |xxxxxxxxxxxxx |xxxxxxxxxxxxx |         4178 |         4178 |         4178 |         4178 |xxxxxxxxxxxxx |xxxxxxxxxxxxx |xxxxxxxxxxxxx |         8282 |         8282 |         8282 |         8282 |
bpred_2lev.ras_hits.PP               xxxxxxxxxxxxx |xxxxxxxxxxxxx |xxxxxxxxxxxxx |           79 |           79 |           79 |           79 |xxxxxxxxxxxxx |xxxxxxxxxxxxx |xxxxxxxxxxxxx |           87 |           87 |           87 |           87 |xxxxxxxxxxxxx |xxxxxxxxxxxxx |xxxxxxxxxxxxx |          103 |          103 |          103 |          103 |xxxxxxxxxxxxx |xxxxxxxxxxxxx |xxxxxxxxxxxxx |          135 |          135 |          135 |          135 |xxxxxxxxxxxxx |xxxxxxxxxxxxx |xxxxxxxxxxxxx |          199 |          199 |          199 |          199 |xxxxxxxxxxxxx |xxxxxxxxxxxxx |xxxxxxxxxxxxx |          327 |          327 |          327 |          327 |xxxxxxxxxxxxx |xxxxxxxxxxxxx |xxxxxxxxxxxxx |          583 |          583 |          583 |          583 |xxxxxxxxxxxxx |xxxxxxxxxxxxx |xxxxxxxxxxxxx |         1100 |         1100 |         1100 |         1100 |xxxxxxxxxxxxx |xxxxxxxxxxxxx |xxxxxxxxxxxxx |         2126 |         2126 |         2126 |         2126 |xxxxxxxxxxxxx |xxxxxxxxxxxxx |xxxxxxxxxxxxx |         4178 |         4178 |         4178 |         4178 |xxxxxxxxxxxxx |xxxxxxxxxxxxx |xxxxxxxxxxxxx |         8282 |         8282 |         8282 |         8282 |
bpred_2lev.ras_rate.PP               xxxxxxxxxxxxx |xxxxxxxxxxxxx |xxxxxxxxxxxxx |       0.9875 |       0.9875 |       0.9875 |       0.9875 |xxxxxxxxxxxxx |xxxxxxxxxxxxx |xxxxxxxxxxxxx |       0.9886 |       0.9886 |       0.9886 |       0.9886 |xxxxxxxxxxxxx |xxxxxxxxxxxxx |xxxxxxxxxxxxx |       0.9904 |       0.9904 |       0.9904 |       0.9904 |xxxxxxxxxxxxx |xxxxxxxxxxxxx |xxxxxxxxxxxxx |       0.9926 |       0.9926 |       0.9926 |       0.9926 |xxxxxxxxxxxxx |xxxxxxxxxxxxx |xxxxxxxxxxxxx |       0.9950 |       0.9950 |       0.9950 |       0.9950 |xxxxxxxxxxxxx |xxxxxxxxxxxxx |xxxxxxxxxxxxx |       0.9970 |       0.9970 |       0.9970 |       0.9970 |xxxxxxxxxxxxx |xxxxxxxxxxxxx |xxxxxxxxxxxxx |       0.9983 |       0.9983 |       0.9983 |       0.9983 |xxxxxxxxxxxxx |xxxxxxxxxxxxx |xxxxxxxxxxxxx |       1.0000 |       1.0000 |       1.0000 |       1.0000 |xxxxxxxxxxxxx |xxxxxxxxxxxxx |xxxxxxxxxxxxx |       1.0000 |       1.0000 |       1.0000 |       1.0000 |xxxxxxxxxxxxx |xxxxxxxxxxxxx |xxxxxxxxxxxxx |       1.0000 |       1.0000 |       1.0000 |       1.0000 |xxxxxxxxxxxxx |xxxxxxxxxxxxx |xxxxxxxxxxxxx |       1.0000 |       1.0000 |       1.0000 |       1.0000 |

Command list: 
	sslittle-na-sstrix-gcc -Wall -O3 -funroll-loops -finline-functions  -DRANDOM_SIZE=4096 -DOFFSET=0 -DSORT=double_aligned_tiled_mergesort double_aligned_tiled_mergesort657093822.c simpleMain.c -o double_aligned_tiled_mergesort308037127
	sim-cache -cache:dl1 dl1:256:32:1:l -cache:dl2 dl2:131072:32:1:l -cache:il1 il1:256:32:1:l -cache:il2 dl2 double_aligned_tiled_mergesort308037127
	sim-cache -cache:dl1 dl1:256:32:1:l -cache:dl2 dl2:65536:32:1:l -cache:il1 il1:256:32:1:l -cache:il2 dl2 double_aligned_tiled_mergesort308037127
	sim-cache -cache:dl1 dl1:1:32:256:l -cache:dl2 dl2:1:32:131072:l -cache:il1 il1:1:32:256:l -cache:il2 dl2 double_aligned_tiled_mergesort308037127
	sim-cache -cache:dl1 dl1:1:32:256:l -cache:dl2 dl2:1:32:65536:l -cache:il1 il1:1:32:256:l -cache:il2 dl2 double_aligned_tiled_mergesort308037127
	sim-bpred -bpred bimod -bpred:bimod 512 double_aligned_tiled_mergesort308037127
	sim-bpred -bpred bimod -bpred:bimod 1024 double_aligned_tiled_mergesort308037127
	sim-bpred -bpred bimod -bpred:bimod 2048 double_aligned_tiled_mergesort308037127
	sim-bpred -bpred 2lev -bpred:2lev 1 512 10 1 double_aligned_tiled_mergesort308037127
	sim-bpred -bpred 2lev -bpred:2lev 1 1024 10 1 double_aligned_tiled_mergesort308037127
	sim-bpred -bpred 2lev -bpred:2lev 1 2048 10 1 double_aligned_tiled_mergesort308037127
	sim-bpred -bpred 2lev -bpred:2lev 1 4096 10 1 double_aligned_tiled_mergesort308037127
	sslittle-na-sstrix-gcc -Wall -O3 -funroll-loops -finline-functions  -DRANDOM_SIZE=8192 -DOFFSET=0 -DSORT=double_aligned_tiled_mergesort double_aligned_tiled_mergesort657093822.c simpleMain.c -o double_aligned_tiled_mergesort308037127
	sim-cache -cache:dl1 dl1:256:32:1:l -cache:dl2 dl2:131072:32:1:l -cache:il1 il1:256:32:1:l -cache:il2 dl2 double_aligned_tiled_mergesort308037127
	sim-cache -cache:dl1 dl1:256:32:1:l -cache:dl2 dl2:65536:32:1:l -cache:il1 il1:256:32:1:l -cache:il2 dl2 double_aligned_tiled_mergesort308037127
	sim-cache -cache:dl1 dl1:1:32:256:l -cache:dl2 dl2:1:32:131072:l -cache:il1 il1:1:32:256:l -cache:il2 dl2 double_aligned_tiled_mergesort308037127
	sim-cache -cache:dl1 dl1:1:32:256:l -cache:dl2 dl2:1:32:65536:l -cache:il1 il1:1:32:256:l -cache:il2 dl2 double_aligned_tiled_mergesort308037127
	sim-bpred -bpred bimod -bpred:bimod 512 double_aligned_tiled_mergesort308037127
	sim-bpred -bpred bimod -bpred:bimod 1024 double_aligned_tiled_mergesort308037127
	sim-bpred -bpred bimod -bpred:bimod 2048 double_aligned_tiled_mergesort308037127
	sim-bpred -bpred 2lev -bpred:2lev 1 512 10 1 double_aligned_tiled_mergesort308037127
	sim-bpred -bpred 2lev -bpred:2lev 1 1024 10 1 double_aligned_tiled_mergesort308037127
	sim-bpred -bpred 2lev -bpred:2lev 1 2048 10 1 double_aligned_tiled_mergesort308037127
	sim-bpred -bpred 2lev -bpred:2lev 1 4096 10 1 double_aligned_tiled_mergesort308037127
	sslittle-na-sstrix-gcc -Wall -O3 -funroll-loops -finline-functions  -DRANDOM_SIZE=16384 -DOFFSET=0 -DSORT=double_aligned_tiled_mergesort double_aligned_tiled_mergesort657093822.c simpleMain.c -o double_aligned_tiled_mergesort308037127
	sim-cache -cache:dl1 dl1:256:32:1:l -cache:dl2 dl2:131072:32:1:l -cache:il1 il1:256:32:1:l -cache:il2 dl2 double_aligned_tiled_mergesort308037127
	sim-cache -cache:dl1 dl1:256:32:1:l -cache:dl2 dl2:65536:32:1:l -cache:il1 il1:256:32:1:l -cache:il2 dl2 double_aligned_tiled_mergesort308037127
	sim-cache -cache:dl1 dl1:1:32:256:l -cache:dl2 dl2:1:32:131072:l -cache:il1 il1:1:32:256:l -cache:il2 dl2 double_aligned_tiled_mergesort308037127
	sim-cache -cache:dl1 dl1:1:32:256:l -cache:dl2 dl2:1:32:65536:l -cache:il1 il1:1:32:256:l -cache:il2 dl2 double_aligned_tiled_mergesort308037127
	sim-bpred -bpred bimod -bpred:bimod 512 double_aligned_tiled_mergesort308037127
	sim-bpred -bpred bimod -bpred:bimod 1024 double_aligned_tiled_mergesort308037127
	sim-bpred -bpred bimod -bpred:bimod 2048 double_aligned_tiled_mergesort308037127
	sim-bpred -bpred 2lev -bpred:2lev 1 512 10 1 double_aligned_tiled_mergesort308037127
	sim-bpred -bpred 2lev -bpred:2lev 1 1024 10 1 double_aligned_tiled_mergesort308037127
	sim-bpred -bpred 2lev -bpred:2lev 1 2048 10 1 double_aligned_tiled_mergesort308037127
	sim-bpred -bpred 2lev -bpred:2lev 1 4096 10 1 double_aligned_tiled_mergesort308037127
	sslittle-na-sstrix-gcc -Wall -O3 -funroll-loops -finline-functions  -DRANDOM_SIZE=32768 -DOFFSET=0 -DSORT=double_aligned_tiled_mergesort double_aligned_tiled_mergesort657093822.c simpleMain.c -o double_aligned_tiled_mergesort308037127
	sim-cache -cache:dl1 dl1:256:32:1:l -cache:dl2 dl2:131072:32:1:l -cache:il1 il1:256:32:1:l -cache:il2 dl2 double_aligned_tiled_mergesort308037127
	sim-cache -cache:dl1 dl1:256:32:1:l -cache:dl2 dl2:65536:32:1:l -cache:il1 il1:256:32:1:l -cache:il2 dl2 double_aligned_tiled_mergesort308037127
	sim-cache -cache:dl1 dl1:1:32:256:l -cache:dl2 dl2:1:32:131072:l -cache:il1 il1:1:32:256:l -cache:il2 dl2 double_aligned_tiled_mergesort308037127
	sim-cache -cache:dl1 dl1:1:32:256:l -cache:dl2 dl2:1:32:65536:l -cache:il1 il1:1:32:256:l -cache:il2 dl2 double_aligned_tiled_mergesort308037127
	sim-bpred -bpred bimod -bpred:bimod 512 double_aligned_tiled_mergesort308037127
	sim-bpred -bpred bimod -bpred:bimod 1024 double_aligned_tiled_mergesort308037127
	sim-bpred -bpred bimod -bpred:bimod 2048 double_aligned_tiled_mergesort308037127
	sim-bpred -bpred 2lev -bpred:2lev 1 512 10 1 double_aligned_tiled_mergesort308037127
	sim-bpred -bpred 2lev -bpred:2lev 1 1024 10 1 double_aligned_tiled_mergesort308037127
	sim-bpred -bpred 2lev -bpred:2lev 1 2048 10 1 double_aligned_tiled_mergesort308037127
	sim-bpred -bpred 2lev -bpred:2lev 1 4096 10 1 double_aligned_tiled_mergesort308037127
	sslittle-na-sstrix-gcc -Wall -O3 -funroll-loops -finline-functions  -DRANDOM_SIZE=65536 -DOFFSET=0 -DSORT=double_aligned_tiled_mergesort double_aligned_tiled_mergesort657093822.c simpleMain.c -o double_aligned_tiled_mergesort308037127
	sim-cache -cache:dl1 dl1:256:32:1:l -cache:dl2 dl2:131072:32:1:l -cache:il1 il1:256:32:1:l -cache:il2 dl2 double_aligned_tiled_mergesort308037127
	sim-cache -cache:dl1 dl1:256:32:1:l -cache:dl2 dl2:65536:32:1:l -cache:il1 il1:256:32:1:l -cache:il2 dl2 double_aligned_tiled_mergesort308037127
	sim-cache -cache:dl1 dl1:1:32:256:l -cache:dl2 dl2:1:32:131072:l -cache:il1 il1:1:32:256:l -cache:il2 dl2 double_aligned_tiled_mergesort308037127
	sim-cache -cache:dl1 dl1:1:32:256:l -cache:dl2 dl2:1:32:65536:l -cache:il1 il1:1:32:256:l -cache:il2 dl2 double_aligned_tiled_mergesort308037127
	sim-bpred -bpred bimod -bpred:bimod 512 double_aligned_tiled_mergesort308037127
	sim-bpred -bpred bimod -bpred:bimod 1024 double_aligned_tiled_mergesort308037127
	sim-bpred -bpred bimod -bpred:bimod 2048 double_aligned_tiled_mergesort308037127
	sim-bpred -bpred 2lev -bpred:2lev 1 512 10 1 double_aligned_tiled_mergesort308037127
	sim-bpred -bpred 2lev -bpred:2lev 1 1024 10 1 double_aligned_tiled_mergesort308037127
	sim-bpred -bpred 2lev -bpred:2lev 1 2048 10 1 double_aligned_tiled_mergesort308037127
	sim-bpred -bpred 2lev -bpred:2lev 1 4096 10 1 double_aligned_tiled_mergesort308037127
	sslittle-na-sstrix-gcc -Wall -O3 -funroll-loops -finline-functions  -DRANDOM_SIZE=131072 -DOFFSET=0 -DSORT=double_aligned_tiled_mergesort double_aligned_tiled_mergesort657093822.c simpleMain.c -o double_aligned_tiled_mergesort308037127
	sim-cache -cache:dl1 dl1:256:32:1:l -cache:dl2 dl2:131072:32:1:l -cache:il1 il1:256:32:1:l -cache:il2 dl2 double_aligned_tiled_mergesort308037127
	sim-cache -cache:dl1 dl1:256:32:1:l -cache:dl2 dl2:65536:32:1:l -cache:il1 il1:256:32:1:l -cache:il2 dl2 double_aligned_tiled_mergesort308037127
	sim-cache -cache:dl1 dl1:1:32:256:l -cache:dl2 dl2:1:32:131072:l -cache:il1 il1:1:32:256:l -cache:il2 dl2 double_aligned_tiled_mergesort308037127
	sim-cache -cache:dl1 dl1:1:32:256:l -cache:dl2 dl2:1:32:65536:l -cache:il1 il1:1:32:256:l -cache:il2 dl2 double_aligned_tiled_mergesort308037127
	sim-bpred -bpred bimod -bpred:bimod 512 double_aligned_tiled_mergesort308037127
	sim-bpred -bpred bimod -bpred:bimod 1024 double_aligned_tiled_mergesort308037127
	sim-bpred -bpred bimod -bpred:bimod 2048 double_aligned_tiled_mergesort308037127
	sim-bpred -bpred 2lev -bpred:2lev 1 512 10 1 double_aligned_tiled_mergesort308037127
	sim-bpred -bpred 2lev -bpred:2lev 1 1024 10 1 double_aligned_tiled_mergesort308037127
	sim-bpred -bpred 2lev -bpred:2lev 1 2048 10 1 double_aligned_tiled_mergesort308037127
	sim-bpred -bpred 2lev -bpred:2lev 1 4096 10 1 double_aligned_tiled_mergesort308037127
	sslittle-na-sstrix-gcc -Wall -O3 -funroll-loops -finline-functions  -DRANDOM_SIZE=262144 -DOFFSET=0 -DSORT=double_aligned_tiled_mergesort double_aligned_tiled_mergesort657093822.c simpleMain.c -o double_aligned_tiled_mergesort308037127
	sim-cache -cache:dl1 dl1:256:32:1:l -cache:dl2 dl2:131072:32:1:l -cache:il1 il1:256:32:1:l -cache:il2 dl2 double_aligned_tiled_mergesort308037127
	sim-cache -cache:dl1 dl1:256:32:1:l -cache:dl2 dl2:65536:32:1:l -cache:il1 il1:256:32:1:l -cache:il2 dl2 double_aligned_tiled_mergesort308037127
	sim-cache -cache:dl1 dl1:1:32:256:l -cache:dl2 dl2:1:32:131072:l -cache:il1 il1:1:32:256:l -cache:il2 dl2 double_aligned_tiled_mergesort308037127
	sim-cache -cache:dl1 dl1:1:32:256:l -cache:dl2 dl2:1:32:65536:l -cache:il1 il1:1:32:256:l -cache:il2 dl2 double_aligned_tiled_mergesort308037127
	sim-bpred -bpred bimod -bpred:bimod 512 double_aligned_tiled_mergesort308037127
	sim-bpred -bpred bimod -bpred:bimod 1024 double_aligned_tiled_mergesort308037127
	sim-bpred -bpred bimod -bpred:bimod 2048 double_aligned_tiled_mergesort308037127
	sim-bpred -bpred 2lev -bpred:2lev 1 512 10 1 double_aligned_tiled_mergesort308037127
	sim-bpred -bpred 2lev -bpred:2lev 1 1024 10 1 double_aligned_tiled_mergesort308037127
	sim-bpred -bpred 2lev -bpred:2lev 1 2048 10 1 double_aligned_tiled_mergesort308037127
	sim-bpred -bpred 2lev -bpred:2lev 1 4096 10 1 double_aligned_tiled_mergesort308037127
	sslittle-na-sstrix-gcc -Wall -O3 -funroll-loops -finline-functions  -DRANDOM_SIZE=524288 -DOFFSET=0 -DSORT=double_aligned_tiled_mergesort double_aligned_tiled_mergesort657093822.c simpleMain.c -o double_aligned_tiled_mergesort308037127
	sim-cache -cache:dl1 dl1:256:32:1:l -cache:dl2 dl2:131072:32:1:l -cache:il1 il1:256:32:1:l -cache:il2 dl2 double_aligned_tiled_mergesort308037127
	sim-cache -cache:dl1 dl1:256:32:1:l -cache:dl2 dl2:65536:32:1:l -cache:il1 il1:256:32:1:l -cache:il2 dl2 double_aligned_tiled_mergesort308037127
	sim-cache -cache:dl1 dl1:1:32:256:l -cache:dl2 dl2:1:32:131072:l -cache:il1 il1:1:32:256:l -cache:il2 dl2 double_aligned_tiled_mergesort308037127
	sim-cache -cache:dl1 dl1:1:32:256:l -cache:dl2 dl2:1:32:65536:l -cache:il1 il1:1:32:256:l -cache:il2 dl2 double_aligned_tiled_mergesort308037127
	sim-bpred -bpred bimod -bpred:bimod 512 double_aligned_tiled_mergesort308037127
	sim-bpred -bpred bimod -bpred:bimod 1024 double_aligned_tiled_mergesort308037127
	sim-bpred -bpred bimod -bpred:bimod 2048 double_aligned_tiled_mergesort308037127
	sim-bpred -bpred 2lev -bpred:2lev 1 512 10 1 double_aligned_tiled_mergesort308037127
	sim-bpred -bpred 2lev -bpred:2lev 1 1024 10 1 double_aligned_tiled_mergesort308037127
	sim-bpred -bpred 2lev -bpred:2lev 1 2048 10 1 double_aligned_tiled_mergesort308037127
	sim-bpred -bpred 2lev -bpred:2lev 1 4096 10 1 double_aligned_tiled_mergesort308037127
	sslittle-na-sstrix-gcc -Wall -O3 -funroll-loops -finline-functions  -DRANDOM_SIZE=1048576 -DOFFSET=0 -DSORT=double_aligned_tiled_mergesort double_aligned_tiled_mergesort657093822.c simpleMain.c -o double_aligned_tiled_mergesort308037127
	sim-cache -cache:dl1 dl1:256:32:1:l -cache:dl2 dl2:131072:32:1:l -cache:il1 il1:256:32:1:l -cache:il2 dl2 double_aligned_tiled_mergesort308037127
	sim-cache -cache:dl1 dl1:256:32:1:l -cache:dl2 dl2:65536:32:1:l -cache:il1 il1:256:32:1:l -cache:il2 dl2 double_aligned_tiled_mergesort308037127
	sim-cache -cache:dl1 dl1:1:32:256:l -cache:dl2 dl2:1:32:131072:l -cache:il1 il1:1:32:256:l -cache:il2 dl2 double_aligned_tiled_mergesort308037127
	sim-cache -cache:dl1 dl1:1:32:256:l -cache:dl2 dl2:1:32:65536:l -cache:il1 il1:1:32:256:l -cache:il2 dl2 double_aligned_tiled_mergesort308037127
	sim-bpred -bpred bimod -bpred:bimod 512 double_aligned_tiled_mergesort308037127
	sim-bpred -bpred bimod -bpred:bimod 1024 double_aligned_tiled_mergesort308037127
	sim-bpred -bpred bimod -bpred:bimod 2048 double_aligned_tiled_mergesort308037127
	sim-bpred -bpred 2lev -bpred:2lev 1 512 10 1 double_aligned_tiled_mergesort308037127
	sim-bpred -bpred 2lev -bpred:2lev 1 1024 10 1 double_aligned_tiled_mergesort308037127
	sim-bpred -bpred 2lev -bpred:2lev 1 2048 10 1 double_aligned_tiled_mergesort308037127
	sim-bpred -bpred 2lev -bpred:2lev 1 4096 10 1 double_aligned_tiled_mergesort308037127
	sslittle-na-sstrix-gcc -Wall -O3 -funroll-loops -finline-functions  -DRANDOM_SIZE=2097152 -DOFFSET=0 -DSORT=double_aligned_tiled_mergesort double_aligned_tiled_mergesort657093822.c simpleMain.c -o double_aligned_tiled_mergesort308037127
	sim-cache -cache:dl1 dl1:256:32:1:l -cache:dl2 dl2:131072:32:1:l -cache:il1 il1:256:32:1:l -cache:il2 dl2 double_aligned_tiled_mergesort308037127
	sim-cache -cache:dl1 dl1:256:32:1:l -cache:dl2 dl2:65536:32:1:l -cache:il1 il1:256:32:1:l -cache:il2 dl2 double_aligned_tiled_mergesort308037127
	sim-cache -cache:dl1 dl1:1:32:256:l -cache:dl2 dl2:1:32:131072:l -cache:il1 il1:1:32:256:l -cache:il2 dl2 double_aligned_tiled_mergesort308037127
	sim-cache -cache:dl1 dl1:1:32:256:l -cache:dl2 dl2:1:32:65536:l -cache:il1 il1:1:32:256:l -cache:il2 dl2 double_aligned_tiled_mergesort308037127
	sim-bpred -bpred bimod -bpred:bimod 512 double_aligned_tiled_mergesort308037127
	sim-bpred -bpred bimod -bpred:bimod 1024 double_aligned_tiled_mergesort308037127
	sim-bpred -bpred bimod -bpred:bimod 2048 double_aligned_tiled_mergesort308037127
	sim-bpred -bpred 2lev -bpred:2lev 1 512 10 1 double_aligned_tiled_mergesort308037127
	sim-bpred -bpred 2lev -bpred:2lev 1 1024 10 1 double_aligned_tiled_mergesort308037127
	sim-bpred -bpred 2lev -bpred:2lev 1 2048 10 1 double_aligned_tiled_mergesort308037127
	sim-bpred -bpred 2lev -bpred:2lev 1 4096 10 1 double_aligned_tiled_mergesort308037127
	sslittle-na-sstrix-gcc -Wall -O3 -funroll-loops -finline-functions  -DRANDOM_SIZE=4194304 -DOFFSET=0 -DSORT=double_aligned_tiled_mergesort double_aligned_tiled_mergesort657093822.c simpleMain.c -o double_aligned_tiled_mergesort308037127
	sim-cache -cache:dl1 dl1:256:32:1:l -cache:dl2 dl2:131072:32:1:l -cache:il1 il1:256:32:1:l -cache:il2 dl2 double_aligned_tiled_mergesort308037127
	sim-cache -cache:dl1 dl1:256:32:1:l -cache:dl2 dl2:65536:32:1:l -cache:il1 il1:256:32:1:l -cache:il2 dl2 double_aligned_tiled_mergesort308037127
	sim-cache -cache:dl1 dl1:1:32:256:l -cache:dl2 dl2:1:32:131072:l -cache:il1 il1:1:32:256:l -cache:il2 dl2 double_aligned_tiled_mergesort308037127
	sim-cache -cache:dl1 dl1:1:32:256:l -cache:dl2 dl2:1:32:65536:l -cache:il1 il1:1:32:256:l -cache:il2 dl2 double_aligned_tiled_mergesort308037127
	sim-bpred -bpred bimod -bpred:bimod 512 double_aligned_tiled_mergesort308037127
	sim-bpred -bpred bimod -bpred:bimod 1024 double_aligned_tiled_mergesort308037127
	sim-bpred -bpred bimod -bpred:bimod 2048 double_aligned_tiled_mergesort308037127
	sim-bpred -bpred 2lev -bpred:2lev 1 512 10 1 double_aligned_tiled_mergesort308037127
	sim-bpred -bpred 2lev -bpred:2lev 1 1024 10 1 double_aligned_tiled_mergesort308037127
	sim-bpred -bpred 2lev -bpred:2lev 1 2048 10 1 double_aligned_tiled_mergesort308037127
	sim-bpred -bpred 2lev -bpred:2lev 1 4096 10 1 double_aligned_tiled_mergesort308037127
