Tue Jul 12 20:39:04 2005
Run as: "./do_simple -c random.org5 -o 5 double_aligned_mergesort"
-------------------------------------------------------------------------------------------------
sim-cache                                     4096 |         4096 |         4096 |         4096 |         8192 |         8192 |         8192 |         8192 |        16384 |        16384 |        16384 |        16384 |        32768 |        32768 |        32768 |        32768 |        65536 |        65536 |        65536 |        65536 |       131072 |       131072 |       131072 |       131072 |       262144 |       262144 |       262144 |       262144 |       524288 |       524288 |       524288 |       524288 |      1048576 |      1048576 |      1048576 |      1048576 |      2097152 |      2097152 |      2097152 |      2097152 |      4194304 |      4194304 |      4194304 |      4194304 |
-cache:dl1 dl1:256:32:1:l -cache:dl2 dl2:131072:32:1:l -cache:il1 il1:256:32:1:l -cache:il2 dl2
-cache:dl1 dl1:256:32:1:l -cache:dl2 dl2:65536:32:1:l -cache:il1 il1:256:32:1:l -cache:il2 dl2
-cache:dl1 dl1:1:32:256:l -cache:dl2 dl2:1:32:131072:l -cache:il1 il1:1:32:256:l -cache:il2 dl2
-cache:dl1 dl1:1:32:256:l -cache:dl2 dl2:1:32:65536:l -cache:il1 il1:1:32:256:l -cache:il2 dl2
-------------------------------------------------------------------------------------------------
sim_num_insn                                857138 |       857138 |       857138 |       857138 |      1746612 |      1746612 |      1746612 |      1746612 |      3956811 |      3956811 |      3956811 |      3956811 |      8063588 |      8063588 |      8063588 |      8063588 |     17983398 |     17983398 |     17983398 |     17983398 |     36564951 |     36564951 |     36564951 |     36564951 |     80568316 |     80568316 |     80568316 |     80568316 |    168427095 |    168427095 |    168427095 |    168427095 |    366534999 |    366534999 |    366534999 |    366534999 |    742891962 |    742891962 |    742891962 |    742891962 |   1604741899 |   1604741899 |   1604741899 |   1604741899 |
sim_num_refs                                228394 |       228394 |       228394 |       228394 |       471173 |       471173 |       471173 |       471173 |      1050974 |      1050974 |      1050974 |      1050974 |      2171172 |      2171172 |      2171172 |      2171172 |      4784866 |      4784866 |      4784866 |      4784866 |      9853602 |      9853602 |      9853602 |      9853602 |     21487756 |     21487756 |     21487756 |     21487756 |     45707013 |     45707013 |     45707013 |     45707013 |     98521924 |     98521924 |     98521924 |     98521924 |    201669514 |    201669514 |    201669514 |    201669514 |    431849022 |    431849022 |    431849022 |    431849022 |
sim_elapsed_time                                 1 |            1 |           11 |            5 |            1 |            1 |           16 |            9 |            1 |            1 |           28 |           14 |            2 |            2 |           50 |           26 |            5 |            5 |           95 |           47 |           10 |           10 |          174 |           80 |           23 |           23 |          294 |          114 |           48 |           47 |          421 |          139 |          103 |          103 |          466 |          203 |          209 |          206 |          588 |          321 |          485 |          433 |          828 |          576 |
sim_inst_rate                          857138.0000 |  857138.0000 |   77921.6364 |  171427.6000 | 1746612.0000 | 1746612.0000 |  109163.2500 |  194068.0000 | 3956811.0000 | 3956811.0000 |  141314.6786 |  282629.3571 | 4031794.0000 | 4031794.0000 |  161271.7600 |  310138.0000 | 3596679.6000 | 3596679.6000 |  189298.9263 |  382625.4894 | 3656495.1000 | 3656495.1000 |  210143.3966 |  457061.8875 | 3502970.2609 | 3502970.2609 |  274041.8912 |  706739.6140 | 3508897.8125 | 3583555.2128 |  400064.3587 | 1211705.7194 | 3558592.2233 | 3558592.2233 |  786555.7918 | 1805591.1281 | 3554506.9952 | 3606271.6602 | 1263421.7041 | 2314305.1776 | 3308746.1835 | 3706101.3834 | 1938094.0809 | 2786010.2413 |
il1.accesses                                857138 |       857138 |       857138 |       857138 |      1746612 |      1746612 |      1746612 |      1746612 |      3956811 |      3956811 |      3956811 |      3956811 |      8063588 |      8063588 |      8063588 |      8063588 |     17983398 |     17983398 |     17983398 |     17983398 |     36564951 |     36564951 |     36564951 |     36564951 |     80568316 |     80568316 |     80568316 |     80568316 |    168427095 |    168427095 |    168427095 |    168427095 |    366534999 |    366534999 |    366534999 |    366534999 |    742891962 |    742891962 |    742891962 |    742891962 |   1604741899 |   1604741899 |   1604741899 |   1604741899 |
il1.hits                                    856469 |       856469 |       856564 |       856564 |      1745922 |      1745922 |      1746014 |      1746014 |      3956138 |      3956138 |      3956238 |      3956238 |      8062898 |      8062898 |      8062990 |      8062990 |     17982724 |     17982724 |     17982820 |     17982820 |     36564259 |     36564259 |     36564352 |     36564352 |     80567644 |     80567644 |     80567740 |     80567740 |    168424816 |    168424816 |    168426422 |    168426422 |    366531194 |    366531194 |    366534344 |    366534344 |    742885039 |    742885039 |    742891289 |    742891289 |   1604728830 |   1604728830 |   1604741244 |   1604741244 |
il1.misses                                     669 |          669 |          574 |          574 |          690 |          690 |          598 |          598 |          673 |          673 |          573 |          573 |          690 |          690 |          598 |          598 |          674 |          674 |          578 |          578 |          692 |          692 |          599 |          599 |          672 |          672 |          576 |          576 |         2279 |         2279 |          673 |          673 |         3805 |         3805 |          655 |          655 |         6923 |         6923 |          673 |          673 |        13069 |        13069 |          655 |          655 |
il1.replacements                               426 |          426 |          318 |          318 |          446 |          446 |          342 |          342 |          432 |          432 |          317 |          317 |          446 |          446 |          342 |          342 |          432 |          432 |          322 |          322 |          448 |          448 |          343 |          343 |          443 |          443 |          320 |          320 |         2054 |         2054 |          417 |          417 |         3582 |         3582 |          399 |          399 |         6698 |         6698 |          417 |          417 |        12846 |        12846 |          399 |          399 |
il1.writebacks                                   0 |            0 |            0 |            0 |            0 |            0 |            0 |            0 |            0 |            0 |            0 |            0 |            0 |            0 |            0 |            0 |            0 |            0 |            0 |            0 |            0 |            0 |            0 |            0 |            0 |            0 |            0 |            0 |            0 |            0 |            0 |            0 |            0 |            0 |            0 |            0 |            0 |            0 |            0 |            0 |            0 |            0 |            0 |            0 |
il1.invalidations                                0 |            0 |            0 |            0 |            0 |            0 |            0 |            0 |            0 |            0 |            0 |            0 |            0 |            0 |            0 |            0 |            0 |            0 |            0 |            0 |            0 |            0 |            0 |            0 |            0 |            0 |            0 |            0 |            0 |            0 |            0 |            0 |            0 |            0 |            0 |            0 |            0 |            0 |            0 |            0 |            0 |            0 |            0 |            0 |
il1.miss_rate                               0.0008 |       0.0008 |       0.0007 |       0.0007 |       0.0004 |       0.0004 |       0.0003 |       0.0003 |       0.0002 |       0.0002 |       0.0001 |       0.0001 |       0.0001 |       0.0001 |       0.0001 |       0.0001 |       0.0000 |       0.0000 |       0.0000 |       0.0000 |       0.0000 |       0.0000 |       0.0000 |       0.0000 |       0.0000 |       0.0000 |       0.0000 |       0.0000 |       0.0000 |       0.0000 |       0.0000 |       0.0000 |       0.0000 |       0.0000 |       0.0000 |       0.0000 |       0.0000 |       0.0000 |       0.0000 |       0.0000 |       0.0000 |       0.0000 |       0.0000 |       0.0000 |
il1.repl_rate                               0.0005 |       0.0005 |       0.0004 |       0.0004 |       0.0003 |       0.0003 |       0.0002 |       0.0002 |       0.0001 |       0.0001 |       0.0001 |       0.0001 |       0.0001 |       0.0001 |       0.0000 |       0.0000 |       0.0000 |       0.0000 |       0.0000 |       0.0000 |       0.0000 |       0.0000 |       0.0000 |       0.0000 |       0.0000 |       0.0000 |       0.0000 |       0.0000 |       0.0000 |       0.0000 |       0.0000 |       0.0000 |       0.0000 |       0.0000 |       0.0000 |       0.0000 |       0.0000 |       0.0000 |       0.0000 |       0.0000 |       0.0000 |       0.0000 |       0.0000 |       0.0000 |
il1.wb_rate                                 0.0000 |       0.0000 |       0.0000 |       0.0000 |       0.0000 |       0.0000 |       0.0000 |       0.0000 |       0.0000 |       0.0000 |       0.0000 |       0.0000 |       0.0000 |       0.0000 |       0.0000 |       0.0000 |       0.0000 |       0.0000 |       0.0000 |       0.0000 |       0.0000 |       0.0000 |       0.0000 |       0.0000 |       0.0000 |       0.0000 |       0.0000 |       0.0000 |       0.0000 |       0.0000 |       0.0000 |       0.0000 |       0.0000 |       0.0000 |       0.0000 |       0.0000 |       0.0000 |       0.0000 |       0.0000 |       0.0000 |       0.0000 |       0.0000 |       0.0000 |       0.0000 |
il1.inv_rate                                0.0000 |       0.0000 |       0.0000 |       0.0000 |       0.0000 |       0.0000 |       0.0000 |       0.0000 |       0.0000 |       0.0000 |       0.0000 |       0.0000 |       0.0000 |       0.0000 |       0.0000 |       0.0000 |       0.0000 |       0.0000 |       0.0000 |       0.0000 |       0.0000 |       0.0000 |       0.0000 |       0.0000 |       0.0000 |       0.0000 |       0.0000 |       0.0000 |       0.0000 |       0.0000 |       0.0000 |       0.0000 |       0.0000 |       0.0000 |       0.0000 |       0.0000 |       0.0000 |       0.0000 |       0.0000 |       0.0000 |       0.0000 |       0.0000 |       0.0000 |       0.0000 |
dl1.accesses                                244860 |       244860 |       244860 |       244860 |       504023 |       504023 |       504023 |       504023 |      1116592 |      1116592 |      1116592 |      1116592 |      2302326 |      2302326 |      2302326 |      2302326 |      5047092 |      5047092 |      5047092 |      5047092 |     10377972 |     10377972 |     10377972 |     10377972 |     22536414 |     22536414 |     22536414 |     22536414 |     47804247 |     47804247 |     47804247 |     47804247 |    102716310 |    102716310 |    102716310 |    102716310 |    210058204 |    210058204 |    210058204 |    210058204 |    448626320 |    448626320 |    448626320 |    448626320 |
dl1.hits                                    239442 |       239442 |       237920 |       237920 |       491460 |       491460 |       489831 |       489831 |      1087134 |      1087134 |      1082040 |      1082040 |      2235566 |      2235566 |      2230531 |      2230531 |      4894730 |      4894730 |      4877504 |      4877504 |     10038967 |     10038967 |     10026645 |     10026645 |     21784449 |     21784449 |     21728208 |     21728208 |     46020073 |     46020073 |     46006172 |     46006172 |     98849113 |     98849113 |     98697832 |     98697832 |    201760610 |    201760610 |    201821892 |    201821892 |    430837441 |    430837441 |    430457280 |    430457280 |
dl1.misses                                    5418 |         5418 |         6940 |         6940 |        12563 |        12563 |        14192 |        14192 |        29458 |        29458 |        34552 |        34552 |        66760 |        66760 |        71795 |        71795 |       152362 |       152362 |       169588 |       169588 |       339005 |       339005 |       351327 |       351327 |       751965 |       751965 |       808206 |       808206 |      1784174 |      1784174 |      1798075 |      1798075 |      3867197 |      3867197 |      4018478 |      4018478 |      8297594 |      8297594 |      8236312 |      8236312 |     17788879 |     17788879 |     18169040 |     18169040 |
dl1.replacements                              5162 |         5162 |         6684 |         6684 |        12307 |        12307 |        13936 |        13936 |        29202 |        29202 |        34296 |        34296 |        66504 |        66504 |        71539 |        71539 |       152106 |       152106 |       169332 |       169332 |       338749 |       338749 |       351071 |       351071 |       751709 |       751709 |       807950 |       807950 |      1783918 |      1783918 |      1797819 |      1797819 |      3866941 |      3866941 |      4018222 |      4018222 |      8297338 |      8297338 |      8236056 |      8236056 |     17788623 |     17788623 |     18168784 |     18168784 |
dl1.writebacks                                3510 |         3510 |         5044 |         5044 |         7761 |         7761 |         9768 |         9768 |        17465 |        17465 |        23368 |        23368 |        38797 |        38797 |        46391 |        46391 |        86092 |        86092 |       108930 |       108930 |       188860 |       188860 |       217392 |       217392 |       412524 |       412524 |       500504 |       500504 |       960651 |       960651 |      1065914 |      1065914 |      2060946 |      2060946 |      2394575 |      2394575 |      4393316 |      4393316 |      4785187 |      4785187 |      9348208 |      9348208 |     10626371 |     10626371 |
dl1.invalidations                                0 |            0 |            0 |            0 |            0 |            0 |            0 |            0 |            0 |            0 |            0 |            0 |            0 |            0 |            0 |            0 |            0 |            0 |            0 |            0 |            0 |            0 |            0 |            0 |            0 |            0 |            0 |            0 |            0 |            0 |            0 |            0 |            0 |            0 |            0 |            0 |            0 |            0 |            0 |            0 |            0 |            0 |            0 |            0 |
dl1.miss_rate                               0.0221 |       0.0221 |       0.0283 |       0.0283 |       0.0249 |       0.0249 |       0.0282 |       0.0282 |       0.0264 |       0.0264 |       0.0309 |       0.0309 |       0.0290 |       0.0290 |       0.0312 |       0.0312 |       0.0302 |       0.0302 |       0.0336 |       0.0336 |       0.0327 |       0.0327 |       0.0339 |       0.0339 |       0.0334 |       0.0334 |       0.0359 |       0.0359 |       0.0373 |       0.0373 |       0.0376 |       0.0376 |       0.0376 |       0.0376 |       0.0391 |       0.0391 |       0.0395 |       0.0395 |       0.0392 |       0.0392 |       0.0397 |       0.0397 |       0.0405 |       0.0405 |
dl1.repl_rate                               0.0211 |       0.0211 |       0.0273 |       0.0273 |       0.0244 |       0.0244 |       0.0276 |       0.0276 |       0.0262 |       0.0262 |       0.0307 |       0.0307 |       0.0289 |       0.0289 |       0.0311 |       0.0311 |       0.0301 |       0.0301 |       0.0336 |       0.0336 |       0.0326 |       0.0326 |       0.0338 |       0.0338 |       0.0334 |       0.0334 |       0.0359 |       0.0359 |       0.0373 |       0.0373 |       0.0376 |       0.0376 |       0.0376 |       0.0376 |       0.0391 |       0.0391 |       0.0395 |       0.0395 |       0.0392 |       0.0392 |       0.0397 |       0.0397 |       0.0405 |       0.0405 |
dl1.wb_rate                                 0.0143 |       0.0143 |       0.0206 |       0.0206 |       0.0154 |       0.0154 |       0.0194 |       0.0194 |       0.0156 |       0.0156 |       0.0209 |       0.0209 |       0.0169 |       0.0169 |       0.0201 |       0.0201 |       0.0171 |       0.0171 |       0.0216 |       0.0216 |       0.0182 |       0.0182 |       0.0209 |       0.0209 |       0.0183 |       0.0183 |       0.0222 |       0.0222 |       0.0201 |       0.0201 |       0.0223 |       0.0223 |       0.0201 |       0.0201 |       0.0233 |       0.0233 |       0.0209 |       0.0209 |       0.0228 |       0.0228 |       0.0208 |       0.0208 |       0.0237 |       0.0237 |
dl1.inv_rate                                0.0000 |       0.0000 |       0.0000 |       0.0000 |       0.0000 |       0.0000 |       0.0000 |       0.0000 |       0.0000 |       0.0000 |       0.0000 |       0.0000 |       0.0000 |       0.0000 |       0.0000 |       0.0000 |       0.0000 |       0.0000 |       0.0000 |       0.0000 |       0.0000 |       0.0000 |       0.0000 |       0.0000 |       0.0000 |       0.0000 |       0.0000 |       0.0000 |       0.0000 |       0.0000 |       0.0000 |       0.0000 |       0.0000 |       0.0000 |       0.0000 |       0.0000 |       0.0000 |       0.0000 |       0.0000 |       0.0000 |       0.0000 |       0.0000 |       0.0000 |       0.0000 |
dl2.accesses                                  9597 |         9597 |        12558 |        12558 |        21014 |        21014 |        24558 |        24558 |        47596 |        47596 |        58493 |        58493 |       106247 |       106247 |       118784 |       118784 |       239128 |       239128 |       279096 |       279096 |       528557 |       528557 |       569318 |       569318 |      1165161 |      1165161 |      1309286 |      1309286 |      2747104 |      2747104 |      2864662 |      2864662 |      5931948 |      5931948 |      6413708 |      6413708 |     12697833 |     12697833 |     13022172 |     13022172 |     27150156 |     27150156 |     28796066 |     28796066 |
dl2.hits                                      7620 |         7620 |        10599 |        10599 |        17993 |        17993 |        21556 |        21556 |        42548 |        42548 |        53463 |        53463 |        97082 |        97082 |       109637 |       109637 |       221787 |       221787 |       261773 |       261773 |       494815 |       494815 |       535595 |       535595 |      1098670 |      1096133 |      1242814 |      1206148 |      2505394 |      2335325 |      2697380 |      2343006 |      4947803 |      4741196 |      5232243 |      5110708 |      9815135 |      9792724 |     10135912 |      9894332 |     20293337 |     20292110 |     21976097 |     21493327 |
dl2.misses                                    1977 |         1977 |         1959 |         1959 |         3021 |         3021 |         3002 |         3002 |         5048 |         5048 |         5030 |         5030 |         9165 |         9165 |         9147 |         9147 |        17341 |        17341 |        17323 |        17323 |        33742 |        33742 |        33723 |        33723 |        66491 |        69028 |        66472 |       103138 |       241710 |       411779 |       167282 |       521656 |       984145 |      1190752 |      1181465 |      1303000 |      2882698 |      2905109 |      2886260 |      3127840 |      6856819 |      6858046 |      6819969 |      7302739 |
dl2.replacements                               165 |          165 |            0 |            0 |          184 |          184 |            0 |            0 |          166 |          166 |            0 |            0 |          184 |          184 |            0 |            0 |          168 |          168 |            0 |            0 |          184 |          184 |            0 |            0 |          167 |         3609 |            0 |        37602 |       141865 |       346243 |        36210 |       456120 |       853073 |      1125216 |      1050393 |      1237464 |      2751626 |      2839573 |      2755188 |      3062304 |      6725747 |      6792510 |      6688897 |      7237203 |
dl2.writebacks                                 114 |          114 |            0 |            0 |          131 |          131 |            0 |            0 |          114 |          114 |            0 |            0 |          131 |          131 |            0 |            0 |          115 |          115 |            0 |            0 |          131 |          131 |            0 |            0 |          114 |         2211 |            0 |        37171 |        98224 |       267285 |        35741 |       357076 |       727946 |       760001 |       722136 |       876211 |      1813554 |      1813705 |      1771483 |      2045483 |      4184483 |      4184817 |      4132322 |      4647175 |
dl2.invalidations                                0 |            0 |            0 |            0 |            0 |            0 |            0 |            0 |            0 |            0 |            0 |            0 |            0 |            0 |            0 |            0 |            0 |            0 |            0 |            0 |            0 |            0 |            0 |            0 |            0 |            0 |            0 |            0 |            0 |            0 |            0 |            0 |            0 |            0 |            0 |            0 |            0 |            0 |            0 |            0 |            0 |            0 |            0 |            0 |
dl2.miss_rate                               0.2060 |       0.2060 |       0.1560 |       0.1560 |       0.1438 |       0.1438 |       0.1222 |       0.1222 |       0.1061 |       0.1061 |       0.0860 |       0.0860 |       0.0863 |       0.0863 |       0.0770 |       0.0770 |       0.0725 |       0.0725 |       0.0621 |       0.0621 |       0.0638 |       0.0638 |       0.0592 |       0.0592 |       0.0571 |       0.0592 |       0.0508 |       0.0788 |       0.0880 |       0.1499 |       0.0584 |       0.1821 |       0.1659 |       0.2007 |       0.1842 |       0.2032 |       0.2270 |       0.2288 |       0.2216 |       0.2402 |       0.2526 |       0.2526 |       0.2368 |       0.2536 |
dl2.repl_rate                               0.0172 |       0.0172 |       0.0000 |       0.0000 |       0.0088 |       0.0088 |       0.0000 |       0.0000 |       0.0035 |       0.0035 |       0.0000 |       0.0000 |       0.0017 |       0.0017 |       0.0000 |       0.0000 |       0.0007 |       0.0007 |       0.0000 |       0.0000 |       0.0003 |       0.0003 |       0.0000 |       0.0000 |       0.0001 |       0.0031 |       0.0000 |       0.0287 |       0.0516 |       0.1260 |       0.0126 |       0.1592 |       0.1438 |       0.1897 |       0.1638 |       0.1929 |       0.2167 |       0.2236 |       0.2116 |       0.2352 |       0.2477 |       0.2502 |       0.2323 |       0.2513 |
dl2.wb_rate                                 0.0119 |       0.0119 |       0.0000 |       0.0000 |       0.0062 |       0.0062 |       0.0000 |       0.0000 |       0.0024 |       0.0024 |       0.0000 |       0.0000 |       0.0012 |       0.0012 |       0.0000 |       0.0000 |       0.0005 |       0.0005 |       0.0000 |       0.0000 |       0.0002 |       0.0002 |       0.0000 |       0.0000 |       0.0001 |       0.0019 |       0.0000 |       0.0284 |       0.0358 |       0.0973 |       0.0125 |       0.1246 |       0.1227 |       0.1281 |       0.1126 |       0.1366 |       0.1428 |       0.1428 |       0.1360 |       0.1571 |       0.1541 |       0.1541 |       0.1435 |       0.1614 |
dl2.inv_rate                                0.0000 |       0.0000 |       0.0000 |       0.0000 |       0.0000 |       0.0000 |       0.0000 |       0.0000 |       0.0000 |       0.0000 |       0.0000 |       0.0000 |       0.0000 |       0.0000 |       0.0000 |       0.0000 |       0.0000 |       0.0000 |       0.0000 |       0.0000 |       0.0000 |       0.0000 |       0.0000 |       0.0000 |       0.0000 |       0.0000 |       0.0000 |       0.0000 |       0.0000 |       0.0000 |       0.0000 |       0.0000 |       0.0000 |       0.0000 |       0.0000 |       0.0000 |       0.0000 |       0.0000 |       0.0000 |       0.0000 |       0.0000 |       0.0000 |       0.0000 |       0.0000 |
itlb.accesses                               857138 |       857138 |       857138 |       857138 |      1746612 |      1746612 |      1746612 |      1746612 |      3956811 |      3956811 |      3956811 |      3956811 |      8063588 |      8063588 |      8063588 |      8063588 |     17983398 |     17983398 |     17983398 |     17983398 |     36564951 |     36564951 |     36564951 |     36564951 |     80568316 |     80568316 |     80568316 |     80568316 |    168427095 |    168427095 |    168427095 |    168427095 |    366534999 |    366534999 |    366534999 |    366534999 |    742891962 |    742891962 |    742891962 |    742891962 |   1604741899 |   1604741899 |   1604741899 |   1604741899 |
itlb.hits                                   857126 |       857126 |       857126 |       857126 |      1746600 |      1746600 |      1746600 |      1746600 |      3956799 |      3956799 |      3956799 |      3956799 |      8063576 |      8063576 |      8063576 |      8063576 |     17983386 |     17983386 |     17983386 |     17983386 |     36564939 |     36564939 |     36564939 |     36564939 |     80568304 |     80568304 |     80568304 |     80568304 |    168427083 |    168427083 |    168427083 |    168427083 |    366534987 |    366534987 |    366534987 |    366534987 |    742891950 |    742891950 |    742891950 |    742891950 |   1604741887 |   1604741887 |   1604741887 |   1604741887 |
itlb.misses                                     12 |           12 |           12 |           12 |           12 |           12 |           12 |           12 |           12 |           12 |           12 |           12 |           12 |           12 |           12 |           12 |           12 |           12 |           12 |           12 |           12 |           12 |           12 |           12 |           12 |           12 |           12 |           12 |           12 |           12 |           12 |           12 |           12 |           12 |           12 |           12 |           12 |           12 |           12 |           12 |           12 |           12 |           12 |           12 |
itlb.replacements                                0 |            0 |            0 |            0 |            0 |            0 |            0 |            0 |            0 |            0 |            0 |            0 |            0 |            0 |            0 |            0 |            0 |            0 |            0 |            0 |            0 |            0 |            0 |            0 |            0 |            0 |            0 |            0 |            0 |            0 |            0 |            0 |            0 |            0 |            0 |            0 |            0 |            0 |            0 |            0 |            0 |            0 |            0 |            0 |
itlb.writebacks                                  0 |            0 |            0 |            0 |            0 |            0 |            0 |            0 |            0 |            0 |            0 |            0 |            0 |            0 |            0 |            0 |            0 |            0 |            0 |            0 |            0 |            0 |            0 |            0 |            0 |            0 |            0 |            0 |            0 |            0 |            0 |            0 |            0 |            0 |            0 |            0 |            0 |            0 |            0 |            0 |            0 |            0 |            0 |            0 |
itlb.invalidations                               0 |            0 |            0 |            0 |            0 |            0 |            0 |            0 |            0 |            0 |            0 |            0 |            0 |            0 |            0 |            0 |            0 |            0 |            0 |            0 |            0 |            0 |            0 |            0 |            0 |            0 |            0 |            0 |            0 |            0 |            0 |            0 |            0 |            0 |            0 |            0 |            0 |            0 |            0 |            0 |            0 |            0 |            0 |            0 |
itlb.miss_rate                              0.0000 |       0.0000 |       0.0000 |       0.0000 |       0.0000 |       0.0000 |       0.0000 |       0.0000 |       0.0000 |       0.0000 |       0.0000 |       0.0000 |       0.0000 |       0.0000 |       0.0000 |       0.0000 |       0.0000 |       0.0000 |       0.0000 |       0.0000 |       0.0000 |       0.0000 |       0.0000 |       0.0000 |       0.0000 |       0.0000 |       0.0000 |       0.0000 |       0.0000 |       0.0000 |       0.0000 |       0.0000 |       0.0000 |       0.0000 |       0.0000 |       0.0000 |       0.0000 |       0.0000 |       0.0000 |       0.0000 |       0.0000 |       0.0000 |       0.0000 |       0.0000 |
itlb.repl_rate                              0.0000 |       0.0000 |       0.0000 |       0.0000 |       0.0000 |       0.0000 |       0.0000 |       0.0000 |       0.0000 |       0.0000 |       0.0000 |       0.0000 |       0.0000 |       0.0000 |       0.0000 |       0.0000 |       0.0000 |       0.0000 |       0.0000 |       0.0000 |       0.0000 |       0.0000 |       0.0000 |       0.0000 |       0.0000 |       0.0000 |       0.0000 |       0.0000 |       0.0000 |       0.0000 |       0.0000 |       0.0000 |       0.0000 |       0.0000 |       0.0000 |       0.0000 |       0.0000 |       0.0000 |       0.0000 |       0.0000 |       0.0000 |       0.0000 |       0.0000 |       0.0000 |
itlb.wb_rate                                0.0000 |       0.0000 |       0.0000 |       0.0000 |       0.0000 |       0.0000 |       0.0000 |       0.0000 |       0.0000 |       0.0000 |       0.0000 |       0.0000 |       0.0000 |       0.0000 |       0.0000 |       0.0000 |       0.0000 |       0.0000 |       0.0000 |       0.0000 |       0.0000 |       0.0000 |       0.0000 |       0.0000 |       0.0000 |       0.0000 |       0.0000 |       0.0000 |       0.0000 |       0.0000 |       0.0000 |       0.0000 |       0.0000 |       0.0000 |       0.0000 |       0.0000 |       0.0000 |       0.0000 |       0.0000 |       0.0000 |       0.0000 |       0.0000 |       0.0000 |       0.0000 |
itlb.inv_rate                               0.0000 |       0.0000 |       0.0000 |       0.0000 |       0.0000 |       0.0000 |       0.0000 |       0.0000 |       0.0000 |       0.0000 |       0.0000 |       0.0000 |       0.0000 |       0.0000 |       0.0000 |       0.0000 |       0.0000 |       0.0000 |       0.0000 |       0.0000 |       0.0000 |       0.0000 |       0.0000 |       0.0000 |       0.0000 |       0.0000 |       0.0000 |       0.0000 |       0.0000 |       0.0000 |       0.0000 |       0.0000 |       0.0000 |       0.0000 |       0.0000 |       0.0000 |       0.0000 |       0.0000 |       0.0000 |       0.0000 |       0.0000 |       0.0000 |       0.0000 |       0.0000 |
dtlb.accesses                               244860 |       244860 |       244860 |       244860 |       504023 |       504023 |       504023 |       504023 |      1116592 |      1116592 |      1116592 |      1116592 |      2302326 |      2302326 |      2302326 |      2302326 |      5047092 |      5047092 |      5047092 |      5047092 |     10377972 |     10377972 |     10377972 |     10377972 |     22536414 |     22536414 |     22536414 |     22536414 |     47804247 |     47804247 |     47804247 |     47804247 |    102716310 |    102716310 |    102716310 |    102716310 |    210058204 |    210058204 |    210058204 |    210058204 |    448626320 |    448626320 |    448626320 |    448626320 |
dtlb.hits                                   244844 |       244844 |       244844 |       244844 |       503999 |       503999 |       503999 |       503999 |      1116552 |      1116552 |      1116552 |      1116552 |      2302254 |      2302254 |      2302254 |      2302254 |      5046890 |      5046890 |      5046890 |      5046890 |     10375546 |     10375546 |     10375546 |     10375546 |     22531000 |     22531000 |     22531000 |     22531000 |     47791498 |     47791498 |     47791498 |     47791498 |    102688778 |    102688778 |    102688778 |    102688778 |    209999058 |    209999058 |    209999058 |    209999058 |    448499838 |    448499838 |    448499838 |    448499838 |
dtlb.misses                                     16 |           16 |           16 |           16 |           24 |           24 |           24 |           24 |           40 |           40 |           40 |           40 |           72 |           72 |           72 |           72 |          202 |          202 |          202 |          202 |         2426 |         2426 |         2426 |         2426 |         5414 |         5414 |         5414 |         5414 |        12749 |        12749 |        12749 |        12749 |        27532 |        27532 |        27532 |        27532 |        59146 |        59146 |        59146 |        59146 |       126482 |       126482 |       126482 |       126482 |
dtlb.replacements                                0 |            0 |            0 |            0 |            0 |            0 |            0 |            0 |            0 |            0 |            0 |            0 |            0 |            0 |            0 |            0 |           74 |           74 |           74 |           74 |         2298 |         2298 |         2298 |         2298 |         5286 |         5286 |         5286 |         5286 |        12621 |        12621 |        12621 |        12621 |        27404 |        27404 |        27404 |        27404 |        59018 |        59018 |        59018 |        59018 |       126354 |       126354 |       126354 |       126354 |
dtlb.writebacks                                  0 |            0 |            0 |            0 |            0 |            0 |            0 |            0 |            0 |            0 |            0 |            0 |            0 |            0 |            0 |            0 |           50 |           50 |           50 |           50 |         1335 |         1335 |         1335 |         1335 |         3030 |         3030 |         3030 |         3030 |         7085 |         7085 |         7085 |         7085 |        15249 |        15249 |        15249 |        15249 |        32598 |        32598 |        32598 |        32598 |        69359 |        69359 |        69359 |        69359 |
dtlb.invalidations                               0 |            0 |            0 |            0 |            0 |            0 |            0 |            0 |            0 |            0 |            0 |            0 |            0 |            0 |            0 |            0 |            0 |            0 |            0 |            0 |            0 |            0 |            0 |            0 |            0 |            0 |            0 |            0 |            0 |            0 |            0 |            0 |            0 |            0 |            0 |            0 |            0 |            0 |            0 |            0 |            0 |            0 |            0 |            0 |
dtlb.miss_rate                              0.0001 |       0.0001 |       0.0001 |       0.0001 |       0.0000 |       0.0000 |       0.0000 |       0.0000 |       0.0000 |       0.0000 |       0.0000 |       0.0000 |       0.0000 |       0.0000 |       0.0000 |       0.0000 |       0.0000 |       0.0000 |       0.0000 |       0.0000 |       0.0002 |       0.0002 |       0.0002 |       0.0002 |       0.0002 |       0.0002 |       0.0002 |       0.0002 |       0.0003 |       0.0003 |       0.0003 |       0.0003 |       0.0003 |       0.0003 |       0.0003 |       0.0003 |       0.0003 |       0.0003 |       0.0003 |       0.0003 |       0.0003 |       0.0003 |       0.0003 |       0.0003 |
dtlb.repl_rate                              0.0000 |       0.0000 |       0.0000 |       0.0000 |       0.0000 |       0.0000 |       0.0000 |       0.0000 |       0.0000 |       0.0000 |       0.0000 |       0.0000 |       0.0000 |       0.0000 |       0.0000 |       0.0000 |       0.0000 |       0.0000 |       0.0000 |       0.0000 |       0.0002 |       0.0002 |       0.0002 |       0.0002 |       0.0002 |       0.0002 |       0.0002 |       0.0002 |       0.0003 |       0.0003 |       0.0003 |       0.0003 |       0.0003 |       0.0003 |       0.0003 |       0.0003 |       0.0003 |       0.0003 |       0.0003 |       0.0003 |       0.0003 |       0.0003 |       0.0003 |       0.0003 |
dtlb.wb_rate                                0.0000 |       0.0000 |       0.0000 |       0.0000 |       0.0000 |       0.0000 |       0.0000 |       0.0000 |       0.0000 |       0.0000 |       0.0000 |       0.0000 |       0.0000 |       0.0000 |       0.0000 |       0.0000 |       0.0000 |       0.0000 |       0.0000 |       0.0000 |       0.0001 |       0.0001 |       0.0001 |       0.0001 |       0.0001 |       0.0001 |       0.0001 |       0.0001 |       0.0001 |       0.0001 |       0.0001 |       0.0001 |       0.0001 |       0.0001 |       0.0001 |       0.0001 |       0.0002 |       0.0002 |       0.0002 |       0.0002 |       0.0002 |       0.0002 |       0.0002 |       0.0002 |
dtlb.inv_rate                               0.0000 |       0.0000 |       0.0000 |       0.0000 |       0.0000 |       0.0000 |       0.0000 |       0.0000 |       0.0000 |       0.0000 |       0.0000 |       0.0000 |       0.0000 |       0.0000 |       0.0000 |       0.0000 |       0.0000 |       0.0000 |       0.0000 |       0.0000 |       0.0000 |       0.0000 |       0.0000 |       0.0000 |       0.0000 |       0.0000 |       0.0000 |       0.0000 |       0.0000 |       0.0000 |       0.0000 |       0.0000 |       0.0000 |       0.0000 |       0.0000 |       0.0000 |       0.0000 |       0.0000 |       0.0000 |       0.0000 |       0.0000 |       0.0000 |       0.0000 |       0.0000 |
ld_text_base                            0x00400000 |   0x00400000 |   0x00400000 |   0x00400000 |   0x00400000 |   0x00400000 |   0x00400000 |   0x00400000 |   0x00400000 |   0x00400000 |   0x00400000 |   0x00400000 |   0x00400000 |   0x00400000 |   0x00400000 |   0x00400000 |   0x00400000 |   0x00400000 |   0x00400000 |   0x00400000 |   0x00400000 |   0x00400000 |   0x00400000 |   0x00400000 |   0x00400000 |   0x00400000 |   0x00400000 |   0x00400000 |   0x00400000 |   0x00400000 |   0x00400000 |   0x00400000 |   0x00400000 |   0x00400000 |   0x00400000 |   0x00400000 |   0x00400000 |   0x00400000 |   0x00400000 |   0x00400000 |   0x00400000 |   0x00400000 |   0x00400000 |   0x00400000 |
ld_text_size                                 87648 |        87648 |        87648 |        87648 |        87680 |        87680 |        87680 |        87680 |        87696 |        87696 |        87696 |        87696 |        87712 |        87712 |        87712 |        87712 |        87712 |        87712 |        87712 |        87712 |        87712 |        87712 |        87712 |        87712 |        87712 |        87712 |        87712 |        87712 |        87712 |        87712 |        87712 |        87712 |        87712 |        87712 |        87712 |        87712 |        87712 |        87712 |        87712 |        87712 |        87712 |        87712 |        87712 |        87712 |
ld_data_base                            0x10000000 |   0x10000000 |   0x10000000 |   0x10000000 |   0x10000000 |   0x10000000 |   0x10000000 |   0x10000000 |   0x10000000 |   0x10000000 |   0x10000000 |   0x10000000 |   0x10000000 |   0x10000000 |   0x10000000 |   0x10000000 |   0x10000000 |   0x10000000 |   0x10000000 |   0x10000000 |   0x10000000 |   0x10000000 |   0x10000000 |   0x10000000 |   0x10000000 |   0x10000000 |   0x10000000 |   0x10000000 |   0x10000000 |   0x10000000 |   0x10000000 |   0x10000000 |   0x10000000 |   0x10000000 |   0x10000000 |   0x10000000 |   0x10000000 |   0x10000000 |   0x10000000 |   0x10000000 |   0x10000000 |   0x10000000 |   0x10000000 |   0x10000000 |
ld_data_size                                  8192 |         8192 |         8192 |         8192 |         8192 |         8192 |         8192 |         8192 |         8192 |         8192 |         8192 |         8192 |         8192 |         8192 |         8192 |         8192 |         8192 |         8192 |         8192 |         8192 |         8192 |         8192 |         8192 |         8192 |         8192 |         8192 |         8192 |         8192 |         8192 |         8192 |         8192 |         8192 |         8192 |         8192 |         8192 |         8192 |         8192 |         8192 |         8192 |         8192 |         8192 |         8192 |         8192 |         8192 |
ld_stack_base                           0x7fffc000 |   0x7fffc000 |   0x7fffc000 |   0x7fffc000 |   0x7fffc000 |   0x7fffc000 |   0x7fffc000 |   0x7fffc000 |   0x7fffc000 |   0x7fffc000 |   0x7fffc000 |   0x7fffc000 |   0x7fffc000 |   0x7fffc000 |   0x7fffc000 |   0x7fffc000 |   0x7fffc000 |   0x7fffc000 |   0x7fffc000 |   0x7fffc000 |   0x7fffc000 |   0x7fffc000 |   0x7fffc000 |   0x7fffc000 |   0x7fffc000 |   0x7fffc000 |   0x7fffc000 |   0x7fffc000 |   0x7fffc000 |   0x7fffc000 |   0x7fffc000 |   0x7fffc000 |   0x7fffc000 |   0x7fffc000 |   0x7fffc000 |   0x7fffc000 |   0x7fffc000 |   0x7fffc000 |   0x7fffc000 |   0x7fffc000 |   0x7fffc000 |   0x7fffc000 |   0x7fffc000 |   0x7fffc000 |
ld_stack_size                                16384 |        16384 |        16384 |        16384 |        16384 |        16384 |        16384 |        16384 |        16384 |        16384 |        16384 |        16384 |        16384 |        16384 |        16384 |        16384 |        16384 |        16384 |        16384 |        16384 |        16384 |        16384 |        16384 |        16384 |        16384 |        16384 |        16384 |        16384 |        16384 |        16384 |        16384 |        16384 |        16384 |        16384 |        16384 |        16384 |        16384 |        16384 |        16384 |        16384 |        16384 |        16384 |        16384 |        16384 |
ld_prog_entry                           0x00400140 |   0x00400140 |   0x00400140 |   0x00400140 |   0x00400140 |   0x00400140 |   0x00400140 |   0x00400140 |   0x00400140 |   0x00400140 |   0x00400140 |   0x00400140 |   0x00400140 |   0x00400140 |   0x00400140 |   0x00400140 |   0x00400140 |   0x00400140 |   0x00400140 |   0x00400140 |   0x00400140 |   0x00400140 |   0x00400140 |   0x00400140 |   0x00400140 |   0x00400140 |   0x00400140 |   0x00400140 |   0x00400140 |   0x00400140 |   0x00400140 |   0x00400140 |   0x00400140 |   0x00400140 |   0x00400140 |   0x00400140 |   0x00400140 |   0x00400140 |   0x00400140 |   0x00400140 |   0x00400140 |   0x00400140 |   0x00400140 |   0x00400140 |
ld_environ_base                         0x7fff8000 |   0x7fff8000 |   0x7fff8000 |   0x7fff8000 |   0x7fff8000 |   0x7fff8000 |   0x7fff8000 |   0x7fff8000 |   0x7fff8000 |   0x7fff8000 |   0x7fff8000 |   0x7fff8000 |   0x7fff8000 |   0x7fff8000 |   0x7fff8000 |   0x7fff8000 |   0x7fff8000 |   0x7fff8000 |   0x7fff8000 |   0x7fff8000 |   0x7fff8000 |   0x7fff8000 |   0x7fff8000 |   0x7fff8000 |   0x7fff8000 |   0x7fff8000 |   0x7fff8000 |   0x7fff8000 |   0x7fff8000 |   0x7fff8000 |   0x7fff8000 |   0x7fff8000 |   0x7fff8000 |   0x7fff8000 |   0x7fff8000 |   0x7fff8000 |   0x7fff8000 |   0x7fff8000 |   0x7fff8000 |   0x7fff8000 |   0x7fff8000 |   0x7fff8000 |   0x7fff8000 |   0x7fff8000 |
ld_target_big_endian                             0 |            0 |            0 |            0 |            0 |            0 |            0 |            0 |            0 |            0 |            0 |            0 |            0 |            0 |            0 |            0 |            0 |            0 |            0 |            0 |            0 |            0 |            0 |            0 |            0 |            0 |            0 |            0 |            0 |            0 |            0 |            0 |            0 |            0 |            0 |            0 |            0 |            0 |            0 |            0 |            0 |            0 |            0 |            0 |
mem.page_count                                  38 |           38 |           38 |           38 |           46 |           46 |           46 |           46 |           62 |           62 |           62 |           62 |           94 |           94 |           94 |           94 |          158 |          158 |          158 |          158 |          286 |          286 |          286 |          286 |          542 |          542 |          542 |          542 |         1060 |         1060 |         1060 |         1060 |         2084 |         2084 |         2084 |         2084 |         4138 |         4138 |         4138 |         4138 |         8246 |         8246 |         8246 |         8246 |
mem.page_mem                                  152k |         152k |         152k |         152k |         184k |         184k |         184k |         184k |         248k |         248k |         248k |         248k |         376k |         376k |         376k |         376k |         632k |         632k |         632k |         632k |        1144k |        1144k |        1144k |        1144k |        2168k |        2168k |        2168k |        2168k |        4240k |        4240k |        4240k |        4240k |        8336k |        8336k |        8336k |        8336k |       16552k |       16552k |       16552k |       16552k |       32984k |       32984k |       32984k |       32984k |
mem.ptab_misses                                 38 |           38 |           38 |           38 |           46 |           46 |           46 |           46 |           62 |           62 |           62 |           62 |           94 |           94 |           94 |           94 |          158 |          158 |          158 |          158 |          286 |          286 |          286 |          286 |          542 |          542 |          542 |          542 |         1078 |         1078 |         1078 |         1078 |       110320 |       110320 |       110320 |       110320 |       114614 |       114614 |       114614 |       114614 |       125680 |       125680 |       125680 |       125680 |
mem.ptab_accesses                          4458798 |      4458798 |      4458798 |      4458798 |      8535212 |      8535212 |      8535212 |      8535212 |     18601242 |     18601242 |     18601242 |     18601242 |     37399914 |     37399914 |     37399914 |     37399914 |     82568686 |     82568686 |     82568686 |     82568686 |    167556658 |    167556658 |    167556658 |    167556658 |    367887002 |    367887002 |    367887002 |    367887002 |    769857784 |    769857784 |    769857784 |    769857784 |   1672113526 |   1672113526 |   1672113526 |   1672113526 |   3392225166 |   3392225166 |   3392225166 |   3392225166 |   7316761146 |   7316761146 |   7316761146 |   7316761146 |
mem.ptab_miss_rate                          0.0000 |       0.0000 |       0.0000 |       0.0000 |       0.0000 |       0.0000 |       0.0000 |       0.0000 |       0.0000 |       0.0000 |       0.0000 |       0.0000 |       0.0000 |       0.0000 |       0.0000 |       0.0000 |       0.0000 |       0.0000 |       0.0000 |       0.0000 |       0.0000 |       0.0000 |       0.0000 |       0.0000 |       0.0000 |       0.0000 |       0.0000 |       0.0000 |       0.0000 |       0.0000 |       0.0000 |       0.0000 |       0.0001 |       0.0001 |       0.0001 |       0.0001 |       0.0000 |       0.0000 |       0.0000 |       0.0000 |       0.0000 |       0.0000 |       0.0000 |       0.0000 |
-------------------------------------------------------------------------------------------------
sim-bpred                                     4096 |         4096 |         4096 |         4096 |         4096 |         4096 |         4096 |         8192 |         8192 |         8192 |         8192 |         8192 |         8192 |         8192 |        16384 |        16384 |        16384 |        16384 |        16384 |        16384 |        16384 |        32768 |        32768 |        32768 |        32768 |        32768 |        32768 |        32768 |        65536 |        65536 |        65536 |        65536 |        65536 |        65536 |        65536 |       131072 |       131072 |       131072 |       131072 |       131072 |       131072 |       131072 |       262144 |       262144 |       262144 |       262144 |       262144 |       262144 |       262144 |       524288 |       524288 |       524288 |       524288 |       524288 |       524288 |       524288 |      1048576 |      1048576 |      1048576 |      1048576 |      1048576 |      1048576 |      1048576 |      2097152 |      2097152 |      2097152 |      2097152 |      2097152 |      2097152 |      2097152 |      4194304 |      4194304 |      4194304 |      4194304 |      4194304 |      4194304 |      4194304 |
-bpred bimod -bpred:bimod 512
-bpred bimod -bpred:bimod 1024
-bpred bimod -bpred:bimod 2048
-bpred 2lev -bpred:2lev 1 512 10 1
-bpred 2lev -bpred:2lev 1 1024 10 1
-bpred 2lev -bpred:2lev 1 2048 10 1
-bpred 2lev -bpred:2lev 1 4096 10 1
-------------------------------------------------------------------------------------------------
sim_num_insn                                857138 |       857138 |       857138 |       857138 |       857138 |       857138 |       857138 |      1746612 |      1746612 |      1746612 |      1746612 |      1746612 |      1746612 |      1746612 |      3956811 |      3956811 |      3956811 |      3956811 |      3956811 |      3956811 |      3956811 |      8063588 |      8063588 |      8063588 |      8063588 |      8063588 |      8063588 |      8063588 |     17983398 |     17983398 |     17983398 |     17983398 |     17983398 |     17983398 |     17983398 |     36564951 |     36564951 |     36564951 |     36564951 |     36564951 |     36564951 |     36564951 |     80568316 |     80568316 |     80568316 |     80568316 |     80568316 |     80568316 |     80568316 |    168427095 |    168427095 |    168427095 |    168427095 |    168427095 |    168427095 |    168427095 |    366534999 |    366534999 |    366534999 |    366534999 |    366534999 |    366534999 |    366534999 |    742891962 |    742891962 |    742891962 |    742891962 |    742891962 |    742891962 |    742891962 |   1604741899 |   1604741899 |   1604741899 |   1604741899 |   1604741899 |   1604741899 |   1604741899 |
sim_num_refs                                228394 |       228394 |       228394 |       228394 |       228394 |       228394 |       228394 |       471173 |       471173 |       471173 |       471173 |       471173 |       471173 |       471173 |      1050974 |      1050974 |      1050974 |      1050974 |      1050974 |      1050974 |      1050974 |      2171172 |      2171172 |      2171172 |      2171172 |      2171172 |      2171172 |      2171172 |      4784866 |      4784866 |      4784866 |      4784866 |      4784866 |      4784866 |      4784866 |      9853602 |      9853602 |      9853602 |      9853602 |      9853602 |      9853602 |      9853602 |     21487756 |     21487756 |     21487756 |     21487756 |     21487756 |     21487756 |     21487756 |     45707013 |     45707013 |     45707013 |     45707013 |     45707013 |     45707013 |     45707013 |     98521924 |     98521924 |     98521924 |     98521924 |     98521924 |     98521924 |     98521924 |    201669514 |    201669514 |    201669514 |    201669514 |    201669514 |    201669514 |    201669514 |    431849022 |    431849022 |    431849022 |    431849022 |    431849022 |    431849022 |    431849022 |
sim_elapsed_time                                 1 |            1 |            1 |            1 |            1 |            1 |            1 |            1 |            1 |            1 |            1 |            1 |            1 |            1 |            1 |            1 |            1 |            1 |            1 |            1 |            1 |            1 |            1 |            1 |            1 |            1 |            1 |            1 |            2 |            2 |            2 |            3 |            2 |            2 |            2 |            5 |            4 |            4 |            5 |            4 |            5 |            4 |           10 |            9 |           10 |           10 |            9 |           10 |            9 |           20 |           20 |           20 |           20 |           20 |           20 |           21 |           43 |           44 |           43 |           43 |           43 |           44 |           43 |           89 |           89 |           88 |           90 |           89 |           89 |           89 |          185 |          199 |          195 |          183 |          184 |          197 |          182 |
sim_inst_rate                          857138.0000 |  857138.0000 |  857138.0000 |  857138.0000 |  857138.0000 |  857138.0000 |  857138.0000 | 1746612.0000 | 1746612.0000 | 1746612.0000 | 1746612.0000 | 1746612.0000 | 1746612.0000 | 1746612.0000 | 3956811.0000 | 3956811.0000 | 3956811.0000 | 3956811.0000 | 3956811.0000 | 3956811.0000 | 3956811.0000 | 8063588.0000 | 8063588.0000 | 8063588.0000 | 8063588.0000 | 8063588.0000 | 8063588.0000 | 8063588.0000 | 8991699.0000 | 8991699.0000 | 8991699.0000 | 5994466.0000 | 8991699.0000 | 8991699.0000 | 8991699.0000 | 7312990.2000 | 9141237.7500 | 9141237.7500 | 7312990.2000 | 9141237.7500 | 7312990.2000 | 9141237.7500 | 8056831.6000 | 8952035.1111 | 8056831.6000 | 8056831.6000 | 8952035.1111 | 8056831.6000 | 8952035.1111 | 8421354.7500 | 8421354.7500 | 8421354.7500 | 8421354.7500 | 8421354.7500 | 8421354.7500 | 8020337.8571 | 8524069.7442 | 8330340.8864 | 8524069.7442 | 8524069.7442 | 8524069.7442 | 8330340.8864 | 8524069.7442 | 8347100.6966 | 8347100.6966 | 8441954.1136 | 8254355.1333 | 8347100.6966 | 8347100.6966 | 8347100.6966 | 8674280.5351 | 8064029.6432 | 8229445.6359 | 8769081.4153 | 8721423.3641 | 8145897.9645 | 8817263.1813 |
sim_num_branches                            112542 |       112542 |       112542 |       112542 |       112542 |       112542 |       112542 |       235273 |       235273 |       235273 |       235273 |       235273 |       235273 |       235273 |       514382 |       514382 |       514382 |       514382 |       514382 |       514382 |       514382 |      1071883 |      1071883 |      1071883 |      1071883 |      1071883 |      1071883 |      1071883 |      2319678 |      2319678 |      2319678 |      2319678 |      2319678 |      2319678 |      2319678 |      4811330 |      4811330 |      4811330 |      4811330 |      4811330 |      4811330 |      4811330 |     10327630 |     10327630 |     10327630 |     10327630 |     10327630 |     10327630 |     10327630 |     21937305 |     21937305 |     21937305 |     21937305 |     21937305 |     21937305 |     21937305 |     46683656 |     46683656 |     46683656 |     46683656 |     46683656 |     46683656 |     46683656 |     96152116 |     96152116 |     96152116 |     96152116 |     96152116 |     96152116 |     96152116 |    203568657 |    203568657 |    203568657 |    203568657 |    203568657 |    203568657 |    203568657 |
sim_IPB                                     7.6162 |       7.6162 |       7.6162 |       7.6162 |       7.6162 |       7.6162 |       7.6162 |       7.4238 |       7.4238 |       7.4238 |       7.4238 |       7.4238 |       7.4238 |       7.4238 |       7.6924 |       7.6924 |       7.6924 |       7.6924 |       7.6924 |       7.6924 |       7.6924 |       7.5228 |       7.5228 |       7.5228 |       7.5228 |       7.5228 |       7.5228 |       7.5228 |       7.7525 |       7.7525 |       7.7525 |       7.7525 |       7.7525 |       7.7525 |       7.7525 |       7.5998 |       7.5998 |       7.5998 |       7.5998 |       7.5998 |       7.5998 |       7.5998 |       7.8012 |       7.8012 |       7.8012 |       7.8012 |       7.8012 |       7.8012 |       7.8012 |       7.6777 |       7.6777 |       7.6777 |       7.6777 |       7.6777 |       7.6777 |       7.6777 |       7.8515 |       7.8515 |       7.8515 |       7.8515 |       7.8515 |       7.8515 |       7.8515 |       7.7262 |       7.7262 |       7.7262 |       7.7262 |       7.7262 |       7.7262 |       7.7262 |       7.8830 |       7.8830 |       7.8830 |       7.8830 |       7.8830 |       7.8830 |       7.8830 |
bpred_bimod.lookups                         112542 |       112542 |       112542 |xxxxxxxxxxxxx |xxxxxxxxxxxxx |xxxxxxxxxxxxx |xxxxxxxxxxxxx |       235273 |       235273 |       235273 |xxxxxxxxxxxxx |xxxxxxxxxxxxx |xxxxxxxxxxxxx |xxxxxxxxxxxxx |       514382 |       514382 |       514382 |xxxxxxxxxxxxx |xxxxxxxxxxxxx |xxxxxxxxxxxxx |xxxxxxxxxxxxx |      1071883 |      1071883 |      1071883 |xxxxxxxxxxxxx |xxxxxxxxxxxxx |xxxxxxxxxxxxx |xxxxxxxxxxxxx |      2319678 |      2319678 |      2319678 |xxxxxxxxxxxxx |xxxxxxxxxxxxx |xxxxxxxxxxxxx |xxxxxxxxxxxxx |      4811330 |      4811330 |      4811330 |xxxxxxxxxxxxx |xxxxxxxxxxxxx |xxxxxxxxxxxxx |xxxxxxxxxxxxx |     10327630 |     10327630 |     10327630 |xxxxxxxxxxxxx |xxxxxxxxxxxxx |xxxxxxxxxxxxx |xxxxxxxxxxxxx |     21937305 |     21937305 |     21937305 |xxxxxxxxxxxxx |xxxxxxxxxxxxx |xxxxxxxxxxxxx |xxxxxxxxxxxxx |     46683656 |     46683656 |     46683656 |xxxxxxxxxxxxx |xxxxxxxxxxxxx |xxxxxxxxxxxxx |xxxxxxxxxxxxx |     96152116 |     96152116 |     96152116 |xxxxxxxxxxxxx |xxxxxxxxxxxxx |xxxxxxxxxxxxx |xxxxxxxxxxxxx |    203568657 |    203568657 |    203568657 |
bpred_bimod.updates                         112542 |       112542 |       112542 |xxxxxxxxxxxxx |xxxxxxxxxxxxx |xxxxxxxxxxxxx |xxxxxxxxxxxxx |       235273 |       235273 |       235273 |xxxxxxxxxxxxx |xxxxxxxxxxxxx |xxxxxxxxxxxxx |xxxxxxxxxxxxx |       514382 |       514382 |       514382 |xxxxxxxxxxxxx |xxxxxxxxxxxxx |xxxxxxxxxxxxx |xxxxxxxxxxxxx |      1071883 |      1071883 |      1071883 |xxxxxxxxxxxxx |xxxxxxxxxxxxx |xxxxxxxxxxxxx |xxxxxxxxxxxxx |      2319678 |      2319678 |      2319678 |xxxxxxxxxxxxx |xxxxxxxxxxxxx |xxxxxxxxxxxxx |xxxxxxxxxxxxx |      4811330 |      4811330 |      4811330 |xxxxxxxxxxxxx |xxxxxxxxxxxxx |xxxxxxxxxxxxx |xxxxxxxxxxxxx |     10327630 |     10327630 |     10327630 |xxxxxxxxxxxxx |xxxxxxxxxxxxx |xxxxxxxxxxxxx |xxxxxxxxxxxxx |     21937305 |     21937305 |     21937305 |xxxxxxxxxxxxx |xxxxxxxxxxxxx |xxxxxxxxxxxxx |xxxxxxxxxxxxx |     46683656 |     46683656 |     46683656 |xxxxxxxxxxxxx |xxxxxxxxxxxxx |xxxxxxxxxxxxx |xxxxxxxxxxxxx |     96152116 |     96152116 |     96152116 |xxxxxxxxxxxxx |xxxxxxxxxxxxx |xxxxxxxxxxxxx |xxxxxxxxxxxxx |    203568657 |    203568657 |    203568657 |
bpred_bimod.addr_hits                        86821 |        86827 |        86829 |xxxxxxxxxxxxx |xxxxxxxxxxxxx |xxxxxxxxxxxxx |xxxxxxxxxxxxx |       183323 |       183330 |       183329 |xxxxxxxxxxxxx |xxxxxxxxxxxxx |xxxxxxxxxxxxx |xxxxxxxxxxxxx |       395939 |       395965 |       395970 |xxxxxxxxxxxxx |xxxxxxxxxxxxx |xxxxxxxxxxxxx |xxxxxxxxxxxxx |       832787 |       832805 |       832807 |xxxxxxxxxxxxx |xxxxxxxxxxxxx |xxxxxxxxxxxxx |xxxxxxxxxxxxx |      1782549 |      1782632 |      1782635 |xxxxxxxxxxxxx |xxxxxxxxxxxxx |xxxxxxxxxxxxx |xxxxxxxxxxxxx |      3726110 |      3726160 |      3726161 |xxxxxxxxxxxxx |xxxxxxxxxxxxx |xxxxxxxxxxxxx |xxxxxxxxxxxxx |      7917473 |      7917734 |      7917737 |xxxxxxxxxxxxx |xxxxxxxxxxxxx |xxxxxxxxxxxxx |xxxxxxxxxxxxx |     17072730 |     17072895 |     17072897 |xxxxxxxxxxxxx |xxxxxxxxxxxxx |xxxxxxxxxxxxx |xxxxxxxxxxxxx |     35992758 |     35993802 |     35993802 |xxxxxxxxxxxxx |xxxxxxxxxxxxx |xxxxxxxxxxxxx |xxxxxxxxxxxxx |     74592142 |     74592773 |     74592778 |xxxxxxxxxxxxx |xxxxxxxxxxxxx |xxxxxxxxxxxxx |xxxxxxxxxxxxx |    156592449 |    156596652 |    156596652 |
bpred_bimod.dir_hits                         86973 |        86979 |        86981 |xxxxxxxxxxxxx |xxxxxxxxxxxxx |xxxxxxxxxxxxx |xxxxxxxxxxxxx |       183477 |       183486 |       183486 |xxxxxxxxxxxxx |xxxxxxxxxxxxx |xxxxxxxxxxxxx |xxxxxxxxxxxxx |       396097 |       396119 |       396124 |xxxxxxxxxxxxx |xxxxxxxxxxxxx |xxxxxxxxxxxxx |xxxxxxxxxxxxx |       832939 |       832957 |       832961 |xxxxxxxxxxxxx |xxxxxxxxxxxxx |xxxxxxxxxxxxx |xxxxxxxxxxxxx |      1782701 |      1782784 |      1782790 |xxxxxxxxxxxxx |xxxxxxxxxxxxx |xxxxxxxxxxxxx |xxxxxxxxxxxxx |      3726264 |      3726314 |      3726317 |xxxxxxxxxxxxx |xxxxxxxxxxxxx |xxxxxxxxxxxxx |xxxxxxxxxxxxx |      7917622 |      7917882 |      7917888 |xxxxxxxxxxxxx |xxxxxxxxxxxxx |xxxxxxxxxxxxx |xxxxxxxxxxxxx |     17072906 |     17073070 |     17073073 |xxxxxxxxxxxxx |xxxxxxxxxxxxx |xxxxxxxxxxxxx |xxxxxxxxxxxxx |     35992936 |     35993979 |     35993979 |xxxxxxxxxxxxx |xxxxxxxxxxxxx |xxxxxxxxxxxxx |xxxxxxxxxxxxx |     74592319 |     74592949 |     74592955 |xxxxxxxxxxxxx |xxxxxxxxxxxxx |xxxxxxxxxxxxx |xxxxxxxxxxxxx |    156592626 |    156596828 |    156596829 |
bpred_bimod.misses                           25569 |        25563 |        25561 |xxxxxxxxxxxxx |xxxxxxxxxxxxx |xxxxxxxxxxxxx |xxxxxxxxxxxxx |        51796 |        51787 |        51787 |xxxxxxxxxxxxx |xxxxxxxxxxxxx |xxxxxxxxxxxxx |xxxxxxxxxxxxx |       118285 |       118263 |       118258 |xxxxxxxxxxxxx |xxxxxxxxxxxxx |xxxxxxxxxxxxx |xxxxxxxxxxxxx |       238944 |       238926 |       238922 |xxxxxxxxxxxxx |xxxxxxxxxxxxx |xxxxxxxxxxxxx |xxxxxxxxxxxxx |       536977 |       536894 |       536888 |xxxxxxxxxxxxx |xxxxxxxxxxxxx |xxxxxxxxxxxxx |xxxxxxxxxxxxx |      1085066 |      1085016 |      1085013 |xxxxxxxxxxxxx |xxxxxxxxxxxxx |xxxxxxxxxxxxx |xxxxxxxxxxxxx |      2410008 |      2409748 |      2409742 |xxxxxxxxxxxxx |xxxxxxxxxxxxx |xxxxxxxxxxxxx |xxxxxxxxxxxxx |      4864399 |      4864235 |      4864232 |xxxxxxxxxxxxx |xxxxxxxxxxxxx |xxxxxxxxxxxxx |xxxxxxxxxxxxx |     10690720 |     10689677 |     10689677 |xxxxxxxxxxxxx |xxxxxxxxxxxxx |xxxxxxxxxxxxx |xxxxxxxxxxxxx |     21559797 |     21559167 |     21559161 |xxxxxxxxxxxxx |xxxxxxxxxxxxx |xxxxxxxxxxxxx |xxxxxxxxxxxxx |     46976031 |     46971829 |     46971828 |
bpred_bimod.jr_hits                             79 |           79 |           79 |xxxxxxxxxxxxx |xxxxxxxxxxxxx |xxxxxxxxxxxxx |xxxxxxxxxxxxx |           87 |           87 |           87 |xxxxxxxxxxxxx |xxxxxxxxxxxxx |xxxxxxxxxxxxx |xxxxxxxxxxxxx |          103 |          103 |          103 |xxxxxxxxxxxxx |xxxxxxxxxxxxx |xxxxxxxxxxxxx |xxxxxxxxxxxxx |          135 |          135 |          135 |xxxxxxxxxxxxx |xxxxxxxxxxxxx |xxxxxxxxxxxxx |xxxxxxxxxxxxx |          199 |          199 |          199 |xxxxxxxxxxxxx |xxxxxxxxxxxxx |xxxxxxxxxxxxx |xxxxxxxxxxxxx |          327 |          327 |          327 |xxxxxxxxxxxxx |xxxxxxxxxxxxx |xxxxxxxxxxxxx |xxxxxxxxxxxxx |          583 |          583 |          583 |xxxxxxxxxxxxx |xxxxxxxxxxxxx |xxxxxxxxxxxxx |xxxxxxxxxxxxx |         1100 |         1100 |         1100 |xxxxxxxxxxxxx |xxxxxxxxxxxxx |xxxxxxxxxxxxx |xxxxxxxxxxxxx |         2126 |         2126 |         2126 |xxxxxxxxxxxxx |xxxxxxxxxxxxx |xxxxxxxxxxxxx |xxxxxxxxxxxxx |         4178 |         4178 |         4178 |xxxxxxxxxxxxx |xxxxxxxxxxxxx |xxxxxxxxxxxxx |xxxxxxxxxxxxx |         8282 |         8282 |         8282 |
bpred_bimod.jr_seen                             80 |           80 |           80 |xxxxxxxxxxxxx |xxxxxxxxxxxxx |xxxxxxxxxxxxx |xxxxxxxxxxxxx |           88 |           88 |           88 |xxxxxxxxxxxxx |xxxxxxxxxxxxx |xxxxxxxxxxxxx |xxxxxxxxxxxxx |          104 |          104 |          104 |xxxxxxxxxxxxx |xxxxxxxxxxxxx |xxxxxxxxxxxxx |xxxxxxxxxxxxx |          136 |          136 |          136 |xxxxxxxxxxxxx |xxxxxxxxxxxxx |xxxxxxxxxxxxx |xxxxxxxxxxxxx |          200 |          200 |          200 |xxxxxxxxxxxxx |xxxxxxxxxxxxx |xxxxxxxxxxxxx |xxxxxxxxxxxxx |          328 |          328 |          328 |xxxxxxxxxxxxx |xxxxxxxxxxxxx |xxxxxxxxxxxxx |xxxxxxxxxxxxx |          584 |          584 |          584 |xxxxxxxxxxxxx |xxxxxxxxxxxxx |xxxxxxxxxxxxx |xxxxxxxxxxxxx |         1101 |         1101 |         1101 |xxxxxxxxxxxxx |xxxxxxxxxxxxx |xxxxxxxxxxxxx |xxxxxxxxxxxxx |         2127 |         2127 |         2127 |xxxxxxxxxxxxx |xxxxxxxxxxxxx |xxxxxxxxxxxxx |xxxxxxxxxxxxx |         4179 |         4179 |         4179 |xxxxxxxxxxxxx |xxxxxxxxxxxxx |xxxxxxxxxxxxx |xxxxxxxxxxxxx |         8283 |         8283 |         8283 |
bpred_bimod.jr_non_ras_hits.PP                   0 |            0 |            0 |xxxxxxxxxxxxx |xxxxxxxxxxxxx |xxxxxxxxxxxxx |xxxxxxxxxxxxx |            0 |            0 |            0 |xxxxxxxxxxxxx |xxxxxxxxxxxxx |xxxxxxxxxxxxx |xxxxxxxxxxxxx |            0 |            0 |            0 |xxxxxxxxxxxxx |xxxxxxxxxxxxx |xxxxxxxxxxxxx |xxxxxxxxxxxxx |            0 |            0 |            0 |xxxxxxxxxxxxx |xxxxxxxxxxxxx |xxxxxxxxxxxxx |xxxxxxxxxxxxx |            0 |            0 |            0 |xxxxxxxxxxxxx |xxxxxxxxxxxxx |xxxxxxxxxxxxx |xxxxxxxxxxxxx |            0 |            0 |            0 |xxxxxxxxxxxxx |xxxxxxxxxxxxx |xxxxxxxxxxxxx |xxxxxxxxxxxxx |            0 |            0 |            0 |xxxxxxxxxxxxx |xxxxxxxxxxxxx |xxxxxxxxxxxxx |xxxxxxxxxxxxx |            0 |            0 |            0 |xxxxxxxxxxxxx |xxxxxxxxxxxxx |xxxxxxxxxxxxx |xxxxxxxxxxxxx |            0 |            0 |            0 |xxxxxxxxxxxxx |xxxxxxxxxxxxx |xxxxxxxxxxxxx |xxxxxxxxxxxxx |            0 |            0 |            0 |xxxxxxxxxxxxx |xxxxxxxxxxxxx |xxxxxxxxxxxxx |xxxxxxxxxxxxx |            0 |            0 |            0 |
bpred_bimod.jr_non_ras_seen.PP                   0 |            0 |            0 |xxxxxxxxxxxxx |xxxxxxxxxxxxx |xxxxxxxxxxxxx |xxxxxxxxxxxxx |            0 |            0 |            0 |xxxxxxxxxxxxx |xxxxxxxxxxxxx |xxxxxxxxxxxxx |xxxxxxxxxxxxx |            0 |            0 |            0 |xxxxxxxxxxxxx |xxxxxxxxxxxxx |xxxxxxxxxxxxx |xxxxxxxxxxxxx |            0 |            0 |            0 |xxxxxxxxxxxxx |xxxxxxxxxxxxx |xxxxxxxxxxxxx |xxxxxxxxxxxxx |            0 |            0 |            0 |xxxxxxxxxxxxx |xxxxxxxxxxxxx |xxxxxxxxxxxxx |xxxxxxxxxxxxx |            0 |            0 |            0 |xxxxxxxxxxxxx |xxxxxxxxxxxxx |xxxxxxxxxxxxx |xxxxxxxxxxxxx |            0 |            0 |            0 |xxxxxxxxxxxxx |xxxxxxxxxxxxx |xxxxxxxxxxxxx |xxxxxxxxxxxxx |            1 |            1 |            1 |xxxxxxxxxxxxx |xxxxxxxxxxxxx |xxxxxxxxxxxxx |xxxxxxxxxxxxx |            1 |            1 |            1 |xxxxxxxxxxxxx |xxxxxxxxxxxxx |xxxxxxxxxxxxx |xxxxxxxxxxxxx |            1 |            1 |            1 |xxxxxxxxxxxxx |xxxxxxxxxxxxx |xxxxxxxxxxxxx |xxxxxxxxxxxxx |            1 |            1 |            1 |
bpred_bimod.bpred_addr_rate                 0.7715 |       0.7715 |       0.7715 |xxxxxxxxxxxxx |xxxxxxxxxxxxx |xxxxxxxxxxxxx |xxxxxxxxxxxxx |       0.7792 |       0.7792 |       0.7792 |xxxxxxxxxxxxx |xxxxxxxxxxxxx |xxxxxxxxxxxxx |xxxxxxxxxxxxx |       0.7697 |       0.7698 |       0.7698 |xxxxxxxxxxxxx |xxxxxxxxxxxxx |xxxxxxxxxxxxx |xxxxxxxxxxxxx |       0.7769 |       0.7770 |       0.7770 |xxxxxxxxxxxxx |xxxxxxxxxxxxx |xxxxxxxxxxxxx |xxxxxxxxxxxxx |       0.7684 |       0.7685 |       0.7685 |xxxxxxxxxxxxx |xxxxxxxxxxxxx |xxxxxxxxxxxxx |xxxxxxxxxxxxx |       0.7744 |       0.7745 |       0.7745 |xxxxxxxxxxxxx |xxxxxxxxxxxxx |xxxxxxxxxxxxx |xxxxxxxxxxxxx |       0.7666 |       0.7667 |       0.7667 |xxxxxxxxxxxxx |xxxxxxxxxxxxx |xxxxxxxxxxxxx |xxxxxxxxxxxxx |       0.7783 |       0.7783 |       0.7783 |xxxxxxxxxxxxx |xxxxxxxxxxxxx |xxxxxxxxxxxxx |xxxxxxxxxxxxx |       0.7710 |       0.7710 |       0.7710 |xxxxxxxxxxxxx |xxxxxxxxxxxxx |xxxxxxxxxxxxx |xxxxxxxxxxxxx |       0.7758 |       0.7758 |       0.7758 |xxxxxxxxxxxxx |xxxxxxxxxxxxx |xxxxxxxxxxxxx |xxxxxxxxxxxxx |       0.7692 |       0.7693 |       0.7693 |
bpred_bimod.bpred_dir_rate                  0.7728 |       0.7729 |       0.7729 |xxxxxxxxxxxxx |xxxxxxxxxxxxx |xxxxxxxxxxxxx |xxxxxxxxxxxxx |       0.7798 |       0.7799 |       0.7799 |xxxxxxxxxxxxx |xxxxxxxxxxxxx |xxxxxxxxxxxxx |xxxxxxxxxxxxx |       0.7700 |       0.7701 |       0.7701 |xxxxxxxxxxxxx |xxxxxxxxxxxxx |xxxxxxxxxxxxx |xxxxxxxxxxxxx |       0.7771 |       0.7771 |       0.7771 |xxxxxxxxxxxxx |xxxxxxxxxxxxx |xxxxxxxxxxxxx |xxxxxxxxxxxxx |       0.7685 |       0.7685 |       0.7686 |xxxxxxxxxxxxx |xxxxxxxxxxxxx |xxxxxxxxxxxxx |xxxxxxxxxxxxx |       0.7745 |       0.7745 |       0.7745 |xxxxxxxxxxxxx |xxxxxxxxxxxxx |xxxxxxxxxxxxx |xxxxxxxxxxxxx |       0.7666 |       0.7667 |       0.7667 |xxxxxxxxxxxxx |xxxxxxxxxxxxx |xxxxxxxxxxxxx |xxxxxxxxxxxxx |       0.7783 |       0.7783 |       0.7783 |xxxxxxxxxxxxx |xxxxxxxxxxxxx |xxxxxxxxxxxxx |xxxxxxxxxxxxx |       0.7710 |       0.7710 |       0.7710 |xxxxxxxxxxxxx |xxxxxxxxxxxxx |xxxxxxxxxxxxx |xxxxxxxxxxxxx |       0.7758 |       0.7758 |       0.7758 |xxxxxxxxxxxxx |xxxxxxxxxxxxx |xxxxxxxxxxxxx |xxxxxxxxxxxxx |       0.7692 |       0.7693 |       0.7693 |
bpred_bimod.bpred_jr_rate                   0.9875 |       0.9875 |       0.9875 |xxxxxxxxxxxxx |xxxxxxxxxxxxx |xxxxxxxxxxxxx |xxxxxxxxxxxxx |       0.9886 |       0.9886 |       0.9886 |xxxxxxxxxxxxx |xxxxxxxxxxxxx |xxxxxxxxxxxxx |xxxxxxxxxxxxx |       0.9904 |       0.9904 |       0.9904 |xxxxxxxxxxxxx |xxxxxxxxxxxxx |xxxxxxxxxxxxx |xxxxxxxxxxxxx |       0.9926 |       0.9926 |       0.9926 |xxxxxxxxxxxxx |xxxxxxxxxxxxx |xxxxxxxxxxxxx |xxxxxxxxxxxxx |       0.9950 |       0.9950 |       0.9950 |xxxxxxxxxxxxx |xxxxxxxxxxxxx |xxxxxxxxxxxxx |xxxxxxxxxxxxx |       0.9970 |       0.9970 |       0.9970 |xxxxxxxxxxxxx |xxxxxxxxxxxxx |xxxxxxxxxxxxx |xxxxxxxxxxxxx |       0.9983 |       0.9983 |       0.9983 |xxxxxxxxxxxxx |xxxxxxxxxxxxx |xxxxxxxxxxxxx |xxxxxxxxxxxxx |       0.9991 |       0.9991 |       0.9991 |xxxxxxxxxxxxx |xxxxxxxxxxxxx |xxxxxxxxxxxxx |xxxxxxxxxxxxx |       0.9995 |       0.9995 |       0.9995 |xxxxxxxxxxxxx |xxxxxxxxxxxxx |xxxxxxxxxxxxx |xxxxxxxxxxxxx |       0.9998 |       0.9998 |       0.9998 |xxxxxxxxxxxxx |xxxxxxxxxxxxx |xxxxxxxxxxxxx |xxxxxxxxxxxxx |       0.9999 |       0.9999 |       0.9999 |
bpred_bimod.bpred_jr_non_ras_rate.PP       <error: |      <error: |      <error: |xxxxxxxxxxxxx |xxxxxxxxxxxxx |xxxxxxxxxxxxx |xxxxxxxxxxxxx |      <error: |      <error: |      <error: |xxxxxxxxxxxxx |xxxxxxxxxxxxx |xxxxxxxxxxxxx |xxxxxxxxxxxxx |      <error: |      <error: |      <error: |xxxxxxxxxxxxx |xxxxxxxxxxxxx |xxxxxxxxxxxxx |xxxxxxxxxxxxx |      <error: |      <error: |      <error: |xxxxxxxxxxxxx |xxxxxxxxxxxxx |xxxxxxxxxxxxx |xxxxxxxxxxxxx |      <error: |      <error: |      <error: |xxxxxxxxxxxxx |xxxxxxxxxxxxx |xxxxxxxxxxxxx |xxxxxxxxxxxxx |      <error: |      <error: |      <error: |xxxxxxxxxxxxx |xxxxxxxxxxxxx |xxxxxxxxxxxxx |xxxxxxxxxxxxx |      <error: |      <error: |      <error: |xxxxxxxxxxxxx |xxxxxxxxxxxxx |xxxxxxxxxxxxx |xxxxxxxxxxxxx |       0.0000 |       0.0000 |       0.0000 |xxxxxxxxxxxxx |xxxxxxxxxxxxx |xxxxxxxxxxxxx |xxxxxxxxxxxxx |       0.0000 |       0.0000 |       0.0000 |xxxxxxxxxxxxx |xxxxxxxxxxxxx |xxxxxxxxxxxxx |xxxxxxxxxxxxx |       0.0000 |       0.0000 |       0.0000 |xxxxxxxxxxxxx |xxxxxxxxxxxxx |xxxxxxxxxxxxx |xxxxxxxxxxxxx |       0.0000 |       0.0000 |       0.0000 |
bpred_bimod.retstack_pushes                     82 |           82 |           82 |xxxxxxxxxxxxx |xxxxxxxxxxxxx |xxxxxxxxxxxxx |xxxxxxxxxxxxx |           90 |           90 |           90 |xxxxxxxxxxxxx |xxxxxxxxxxxxx |xxxxxxxxxxxxx |xxxxxxxxxxxxx |          106 |          106 |          106 |xxxxxxxxxxxxx |xxxxxxxxxxxxx |xxxxxxxxxxxxx |xxxxxxxxxxxxx |          138 |          138 |          138 |xxxxxxxxxxxxx |xxxxxxxxxxxxx |xxxxxxxxxxxxx |xxxxxxxxxxxxx |          202 |          202 |          202 |xxxxxxxxxxxxx |xxxxxxxxxxxxx |xxxxxxxxxxxxx |xxxxxxxxxxxxx |          330 |          330 |          330 |xxxxxxxxxxxxx |xxxxxxxxxxxxx |xxxxxxxxxxxxx |xxxxxxxxxxxxx |          586 |          586 |          586 |xxxxxxxxxxxxx |xxxxxxxxxxxxx |xxxxxxxxxxxxx |xxxxxxxxxxxxx |         1102 |         1102 |         1102 |xxxxxxxxxxxxx |xxxxxxxxxxxxx |xxxxxxxxxxxxx |xxxxxxxxxxxxx |         2128 |         2128 |         2128 |xxxxxxxxxxxxx |xxxxxxxxxxxxx |xxxxxxxxxxxxx |xxxxxxxxxxxxx |         4180 |         4180 |         4180 |xxxxxxxxxxxxx |xxxxxxxxxxxxx |xxxxxxxxxxxxx |xxxxxxxxxxxxx |         8284 |         8284 |         8284 |
bpred_bimod.retstack_pops                       80 |           80 |           80 |xxxxxxxxxxxxx |xxxxxxxxxxxxx |xxxxxxxxxxxxx |xxxxxxxxxxxxx |           88 |           88 |           88 |xxxxxxxxxxxxx |xxxxxxxxxxxxx |xxxxxxxxxxxxx |xxxxxxxxxxxxx |          104 |          104 |          104 |xxxxxxxxxxxxx |xxxxxxxxxxxxx |xxxxxxxxxxxxx |xxxxxxxxxxxxx |          136 |          136 |          136 |xxxxxxxxxxxxx |xxxxxxxxxxxxx |xxxxxxxxxxxxx |xxxxxxxxxxxxx |          200 |          200 |          200 |xxxxxxxxxxxxx |xxxxxxxxxxxxx |xxxxxxxxxxxxx |xxxxxxxxxxxxx |          328 |          328 |          328 |xxxxxxxxxxxxx |xxxxxxxxxxxxx |xxxxxxxxxxxxx |xxxxxxxxxxxxx |          584 |          584 |          584 |xxxxxxxxxxxxx |xxxxxxxxxxxxx |xxxxxxxxxxxxx |xxxxxxxxxxxxx |         1100 |         1100 |         1100 |xxxxxxxxxxxxx |xxxxxxxxxxxxx |xxxxxxxxxxxxx |xxxxxxxxxxxxx |         2126 |         2126 |         2126 |xxxxxxxxxxxxx |xxxxxxxxxxxxx |xxxxxxxxxxxxx |xxxxxxxxxxxxx |         4178 |         4178 |         4178 |xxxxxxxxxxxxx |xxxxxxxxxxxxx |xxxxxxxxxxxxx |xxxxxxxxxxxxx |         8282 |         8282 |         8282 |
bpred_bimod.used_ras.PP                         80 |           80 |           80 |xxxxxxxxxxxxx |xxxxxxxxxxxxx |xxxxxxxxxxxxx |xxxxxxxxxxxxx |           88 |           88 |           88 |xxxxxxxxxxxxx |xxxxxxxxxxxxx |xxxxxxxxxxxxx |xxxxxxxxxxxxx |          104 |          104 |          104 |xxxxxxxxxxxxx |xxxxxxxxxxxxx |xxxxxxxxxxxxx |xxxxxxxxxxxxx |          136 |          136 |          136 |xxxxxxxxxxxxx |xxxxxxxxxxxxx |xxxxxxxxxxxxx |xxxxxxxxxxxxx |          200 |          200 |          200 |xxxxxxxxxxxxx |xxxxxxxxxxxxx |xxxxxxxxxxxxx |xxxxxxxxxxxxx |          328 |          328 |          328 |xxxxxxxxxxxxx |xxxxxxxxxxxxx |xxxxxxxxxxxxx |xxxxxxxxxxxxx |          584 |          584 |          584 |xxxxxxxxxxxxx |xxxxxxxxxxxxx |xxxxxxxxxxxxx |xxxxxxxxxxxxx |         1100 |         1100 |         1100 |xxxxxxxxxxxxx |xxxxxxxxxxxxx |xxxxxxxxxxxxx |xxxxxxxxxxxxx |         2126 |         2126 |         2126 |xxxxxxxxxxxxx |xxxxxxxxxxxxx |xxxxxxxxxxxxx |xxxxxxxxxxxxx |         4178 |         4178 |         4178 |xxxxxxxxxxxxx |xxxxxxxxxxxxx |xxxxxxxxxxxxx |xxxxxxxxxxxxx |         8282 |         8282 |         8282 |
bpred_bimod.ras_hits.PP                         79 |           79 |           79 |xxxxxxxxxxxxx |xxxxxxxxxxxxx |xxxxxxxxxxxxx |xxxxxxxxxxxxx |           87 |           87 |           87 |xxxxxxxxxxxxx |xxxxxxxxxxxxx |xxxxxxxxxxxxx |xxxxxxxxxxxxx |          103 |          103 |          103 |xxxxxxxxxxxxx |xxxxxxxxxxxxx |xxxxxxxxxxxxx |xxxxxxxxxxxxx |          135 |          135 |          135 |xxxxxxxxxxxxx |xxxxxxxxxxxxx |xxxxxxxxxxxxx |xxxxxxxxxxxxx |          199 |          199 |          199 |xxxxxxxxxxxxx |xxxxxxxxxxxxx |xxxxxxxxxxxxx |xxxxxxxxxxxxx |          327 |          327 |          327 |xxxxxxxxxxxxx |xxxxxxxxxxxxx |xxxxxxxxxxxxx |xxxxxxxxxxxxx |          583 |          583 |          583 |xxxxxxxxxxxxx |xxxxxxxxxxxxx |xxxxxxxxxxxxx |xxxxxxxxxxxxx |         1100 |         1100 |         1100 |xxxxxxxxxxxxx |xxxxxxxxxxxxx |xxxxxxxxxxxxx |xxxxxxxxxxxxx |         2126 |         2126 |         2126 |xxxxxxxxxxxxx |xxxxxxxxxxxxx |xxxxxxxxxxxxx |xxxxxxxxxxxxx |         4178 |         4178 |         4178 |xxxxxxxxxxxxx |xxxxxxxxxxxxx |xxxxxxxxxxxxx |xxxxxxxxxxxxx |         8282 |         8282 |         8282 |
bpred_bimod.ras_rate.PP                     0.9875 |       0.9875 |       0.9875 |xxxxxxxxxxxxx |xxxxxxxxxxxxx |xxxxxxxxxxxxx |xxxxxxxxxxxxx |       0.9886 |       0.9886 |       0.9886 |xxxxxxxxxxxxx |xxxxxxxxxxxxx |xxxxxxxxxxxxx |xxxxxxxxxxxxx |       0.9904 |       0.9904 |       0.9904 |xxxxxxxxxxxxx |xxxxxxxxxxxxx |xxxxxxxxxxxxx |xxxxxxxxxxxxx |       0.9926 |       0.9926 |       0.9926 |xxxxxxxxxxxxx |xxxxxxxxxxxxx |xxxxxxxxxxxxx |xxxxxxxxxxxxx |       0.9950 |       0.9950 |       0.9950 |xxxxxxxxxxxxx |xxxxxxxxxxxxx |xxxxxxxxxxxxx |xxxxxxxxxxxxx |       0.9970 |       0.9970 |       0.9970 |xxxxxxxxxxxxx |xxxxxxxxxxxxx |xxxxxxxxxxxxx |xxxxxxxxxxxxx |       0.9983 |       0.9983 |       0.9983 |xxxxxxxxxxxxx |xxxxxxxxxxxxx |xxxxxxxxxxxxx |xxxxxxxxxxxxx |       1.0000 |       1.0000 |       1.0000 |xxxxxxxxxxxxx |xxxxxxxxxxxxx |xxxxxxxxxxxxx |xxxxxxxxxxxxx |       1.0000 |       1.0000 |       1.0000 |xxxxxxxxxxxxx |xxxxxxxxxxxxx |xxxxxxxxxxxxx |xxxxxxxxxxxxx |       1.0000 |       1.0000 |       1.0000 |xxxxxxxxxxxxx |xxxxxxxxxxxxx |xxxxxxxxxxxxx |xxxxxxxxxxxxx |       1.0000 |       1.0000 |       1.0000 |
bpred_2lev.lookups                   xxxxxxxxxxxxx |xxxxxxxxxxxxx |xxxxxxxxxxxxx |       112542 |       112542 |       112542 |       112542 |xxxxxxxxxxxxx |xxxxxxxxxxxxx |xxxxxxxxxxxxx |       235273 |       235273 |       235273 |       235273 |xxxxxxxxxxxxx |xxxxxxxxxxxxx |xxxxxxxxxxxxx |       514382 |       514382 |       514382 |       514382 |xxxxxxxxxxxxx |xxxxxxxxxxxxx |xxxxxxxxxxxxx |      1071883 |      1071883 |      1071883 |      1071883 |xxxxxxxxxxxxx |xxxxxxxxxxxxx |xxxxxxxxxxxxx |      2319678 |      2319678 |      2319678 |      2319678 |xxxxxxxxxxxxx |xxxxxxxxxxxxx |xxxxxxxxxxxxx |      4811330 |      4811330 |      4811330 |      4811330 |xxxxxxxxxxxxx |xxxxxxxxxxxxx |xxxxxxxxxxxxx |     10327630 |     10327630 |     10327630 |     10327630 |xxxxxxxxxxxxx |xxxxxxxxxxxxx |xxxxxxxxxxxxx |     21937305 |     21937305 |     21937305 |     21937305 |xxxxxxxxxxxxx |xxxxxxxxxxxxx |xxxxxxxxxxxxx |     46683656 |     46683656 |     46683656 |     46683656 |xxxxxxxxxxxxx |xxxxxxxxxxxxx |xxxxxxxxxxxxx |     96152116 |     96152116 |     96152116 |     96152116 |xxxxxxxxxxxxx |xxxxxxxxxxxxx |xxxxxxxxxxxxx |    203568657 |    203568657 |    203568657 |    203568657 |
[...]
bpred_2lev.retstack_pops             xxxxxxxxxxxxx |xxxxxxxxxxxxx |xxxxxxxxxxxxx |           80 |           80 |           80 |           80 |xxxxxxxxxxxxx |xxxxxxxxxxxxx |xxxxxxxxxxxxx |           88 |           88 |           88 |           88 |xxxxxxxxxxxxx |xxxxxxxxxxxxx |xxxxxxxxxxxxx |          104 |          104 |          104 |          104 |xxxxxxxxxxxxx |xxxxxxxxxxxxx |xxxxxxxxxxxxx |          136 |          136 |          136 |          136 |xxxxxxxxxxxxx |xxxxxxxxxxxxx |xxxxxxxxxxxxx |          200 |          200 |          200 |          200 |xxxxxxxxxxxxx |xxxxxxxxxxxxx |xxxxxxxxxxxxx |          328 |          328 |          328 |          328 |xxxxxxxxxxxxx |xxxxxxxxxxxxx |xxxxxxxxxxxxx |          584 |          584 |          584 |          584 |xxxxxxxxxxxxx |xxxxxxxxxxxxx |xxxxxxxxxxxxx |         1100 |         1100 |         1100 |         1100 |xxxxxxxxxxxxx |xxxxxxxxxxxxx |xxxxxxxxxxxxx |         2126 |         2126 |         2126 |         2126 |xxxxxxxxxxxxx |xxxxxxxxxxxxx |xxxxxxxxxxxxx |         4178 |         4178 |         4178 |         4178 |xxxxxxxxxxxxx |xxxxxxxxxxxxx |xxxxxxxxxxxxx |         8282 |         8282 |         8282 |         8282 |
bpred_2lev.used_ras.PP               xxxxxxxxxxxxx |xxxxxxxxxxxxx |xxxxxxxxxxxxx |           80 |           80 |           80 |           80 |xxxxxxxxxxxxx |xxxxxxxxxxxxx |xxxxxxxxxxxxx |           88 |           88 |           88 |           88 |xxxxxxxxxxxxx |xxxxxxxxxxxxx |xxxxxxxxxxxxx |          104 |          104 |          104 |          104 |xxxxxxxxxxxxx |xxxxxxxxxxxxx |xxxxxxxxxxxxx |          136 |          136 |          136 |          136 |xxxxxxxxxxxxx |xxxxxxxxxxxxx |xxxxxxxxxxxxx |          200 |          200 |          200 |          200 |xxxxxxxxxxxxx |xxxxxxxxxxxxx |xxxxxxxxxxxxx |          328 |          328 |          328 |          328 |xxxxxxxxxxxxx |xxxxxxxxxxxxx |xxxxxxxxxxxxx |          584 |          584 |          584 |          584 |xxxxxxxxxxxxx |xxxxxxxxxxxxx |xxxxxxxxxxxxx |         1100 |         1100 |         1100 |         1100 |xxxxxxxxxxxxx |xxxxxxxxxxxxx |xxxxxxxxxxxxx |         2126 |         2126 |         2126 |         2126 |xxxxxxxxxxxxx |xxxxxxxxxxxxx |xxxxxxxxxxxxx |         4178 |         4178 |         4178 |         4178 |xxxxxxxxxxxxx |xxxxxxxxxxxxx |xxxxxxxxxxxxx |         8282 |         8282 |         8282 |         8282 |
bpred_2lev.ras_hits.PP               xxxxxxxxxxxxx |xxxxxxxxxxxxx |xxxxxxxxxxxxx |           79 |           79 |           79 |           79 |xxxxxxxxxxxxx |xxxxxxxxxxxxx |xxxxxxxxxxxxx |           87 |           87 |           87 |           87 |xxxxxxxxxxxxx |xxxxxxxxxxxxx |xxxxxxxxxxxxx |          103 |          103 |          103 |          103 |xxxxxxxxxxxxx |xxxxxxxxxxxxx |xxxxxxxxxxxxx |          135 |          135 |          135 |          135 |xxxxxxxxxxxxx |xxxxxxxxxxxxx |xxxxxxxxxxxxx |          199 |          199 |          199 |          199 |xxxxxxxxxxxxx |xxxxxxxxxxxxx |xxxxxxxxxxxxx |          327 |          327 |          327 |          327 |xxxxxxxxxxxxx |xxxxxxxxxxxxx |xxxxxxxxxxxxx |          583 |          583 |          583 |          583 |xxxxxxxxxxxxx |xxxxxxxxxxxxx |xxxxxxxxxxxxx |         1100 |         1100 |         1100 |         1100 |xxxxxxxxxxxxx |xxxxxxxxxxxxx |xxxxxxxxxxxxx |         2126 |         2126 |         2126 |         2126 |xxxxxxxxxxxxx |xxxxxxxxxxxxx |xxxxxxxxxxxxx |         4178 |         4178 |         4178 |         4178 |xxxxxxxxxxxxx |xxxxxxxxxxxxx |xxxxxxxxxxxxx |         8282 |         8282 |         8282 |         8282 |
bpred_2lev.ras_rate.PP               xxxxxxxxxxxxx |xxxxxxxxxxxxx |xxxxxxxxxxxxx |       0.9875 |       0.9875 |       0.9875 |       0.9875 |xxxxxxxxxxxxx |xxxxxxxxxxxxx |xxxxxxxxxxxxx |       0.9886 |       0.9886 |       0.9886 |       0.9886 |xxxxxxxxxxxxx |xxxxxxxxxxxxx |xxxxxxxxxxxxx |       0.9904 |       0.9904 |       0.9904 |       0.9904 |xxxxxxxxxxxxx |xxxxxxxxxxxxx |xxxxxxxxxxxxx |       0.9926 |       0.9926 |       0.9926 |       0.9926 |xxxxxxxxxxxxx |xxxxxxxxxxxxx |xxxxxxxxxxxxx |       0.9950 |       0.9950 |       0.9950 |       0.9950 |xxxxxxxxxxxxx |xxxxxxxxxxxxx |xxxxxxxxxxxxx |       0.9970 |       0.9970 |       0.9970 |       0.9970 |xxxxxxxxxxxxx |xxxxxxxxxxxxx |xxxxxxxxxxxxx |       0.9983 |       0.9983 |       0.9983 |       0.9983 |xxxxxxxxxxxxx |xxxxxxxxxxxxx |xxxxxxxxxxxxx |       1.0000 |       1.0000 |       1.0000 |       1.0000 |xxxxxxxxxxxxx |xxxxxxxxxxxxx |xxxxxxxxxxxxx |       1.0000 |       1.0000 |       1.0000 |       1.0000 |xxxxxxxxxxxxx |xxxxxxxxxxxxx |xxxxxxxxxxxxx |       1.0000 |       1.0000 |       1.0000 |       1.0000 |xxxxxxxxxxxxx |xxxxxxxxxxxxx |xxxxxxxxxxxxx |       1.0000 |       1.0000 |       1.0000 |       1.0000 |

Command list: 
	sslittle-na-sstrix-gcc -Wall -O3 -funroll-loops -finline-functions  -DRANDOM_SIZE=4096 -DOFFSET=5 -DSORT=double_aligned_mergesort sorts/double_aligned_mergesort1963604720.c simpleMain.c -o double_aligned_mergesort1767252506
	sim-cache -cache:dl1 dl1:256:32:1:l -cache:dl2 dl2:131072:32:1:l -cache:il1 il1:256:32:1:l -cache:il2 dl2 double_aligned_mergesort1767252506
	sim-cache -cache:dl1 dl1:256:32:1:l -cache:dl2 dl2:65536:32:1:l -cache:il1 il1:256:32:1:l -cache:il2 dl2 double_aligned_mergesort1767252506
	sim-cache -cache:dl1 dl1:1:32:256:l -cache:dl2 dl2:1:32:131072:l -cache:il1 il1:1:32:256:l -cache:il2 dl2 double_aligned_mergesort1767252506
	sim-cache -cache:dl1 dl1:1:32:256:l -cache:dl2 dl2:1:32:65536:l -cache:il1 il1:1:32:256:l -cache:il2 dl2 double_aligned_mergesort1767252506
	sim-bpred -bpred bimod -bpred:bimod 512 double_aligned_mergesort1767252506
	sim-bpred -bpred bimod -bpred:bimod 1024 double_aligned_mergesort1767252506
	sim-bpred -bpred bimod -bpred:bimod 2048 double_aligned_mergesort1767252506
	sim-bpred -bpred 2lev -bpred:2lev 1 512 10 1 double_aligned_mergesort1767252506
	sim-bpred -bpred 2lev -bpred:2lev 1 1024 10 1 double_aligned_mergesort1767252506
	sim-bpred -bpred 2lev -bpred:2lev 1 2048 10 1 double_aligned_mergesort1767252506
	sim-bpred -bpred 2lev -bpred:2lev 1 4096 10 1 double_aligned_mergesort1767252506
	sslittle-na-sstrix-gcc -Wall -O3 -funroll-loops -finline-functions  -DRANDOM_SIZE=8192 -DOFFSET=5 -DSORT=double_aligned_mergesort sorts/double_aligned_mergesort1963604720.c simpleMain.c -o double_aligned_mergesort1767252506
	sim-cache -cache:dl1 dl1:256:32:1:l -cache:dl2 dl2:131072:32:1:l -cache:il1 il1:256:32:1:l -cache:il2 dl2 double_aligned_mergesort1767252506
	sim-cache -cache:dl1 dl1:256:32:1:l -cache:dl2 dl2:65536:32:1:l -cache:il1 il1:256:32:1:l -cache:il2 dl2 double_aligned_mergesort1767252506
	sim-cache -cache:dl1 dl1:1:32:256:l -cache:dl2 dl2:1:32:131072:l -cache:il1 il1:1:32:256:l -cache:il2 dl2 double_aligned_mergesort1767252506
	sim-cache -cache:dl1 dl1:1:32:256:l -cache:dl2 dl2:1:32:65536:l -cache:il1 il1:1:32:256:l -cache:il2 dl2 double_aligned_mergesort1767252506
	sim-bpred -bpred bimod -bpred:bimod 512 double_aligned_mergesort1767252506
	sim-bpred -bpred bimod -bpred:bimod 1024 double_aligned_mergesort1767252506
	sim-bpred -bpred bimod -bpred:bimod 2048 double_aligned_mergesort1767252506
	sim-bpred -bpred 2lev -bpred:2lev 1 512 10 1 double_aligned_mergesort1767252506
	sim-bpred -bpred 2lev -bpred:2lev 1 1024 10 1 double_aligned_mergesort1767252506
	sim-bpred -bpred 2lev -bpred:2lev 1 2048 10 1 double_aligned_mergesort1767252506
	sim-bpred -bpred 2lev -bpred:2lev 1 4096 10 1 double_aligned_mergesort1767252506
	sslittle-na-sstrix-gcc -Wall -O3 -funroll-loops -finline-functions  -DRANDOM_SIZE=16384 -DOFFSET=5 -DSORT=double_aligned_mergesort sorts/double_aligned_mergesort1963604720.c simpleMain.c -o double_aligned_mergesort1767252506
	sim-cache -cache:dl1 dl1:256:32:1:l -cache:dl2 dl2:131072:32:1:l -cache:il1 il1:256:32:1:l -cache:il2 dl2 double_aligned_mergesort1767252506
	sim-cache -cache:dl1 dl1:256:32:1:l -cache:dl2 dl2:65536:32:1:l -cache:il1 il1:256:32:1:l -cache:il2 dl2 double_aligned_mergesort1767252506
	sim-cache -cache:dl1 dl1:1:32:256:l -cache:dl2 dl2:1:32:131072:l -cache:il1 il1:1:32:256:l -cache:il2 dl2 double_aligned_mergesort1767252506
	sim-cache -cache:dl1 dl1:1:32:256:l -cache:dl2 dl2:1:32:65536:l -cache:il1 il1:1:32:256:l -cache:il2 dl2 double_aligned_mergesort1767252506
	sim-bpred -bpred bimod -bpred:bimod 512 double_aligned_mergesort1767252506
	sim-bpred -bpred bimod -bpred:bimod 1024 double_aligned_mergesort1767252506
	sim-bpred -bpred bimod -bpred:bimod 2048 double_aligned_mergesort1767252506
	sim-bpred -bpred 2lev -bpred:2lev 1 512 10 1 double_aligned_mergesort1767252506
	sim-bpred -bpred 2lev -bpred:2lev 1 1024 10 1 double_aligned_mergesort1767252506
	sim-bpred -bpred 2lev -bpred:2lev 1 2048 10 1 double_aligned_mergesort1767252506
	sim-bpred -bpred 2lev -bpred:2lev 1 4096 10 1 double_aligned_mergesort1767252506
	sslittle-na-sstrix-gcc -Wall -O3 -funroll-loops -finline-functions  -DRANDOM_SIZE=32768 -DOFFSET=5 -DSORT=double_aligned_mergesort sorts/double_aligned_mergesort1963604720.c simpleMain.c -o double_aligned_mergesort1767252506
	sim-cache -cache:dl1 dl1:256:32:1:l -cache:dl2 dl2:131072:32:1:l -cache:il1 il1:256:32:1:l -cache:il2 dl2 double_aligned_mergesort1767252506
	sim-cache -cache:dl1 dl1:256:32:1:l -cache:dl2 dl2:65536:32:1:l -cache:il1 il1:256:32:1:l -cache:il2 dl2 double_aligned_mergesort1767252506
	sim-cache -cache:dl1 dl1:1:32:256:l -cache:dl2 dl2:1:32:131072:l -cache:il1 il1:1:32:256:l -cache:il2 dl2 double_aligned_mergesort1767252506
	sim-cache -cache:dl1 dl1:1:32:256:l -cache:dl2 dl2:1:32:65536:l -cache:il1 il1:1:32:256:l -cache:il2 dl2 double_aligned_mergesort1767252506
	sim-bpred -bpred bimod -bpred:bimod 512 double_aligned_mergesort1767252506
	sim-bpred -bpred bimod -bpred:bimod 1024 double_aligned_mergesort1767252506
	sim-bpred -bpred bimod -bpred:bimod 2048 double_aligned_mergesort1767252506
	sim-bpred -bpred 2lev -bpred:2lev 1 512 10 1 double_aligned_mergesort1767252506
	sim-bpred -bpred 2lev -bpred:2lev 1 1024 10 1 double_aligned_mergesort1767252506
	sim-bpred -bpred 2lev -bpred:2lev 1 2048 10 1 double_aligned_mergesort1767252506
	sim-bpred -bpred 2lev -bpred:2lev 1 4096 10 1 double_aligned_mergesort1767252506
	sslittle-na-sstrix-gcc -Wall -O3 -funroll-loops -finline-functions  -DRANDOM_SIZE=65536 -DOFFSET=5 -DSORT=double_aligned_mergesort sorts/double_aligned_mergesort1963604720.c simpleMain.c -o double_aligned_mergesort1767252506
	sim-cache -cache:dl1 dl1:256:32:1:l -cache:dl2 dl2:131072:32:1:l -cache:il1 il1:256:32:1:l -cache:il2 dl2 double_aligned_mergesort1767252506
	sim-cache -cache:dl1 dl1:256:32:1:l -cache:dl2 dl2:65536:32:1:l -cache:il1 il1:256:32:1:l -cache:il2 dl2 double_aligned_mergesort1767252506
	sim-cache -cache:dl1 dl1:1:32:256:l -cache:dl2 dl2:1:32:131072:l -cache:il1 il1:1:32:256:l -cache:il2 dl2 double_aligned_mergesort1767252506
	sim-cache -cache:dl1 dl1:1:32:256:l -cache:dl2 dl2:1:32:65536:l -cache:il1 il1:1:32:256:l -cache:il2 dl2 double_aligned_mergesort1767252506
	sim-bpred -bpred bimod -bpred:bimod 512 double_aligned_mergesort1767252506
	sim-bpred -bpred bimod -bpred:bimod 1024 double_aligned_mergesort1767252506
	sim-bpred -bpred bimod -bpred:bimod 2048 double_aligned_mergesort1767252506
	sim-bpred -bpred 2lev -bpred:2lev 1 512 10 1 double_aligned_mergesort1767252506
	sim-bpred -bpred 2lev -bpred:2lev 1 1024 10 1 double_aligned_mergesort1767252506
	sim-bpred -bpred 2lev -bpred:2lev 1 2048 10 1 double_aligned_mergesort1767252506
	sim-bpred -bpred 2lev -bpred:2lev 1 4096 10 1 double_aligned_mergesort1767252506
	sslittle-na-sstrix-gcc -Wall -O3 -funroll-loops -finline-functions  -DRANDOM_SIZE=131072 -DOFFSET=5 -DSORT=double_aligned_mergesort sorts/double_aligned_mergesort1963604720.c simpleMain.c -o double_aligned_mergesort1767252506
	sim-cache -cache:dl1 dl1:256:32:1:l -cache:dl2 dl2:131072:32:1:l -cache:il1 il1:256:32:1:l -cache:il2 dl2 double_aligned_mergesort1767252506
	sim-cache -cache:dl1 dl1:256:32:1:l -cache:dl2 dl2:65536:32:1:l -cache:il1 il1:256:32:1:l -cache:il2 dl2 double_aligned_mergesort1767252506
	sim-cache -cache:dl1 dl1:1:32:256:l -cache:dl2 dl2:1:32:131072:l -cache:il1 il1:1:32:256:l -cache:il2 dl2 double_aligned_mergesort1767252506
	sim-cache -cache:dl1 dl1:1:32:256:l -cache:dl2 dl2:1:32:65536:l -cache:il1 il1:1:32:256:l -cache:il2 dl2 double_aligned_mergesort1767252506
	sim-bpred -bpred bimod -bpred:bimod 512 double_aligned_mergesort1767252506
	sim-bpred -bpred bimod -bpred:bimod 1024 double_aligned_mergesort1767252506
	sim-bpred -bpred bimod -bpred:bimod 2048 double_aligned_mergesort1767252506
	sim-bpred -bpred 2lev -bpred:2lev 1 512 10 1 double_aligned_mergesort1767252506
	sim-bpred -bpred 2lev -bpred:2lev 1 1024 10 1 double_aligned_mergesort1767252506
	sim-bpred -bpred 2lev -bpred:2lev 1 2048 10 1 double_aligned_mergesort1767252506
	sim-bpred -bpred 2lev -bpred:2lev 1 4096 10 1 double_aligned_mergesort1767252506
	sslittle-na-sstrix-gcc -Wall -O3 -funroll-loops -finline-functions  -DRANDOM_SIZE=262144 -DOFFSET=5 -DSORT=double_aligned_mergesort sorts/double_aligned_mergesort1963604720.c simpleMain.c -o double_aligned_mergesort1767252506
	sim-cache -cache:dl1 dl1:256:32:1:l -cache:dl2 dl2:131072:32:1:l -cache:il1 il1:256:32:1:l -cache:il2 dl2 double_aligned_mergesort1767252506
	sim-cache -cache:dl1 dl1:256:32:1:l -cache:dl2 dl2:65536:32:1:l -cache:il1 il1:256:32:1:l -cache:il2 dl2 double_aligned_mergesort1767252506
	sim-cache -cache:dl1 dl1:1:32:256:l -cache:dl2 dl2:1:32:131072:l -cache:il1 il1:1:32:256:l -cache:il2 dl2 double_aligned_mergesort1767252506
	sim-cache -cache:dl1 dl1:1:32:256:l -cache:dl2 dl2:1:32:65536:l -cache:il1 il1:1:32:256:l -cache:il2 dl2 double_aligned_mergesort1767252506
	sim-bpred -bpred bimod -bpred:bimod 512 double_aligned_mergesort1767252506
	sim-bpred -bpred bimod -bpred:bimod 1024 double_aligned_mergesort1767252506
	sim-bpred -bpred bimod -bpred:bimod 2048 double_aligned_mergesort1767252506
	sim-bpred -bpred 2lev -bpred:2lev 1 512 10 1 double_aligned_mergesort1767252506
	sim-bpred -bpred 2lev -bpred:2lev 1 1024 10 1 double_aligned_mergesort1767252506
	sim-bpred -bpred 2lev -bpred:2lev 1 2048 10 1 double_aligned_mergesort1767252506
	sim-bpred -bpred 2lev -bpred:2lev 1 4096 10 1 double_aligned_mergesort1767252506
	sslittle-na-sstrix-gcc -Wall -O3 -funroll-loops -finline-functions  -DRANDOM_SIZE=524288 -DOFFSET=5 -DSORT=double_aligned_mergesort sorts/double_aligned_mergesort1963604720.c simpleMain.c -o double_aligned_mergesort1767252506
	sim-cache -cache:dl1 dl1:256:32:1:l -cache:dl2 dl2:131072:32:1:l -cache:il1 il1:256:32:1:l -cache:il2 dl2 double_aligned_mergesort1767252506
	sim-cache -cache:dl1 dl1:256:32:1:l -cache:dl2 dl2:65536:32:1:l -cache:il1 il1:256:32:1:l -cache:il2 dl2 double_aligned_mergesort1767252506
	sim-cache -cache:dl1 dl1:1:32:256:l -cache:dl2 dl2:1:32:131072:l -cache:il1 il1:1:32:256:l -cache:il2 dl2 double_aligned_mergesort1767252506
	sim-cache -cache:dl1 dl1:1:32:256:l -cache:dl2 dl2:1:32:65536:l -cache:il1 il1:1:32:256:l -cache:il2 dl2 double_aligned_mergesort1767252506
	sim-bpred -bpred bimod -bpred:bimod 512 double_aligned_mergesort1767252506
	sim-bpred -bpred bimod -bpred:bimod 1024 double_aligned_mergesort1767252506
	sim-bpred -bpred bimod -bpred:bimod 2048 double_aligned_mergesort1767252506
	sim-bpred -bpred 2lev -bpred:2lev 1 512 10 1 double_aligned_mergesort1767252506
	sim-bpred -bpred 2lev -bpred:2lev 1 1024 10 1 double_aligned_mergesort1767252506
	sim-bpred -bpred 2lev -bpred:2lev 1 2048 10 1 double_aligned_mergesort1767252506
	sim-bpred -bpred 2lev -bpred:2lev 1 4096 10 1 double_aligned_mergesort1767252506
	sslittle-na-sstrix-gcc -Wall -O3 -funroll-loops -finline-functions  -DRANDOM_SIZE=1048576 -DOFFSET=5 -DSORT=double_aligned_mergesort sorts/double_aligned_mergesort1963604720.c simpleMain.c -o double_aligned_mergesort1767252506
	sim-cache -cache:dl1 dl1:256:32:1:l -cache:dl2 dl2:131072:32:1:l -cache:il1 il1:256:32:1:l -cache:il2 dl2 double_aligned_mergesort1767252506
	sim-cache -cache:dl1 dl1:256:32:1:l -cache:dl2 dl2:65536:32:1:l -cache:il1 il1:256:32:1:l -cache:il2 dl2 double_aligned_mergesort1767252506
	sim-cache -cache:dl1 dl1:1:32:256:l -cache:dl2 dl2:1:32:131072:l -cache:il1 il1:1:32:256:l -cache:il2 dl2 double_aligned_mergesort1767252506
	sim-cache -cache:dl1 dl1:1:32:256:l -cache:dl2 dl2:1:32:65536:l -cache:il1 il1:1:32:256:l -cache:il2 dl2 double_aligned_mergesort1767252506
	sim-bpred -bpred bimod -bpred:bimod 512 double_aligned_mergesort1767252506
	sim-bpred -bpred bimod -bpred:bimod 1024 double_aligned_mergesort1767252506
	sim-bpred -bpred bimod -bpred:bimod 2048 double_aligned_mergesort1767252506
	sim-bpred -bpred 2lev -bpred:2lev 1 512 10 1 double_aligned_mergesort1767252506
	sim-bpred -bpred 2lev -bpred:2lev 1 1024 10 1 double_aligned_mergesort1767252506
	sim-bpred -bpred 2lev -bpred:2lev 1 2048 10 1 double_aligned_mergesort1767252506
	sim-bpred -bpred 2lev -bpred:2lev 1 4096 10 1 double_aligned_mergesort1767252506
	sslittle-na-sstrix-gcc -Wall -O3 -funroll-loops -finline-functions  -DRANDOM_SIZE=2097152 -DOFFSET=5 -DSORT=double_aligned_mergesort sorts/double_aligned_mergesort1963604720.c simpleMain.c -o double_aligned_mergesort1767252506
	sim-cache -cache:dl1 dl1:256:32:1:l -cache:dl2 dl2:131072:32:1:l -cache:il1 il1:256:32:1:l -cache:il2 dl2 double_aligned_mergesort1767252506
	sim-cache -cache:dl1 dl1:256:32:1:l -cache:dl2 dl2:65536:32:1:l -cache:il1 il1:256:32:1:l -cache:il2 dl2 double_aligned_mergesort1767252506
	sim-cache -cache:dl1 dl1:1:32:256:l -cache:dl2 dl2:1:32:131072:l -cache:il1 il1:1:32:256:l -cache:il2 dl2 double_aligned_mergesort1767252506
	sim-cache -cache:dl1 dl1:1:32:256:l -cache:dl2 dl2:1:32:65536:l -cache:il1 il1:1:32:256:l -cache:il2 dl2 double_aligned_mergesort1767252506
	sim-bpred -bpred bimod -bpred:bimod 512 double_aligned_mergesort1767252506
	sim-bpred -bpred bimod -bpred:bimod 1024 double_aligned_mergesort1767252506
	sim-bpred -bpred bimod -bpred:bimod 2048 double_aligned_mergesort1767252506
	sim-bpred -bpred 2lev -bpred:2lev 1 512 10 1 double_aligned_mergesort1767252506
	sim-bpred -bpred 2lev -bpred:2lev 1 1024 10 1 double_aligned_mergesort1767252506
	sim-bpred -bpred 2lev -bpred:2lev 1 2048 10 1 double_aligned_mergesort1767252506
	sim-bpred -bpred 2lev -bpred:2lev 1 4096 10 1 double_aligned_mergesort1767252506
	sslittle-na-sstrix-gcc -Wall -O3 -funroll-loops -finline-functions  -DRANDOM_SIZE=4194304 -DOFFSET=5 -DSORT=double_aligned_mergesort sorts/double_aligned_mergesort1963604720.c simpleMain.c -o double_aligned_mergesort1767252506
	sim-cache -cache:dl1 dl1:256:32:1:l -cache:dl2 dl2:131072:32:1:l -cache:il1 il1:256:32:1:l -cache:il2 dl2 double_aligned_mergesort1767252506
	sim-cache -cache:dl1 dl1:256:32:1:l -cache:dl2 dl2:65536:32:1:l -cache:il1 il1:256:32:1:l -cache:il2 dl2 double_aligned_mergesort1767252506
	sim-cache -cache:dl1 dl1:1:32:256:l -cache:dl2 dl2:1:32:131072:l -cache:il1 il1:1:32:256:l -cache:il2 dl2 double_aligned_mergesort1767252506
	sim-cache -cache:dl1 dl1:1:32:256:l -cache:dl2 dl2:1:32:65536:l -cache:il1 il1:1:32:256:l -cache:il2 dl2 double_aligned_mergesort1767252506
	sim-bpred -bpred bimod -bpred:bimod 512 double_aligned_mergesort1767252506
	sim-bpred -bpred bimod -bpred:bimod 1024 double_aligned_mergesort1767252506
	sim-bpred -bpred bimod -bpred:bimod 2048 double_aligned_mergesort1767252506
	sim-bpred -bpred 2lev -bpred:2lev 1 512 10 1 double_aligned_mergesort1767252506
	sim-bpred -bpred 2lev -bpred:2lev 1 1024 10 1 double_aligned_mergesort1767252506
	sim-bpred -bpred 2lev -bpred:2lev 1 2048 10 1 double_aligned_mergesort1767252506
	sim-bpred -bpred 2lev -bpred:2lev 1 4096 10 1 double_aligned_mergesort1767252506
