Tue Jun 28 14:09:05 2005
Run as: "./do_simple -c random.org2 -o 2 improved_shellsort"
-------------------------------------------------------------------------------------------------
sim-cache                                     4096 |         4096 |         4096 |         4096 |         8192 |         8192 |         8192 |         8192 |        16384 |        16384 |        16384 |        16384 |        32768 |        32768 |        32768 |        32768 |        65536 |        65536 |        65536 |        65536 |       131072 |       131072 |       131072 |       131072 |       262144 |       262144 |       262144 |       262144 |       524288 |       524288 |       524288 |       524288 |      1048576 |      1048576 |      1048576 |      1048576 |      2097152 |      2097152 |      2097152 |      2097152 |      4194304 |      4194304 |      4194304 |      4194304 |
-cache:dl1 dl1:256:32:1:l -cache:dl2 dl2:131072:32:1:l -cache:il1 il1:256:32:1:l -cache:il2 dl2
-cache:dl1 dl1:256:32:1:l -cache:dl2 dl2:65536:32:1:l -cache:il1 il1:256:32:1:l -cache:il2 dl2
-cache:dl1 dl1:1:32:256:l -cache:dl2 dl2:1:32:131072:l -cache:il1 il1:1:32:256:l -cache:il2 dl2
-cache:dl1 dl1:1:32:256:l -cache:dl2 dl2:1:32:65536:l -cache:il1 il1:1:32:256:l -cache:il2 dl2
-------------------------------------------------------------------------------------------------
sim_num_insn                                901391 |       901391 |       901391 |       901391 |      2009004 |      2009004 |      2009004 |      2009004 |      4558493 |      4558493 |      4558493 |      4558493 |      9927234 |      9927234 |      9927234 |      9927234 |     21253611 |     21253611 |     21253611 |     21253611 |     47163640 |     47163640 |     47163640 |     47163640 |     97518795 |     97518795 |     97518795 |     97518795 |    209684706 |    209684706 |    209684706 |    209684706 |    443731204 |    443731204 |    443731204 |    443731204 |    953996189 |    953996189 |    953996189 |    953996189 |   1993400135 |   1993400135 |   1993400135 |   1993400135 |
sim_num_refs                                192024 |       192024 |       192024 |       192024 |       419831 |       419831 |       419831 |       419831 |       917453 |       917453 |       917453 |       917453 |      1985367 |      1985367 |      1985367 |      1985367 |      4621303 |      4621303 |      4621303 |      4621303 |     10092206 |     10092206 |     10092206 |     10092206 |     20105559 |     20105559 |     20105559 |     20105559 |     42568342 |     42568342 |     42568342 |     42568342 |     88373245 |     88373245 |     88373245 |     88373245 |    190947174 |    190947174 |    190947174 |    190947174 |    386144214 |    386144214 |    386144214 |    386144214 |
sim_elapsed_time                                 1 |            1 |            7 |            3 |            1 |            1 |           10 |            4 |            1 |            2 |           14 |            8 |            3 |            2 |           26 |           14 |            5 |            5 |           48 |           26 |           12 |           12 |           90 |           49 |           24 |           24 |          168 |           86 |           52 |           50 |          297 |          133 |          108 |          107 |          435 |          199 |          231 |          232 |          578 |          337 |          482 |          482 |          860 |          619 |
sim_inst_rate                          901391.0000 |  901391.0000 |  128770.1429 |  300463.6667 | 2009004.0000 | 2009004.0000 |  200900.4000 |  502251.0000 | 4558493.0000 | 2279246.5000 |  325606.6429 |  569811.6250 | 3309078.0000 | 4963617.0000 |  381816.6923 |  709088.1429 | 4250722.2000 | 4250722.2000 |  442783.5625 |  817446.5769 | 3930303.3333 | 3930303.3333 |  524040.4444 |  962523.2653 | 4063283.1250 | 4063283.1250 |  580469.0179 | 1133939.4767 | 4032398.1923 | 4193694.1200 |  706009.1111 | 1576576.7368 | 4108622.2593 | 4147020.5981 | 1020071.7333 | 2229805.0452 | 4129853.6320 | 4112052.5388 | 1650512.4377 | 2830849.2255 | 4135684.9274 | 4135684.9274 | 2317907.1337 | 3220355.6300 |
il1.accesses                                901391 |       901391 |       901391 |       901391 |      2009004 |      2009004 |      2009004 |      2009004 |      4558493 |      4558493 |      4558493 |      4558493 |      9927234 |      9927234 |      9927234 |      9927234 |     21253611 |     21253611 |     21253611 |     21253611 |     47163640 |     47163640 |     47163640 |     47163640 |     97518795 |     97518795 |     97518795 |     97518795 |    209684706 |    209684706 |    209684706 |    209684706 |    443731204 |    443731204 |    443731204 |    443731204 |    953996189 |    953996189 |    953996189 |    953996189 |   1993400135 |   1993400135 |   1993400135 |   1993400135 |
il1.hits                                    900970 |       900970 |       901030 |       901030 |      2008581 |      2008581 |      2008641 |      2008641 |      4558079 |      4558079 |      4558133 |      4558133 |      9926810 |      9926810 |      9926870 |      9926870 |     21253187 |     21253187 |     21253247 |     21253247 |     47163217 |     47163217 |     47163277 |     47163277 |     97518372 |     97518372 |     97518432 |     97518432 |    209684283 |    209684283 |    209684343 |    209684343 |    443730781 |    443730781 |    443730841 |    443730841 |    953995766 |    953995766 |    953995826 |    953995826 |   1993399712 |   1993399712 |   1993399772 |   1993399772 |
il1.misses                                     421 |          421 |          361 |          361 |          423 |          423 |          363 |          363 |          414 |          414 |          360 |          360 |          424 |          424 |          364 |          364 |          424 |          424 |          364 |          364 |          423 |          423 |          363 |          363 |          423 |          423 |          363 |          363 |          423 |          423 |          363 |          363 |          423 |          423 |          363 |          363 |          423 |          423 |          363 |          363 |          423 |          423 |          363 |          363 |
il1.replacements                               210 |          210 |          105 |          105 |          210 |          210 |          107 |          107 |          204 |          204 |          104 |          104 |          210 |          210 |          108 |          108 |          210 |          210 |          108 |          108 |          209 |          209 |          107 |          107 |          209 |          209 |          107 |          107 |          209 |          209 |          107 |          107 |          209 |          209 |          107 |          107 |          209 |          209 |          107 |          107 |          209 |          209 |          107 |          107 |
il1.writebacks                                   0 |            0 |            0 |            0 |            0 |            0 |            0 |            0 |            0 |            0 |            0 |            0 |            0 |            0 |            0 |            0 |            0 |            0 |            0 |            0 |            0 |            0 |            0 |            0 |            0 |            0 |            0 |            0 |            0 |            0 |            0 |            0 |            0 |            0 |            0 |            0 |            0 |            0 |            0 |            0 |            0 |            0 |            0 |            0 |
il1.invalidations                                0 |            0 |            0 |            0 |            0 |            0 |            0 |            0 |            0 |            0 |            0 |            0 |            0 |            0 |            0 |            0 |            0 |            0 |            0 |            0 |            0 |            0 |            0 |            0 |            0 |            0 |            0 |            0 |            0 |            0 |            0 |            0 |            0 |            0 |            0 |            0 |            0 |            0 |            0 |            0 |            0 |            0 |            0 |            0 |
il1.miss_rate                               0.0005 |       0.0005 |       0.0004 |       0.0004 |       0.0002 |       0.0002 |       0.0002 |       0.0002 |       0.0001 |       0.0001 |       0.0001 |       0.0001 |       0.0000 |       0.0000 |       0.0000 |       0.0000 |       0.0000 |       0.0000 |       0.0000 |       0.0000 |       0.0000 |       0.0000 |       0.0000 |       0.0000 |       0.0000 |       0.0000 |       0.0000 |       0.0000 |       0.0000 |       0.0000 |       0.0000 |       0.0000 |       0.0000 |       0.0000 |       0.0000 |       0.0000 |       0.0000 |       0.0000 |       0.0000 |       0.0000 |       0.0000 |       0.0000 |       0.0000 |       0.0000 |
il1.repl_rate                               0.0002 |       0.0002 |       0.0001 |       0.0001 |       0.0001 |       0.0001 |       0.0001 |       0.0001 |       0.0000 |       0.0000 |       0.0000 |       0.0000 |       0.0000 |       0.0000 |       0.0000 |       0.0000 |       0.0000 |       0.0000 |       0.0000 |       0.0000 |       0.0000 |       0.0000 |       0.0000 |       0.0000 |       0.0000 |       0.0000 |       0.0000 |       0.0000 |       0.0000 |       0.0000 |       0.0000 |       0.0000 |       0.0000 |       0.0000 |       0.0000 |       0.0000 |       0.0000 |       0.0000 |       0.0000 |       0.0000 |       0.0000 |       0.0000 |       0.0000 |       0.0000 |
il1.wb_rate                                 0.0000 |       0.0000 |       0.0000 |       0.0000 |       0.0000 |       0.0000 |       0.0000 |       0.0000 |       0.0000 |       0.0000 |       0.0000 |       0.0000 |       0.0000 |       0.0000 |       0.0000 |       0.0000 |       0.0000 |       0.0000 |       0.0000 |       0.0000 |       0.0000 |       0.0000 |       0.0000 |       0.0000 |       0.0000 |       0.0000 |       0.0000 |       0.0000 |       0.0000 |       0.0000 |       0.0000 |       0.0000 |       0.0000 |       0.0000 |       0.0000 |       0.0000 |       0.0000 |       0.0000 |       0.0000 |       0.0000 |       0.0000 |       0.0000 |       0.0000 |       0.0000 |
il1.inv_rate                                0.0000 |       0.0000 |       0.0000 |       0.0000 |       0.0000 |       0.0000 |       0.0000 |       0.0000 |       0.0000 |       0.0000 |       0.0000 |       0.0000 |       0.0000 |       0.0000 |       0.0000 |       0.0000 |       0.0000 |       0.0000 |       0.0000 |       0.0000 |       0.0000 |       0.0000 |       0.0000 |       0.0000 |       0.0000 |       0.0000 |       0.0000 |       0.0000 |       0.0000 |       0.0000 |       0.0000 |       0.0000 |       0.0000 |       0.0000 |       0.0000 |       0.0000 |       0.0000 |       0.0000 |       0.0000 |       0.0000 |       0.0000 |       0.0000 |       0.0000 |       0.0000 |
dl1.accesses                                208490 |       208490 |       208490 |       208490 |       452681 |       452681 |       452681 |       452681 |       983071 |       983071 |       983071 |       983071 |      2116521 |      2116521 |      2116521 |      2116521 |      4883529 |      4883529 |      4883529 |      4883529 |     10616576 |     10616576 |     10616576 |     10616576 |     21154217 |     21154217 |     21154217 |     21154217 |     44665576 |     44665576 |     44665576 |     44665576 |     92567631 |     92567631 |     92567631 |     92567631 |    199335864 |    199335864 |    199335864 |    199335864 |    402921512 |    402921512 |    402921512 |    402921512 |
dl1.hits                                    202534 |       202534 |       202133 |       202133 |       437062 |       437062 |       436365 |       436365 |       942620 |       942620 |       941258 |       941258 |      2019917 |      2019917 |      2012982 |      2012982 |      4654111 |      4654111 |      4641591 |      4641591 |     10071422 |     10071422 |     10046779 |     10046779 |     19920163 |     19920163 |     19827858 |     19827858 |     41827598 |     41827598 |     41636186 |     41636186 |     86307216 |     86307216 |     85800029 |     85800029 |    185298236 |    185298236 |    184856536 |    184856536 |    372182398 |    372182398 |    371999239 |    371999239 |
dl1.misses                                    5956 |         5956 |         6357 |         6357 |        15619 |        15619 |        16316 |        16316 |        40451 |        40451 |        41813 |        41813 |        96604 |        96604 |       103539 |       103539 |       229418 |       229418 |       241938 |       241938 |       545154 |       545154 |       569797 |       569797 |      1234054 |      1234054 |      1326359 |      1326359 |      2837978 |      2837978 |      3029390 |      3029390 |      6260415 |      6260415 |      6767602 |      6767602 |     14037628 |     14037628 |     14479328 |     14479328 |     30739114 |     30739114 |     30922273 |     30922273 |
dl1.replacements                              5700 |         5700 |         6101 |         6101 |        15363 |        15363 |        16060 |        16060 |        40195 |        40195 |        41557 |        41557 |        96348 |        96348 |       103283 |       103283 |       229162 |       229162 |       241682 |       241682 |       544898 |       544898 |       569541 |       569541 |      1233798 |      1233798 |      1326103 |      1326103 |      2837722 |      2837722 |      3029134 |      3029134 |      6260159 |      6260159 |      6767346 |      6767346 |     14037372 |     14037372 |     14479072 |     14479072 |     30738858 |     30738858 |     30922017 |     30922017 |
dl1.writebacks                                5593 |         5593 |         5889 |         5889 |        14304 |        14304 |        14863 |        14863 |        36246 |        36246 |        37332 |        37332 |        85453 |        85453 |        91048 |        91048 |       199213 |       199213 |       209789 |       209789 |       468804 |       468804 |       489902 |       489902 |      1058636 |      1058636 |      1134816 |      1134816 |      2420244 |      2420244 |      2581758 |      2581758 |      5331221 |      5331221 |      5743977 |      5743977 |     11913298 |     11913298 |     12281492 |     12281492 |     26046099 |     26046099 |     26169899 |     26169899 |
dl1.invalidations                                0 |            0 |            0 |            0 |            0 |            0 |            0 |            0 |            0 |            0 |            0 |            0 |            0 |            0 |            0 |            0 |            0 |            0 |            0 |            0 |            0 |            0 |            0 |            0 |            0 |            0 |            0 |            0 |            0 |            0 |            0 |            0 |            0 |            0 |            0 |            0 |            0 |            0 |            0 |            0 |            0 |            0 |            0 |            0 |
dl1.miss_rate                               0.0286 |       0.0286 |       0.0305 |       0.0305 |       0.0345 |       0.0345 |       0.0360 |       0.0360 |       0.0411 |       0.0411 |       0.0425 |       0.0425 |       0.0456 |       0.0456 |       0.0489 |       0.0489 |       0.0470 |       0.0470 |       0.0495 |       0.0495 |       0.0513 |       0.0513 |       0.0537 |       0.0537 |       0.0583 |       0.0583 |       0.0627 |       0.0627 |       0.0635 |       0.0635 |       0.0678 |       0.0678 |       0.0676 |       0.0676 |       0.0731 |       0.0731 |       0.0704 |       0.0704 |       0.0726 |       0.0726 |       0.0763 |       0.0763 |       0.0767 |       0.0767 |
dl1.repl_rate                               0.0273 |       0.0273 |       0.0293 |       0.0293 |       0.0339 |       0.0339 |       0.0355 |       0.0355 |       0.0409 |       0.0409 |       0.0423 |       0.0423 |       0.0455 |       0.0455 |       0.0488 |       0.0488 |       0.0469 |       0.0469 |       0.0495 |       0.0495 |       0.0513 |       0.0513 |       0.0536 |       0.0536 |       0.0583 |       0.0583 |       0.0627 |       0.0627 |       0.0635 |       0.0635 |       0.0678 |       0.0678 |       0.0676 |       0.0676 |       0.0731 |       0.0731 |       0.0704 |       0.0704 |       0.0726 |       0.0726 |       0.0763 |       0.0763 |       0.0767 |       0.0767 |
dl1.wb_rate                                 0.0268 |       0.0268 |       0.0282 |       0.0282 |       0.0316 |       0.0316 |       0.0328 |       0.0328 |       0.0369 |       0.0369 |       0.0380 |       0.0380 |       0.0404 |       0.0404 |       0.0430 |       0.0430 |       0.0408 |       0.0408 |       0.0430 |       0.0430 |       0.0442 |       0.0442 |       0.0461 |       0.0461 |       0.0500 |       0.0500 |       0.0536 |       0.0536 |       0.0542 |       0.0542 |       0.0578 |       0.0578 |       0.0576 |       0.0576 |       0.0621 |       0.0621 |       0.0598 |       0.0598 |       0.0616 |       0.0616 |       0.0646 |       0.0646 |       0.0650 |       0.0650 |
dl1.inv_rate                                0.0000 |       0.0000 |       0.0000 |       0.0000 |       0.0000 |       0.0000 |       0.0000 |       0.0000 |       0.0000 |       0.0000 |       0.0000 |       0.0000 |       0.0000 |       0.0000 |       0.0000 |       0.0000 |       0.0000 |       0.0000 |       0.0000 |       0.0000 |       0.0000 |       0.0000 |       0.0000 |       0.0000 |       0.0000 |       0.0000 |       0.0000 |       0.0000 |       0.0000 |       0.0000 |       0.0000 |       0.0000 |       0.0000 |       0.0000 |       0.0000 |       0.0000 |       0.0000 |       0.0000 |       0.0000 |       0.0000 |       0.0000 |       0.0000 |       0.0000 |       0.0000 |
dl2.accesses                                 11970 |        11970 |        12607 |        12607 |        30346 |        30346 |        31542 |        31542 |        77111 |        77111 |        79505 |        79505 |       182481 |       182481 |       194951 |       194951 |       429055 |       429055 |       452091 |       452091 |      1014381 |      1014381 |      1060062 |      1060062 |      2293113 |      2293113 |      2461538 |      2461538 |      5258645 |      5258645 |      5611511 |      5611511 |     11592059 |     11592059 |     12511942 |     12511942 |     25951349 |     25951349 |     26761183 |     26761183 |     56785636 |     56785636 |     57092535 |     57092535 |
dl2.hits                                     10681 |        10681 |        11322 |        11322 |        28543 |        28543 |        29743 |        29743 |        74288 |        74288 |        76688 |        76688 |       177605 |       177605 |       190079 |       190079 |       420083 |       420083 |       443123 |       443123 |       997218 |       997218 |      1042903 |      1042903 |      2259566 |      2259566 |      2427995 |      2427995 |      5192330 |      5192223 |      5545200 |      5312219 |     11460099 |      9265082 |     11901085 |     10081960 |     21036075 |     20212019 |     21640479 |     20860715 |     44785130 |     42870990 |     44768416 |     42827827 |
dl2.misses                                    1289 |         1289 |         1285 |         1285 |         1803 |         1803 |         1799 |         1799 |         2823 |         2823 |         2817 |         2817 |         4876 |         4876 |         4872 |         4872 |         8972 |         8972 |         8968 |         8968 |        17163 |        17163 |        17159 |        17159 |        33547 |        33547 |        33543 |        33543 |        66315 |        66422 |        66311 |       299292 |       131960 |      2326977 |       610857 |      2429982 |      4915274 |      5739330 |      5120704 |      5900468 |     12000506 |     13914646 |     12324119 |     14264708 |
dl2.replacements                                57 |           57 |            0 |            0 |           58 |           58 |            0 |            0 |           63 |           63 |            0 |            0 |           59 |           59 |            0 |            0 |           59 |           59 |            0 |            0 |           59 |           59 |            0 |            0 |           59 |           59 |            0 |            0 |           59 |          886 |            0 |       233756 |          888 |      2261441 |       479785 |      2364446 |      4784202 |      5673794 |      4989632 |      5834932 |     11869434 |     13849110 |     12193047 |     14199172 |
dl2.writebacks                                   2 |            2 |            0 |            0 |            2 |            2 |            0 |            0 |            2 |            2 |            0 |            0 |            2 |            2 |            0 |            0 |            2 |            2 |            0 |            0 |            2 |            2 |            0 |            0 |            2 |            2 |            0 |            0 |            2 |          695 |            0 |       233610 |          697 |      2235794 |       479642 |      2314316 |      4732979 |      5395672 |      4890082 |      5527116 |     11313714 |     12832468 |     11577149 |     13109207 |
dl2.invalidations                                0 |            0 |            0 |            0 |            0 |            0 |            0 |            0 |            0 |            0 |            0 |            0 |            0 |            0 |            0 |            0 |            0 |            0 |            0 |            0 |            0 |            0 |            0 |            0 |            0 |            0 |            0 |            0 |            0 |            0 |            0 |            0 |            0 |            0 |            0 |            0 |            0 |            0 |            0 |            0 |            0 |            0 |            0 |            0 |
dl2.miss_rate                               0.1077 |       0.1077 |       0.1019 |       0.1019 |       0.0594 |       0.0594 |       0.0570 |       0.0570 |       0.0366 |       0.0366 |       0.0354 |       0.0354 |       0.0267 |       0.0267 |       0.0250 |       0.0250 |       0.0209 |       0.0209 |       0.0198 |       0.0198 |       0.0169 |       0.0169 |       0.0162 |       0.0162 |       0.0146 |       0.0146 |       0.0136 |       0.0136 |       0.0126 |       0.0126 |       0.0118 |       0.0533 |       0.0114 |       0.2007 |       0.0488 |       0.1942 |       0.1894 |       0.2212 |       0.1913 |       0.2205 |       0.2113 |       0.2450 |       0.2159 |       0.2499 |
dl2.repl_rate                               0.0048 |       0.0048 |       0.0000 |       0.0000 |       0.0019 |       0.0019 |       0.0000 |       0.0000 |       0.0008 |       0.0008 |       0.0000 |       0.0000 |       0.0003 |       0.0003 |       0.0000 |       0.0000 |       0.0001 |       0.0001 |       0.0000 |       0.0000 |       0.0001 |       0.0001 |       0.0000 |       0.0000 |       0.0000 |       0.0000 |       0.0000 |       0.0000 |       0.0000 |       0.0002 |       0.0000 |       0.0417 |       0.0001 |       0.1951 |       0.0383 |       0.1890 |       0.1844 |       0.2186 |       0.1865 |       0.2180 |       0.2090 |       0.2439 |       0.2136 |       0.2487 |
dl2.wb_rate                                 0.0002 |       0.0002 |       0.0000 |       0.0000 |       0.0001 |       0.0001 |       0.0000 |       0.0000 |       0.0000 |       0.0000 |       0.0000 |       0.0000 |       0.0000 |       0.0000 |       0.0000 |       0.0000 |       0.0000 |       0.0000 |       0.0000 |       0.0000 |       0.0000 |       0.0000 |       0.0000 |       0.0000 |       0.0000 |       0.0000 |       0.0000 |       0.0000 |       0.0000 |       0.0001 |       0.0000 |       0.0416 |       0.0001 |       0.1929 |       0.0383 |       0.1850 |       0.1824 |       0.2079 |       0.1827 |       0.2065 |       0.1992 |       0.2260 |       0.2028 |       0.2296 |
dl2.inv_rate                                0.0000 |       0.0000 |       0.0000 |       0.0000 |       0.0000 |       0.0000 |       0.0000 |       0.0000 |       0.0000 |       0.0000 |       0.0000 |       0.0000 |       0.0000 |       0.0000 |       0.0000 |       0.0000 |       0.0000 |       0.0000 |       0.0000 |       0.0000 |       0.0000 |       0.0000 |       0.0000 |       0.0000 |       0.0000 |       0.0000 |       0.0000 |       0.0000 |       0.0000 |       0.0000 |       0.0000 |       0.0000 |       0.0000 |       0.0000 |       0.0000 |       0.0000 |       0.0000 |       0.0000 |       0.0000 |       0.0000 |       0.0000 |       0.0000 |       0.0000 |       0.0000 |
itlb.accesses                               901391 |       901391 |       901391 |       901391 |      2009004 |      2009004 |      2009004 |      2009004 |      4558493 |      4558493 |      4558493 |      4558493 |      9927234 |      9927234 |      9927234 |      9927234 |     21253611 |     21253611 |     21253611 |     21253611 |     47163640 |     47163640 |     47163640 |     47163640 |     97518795 |     97518795 |     97518795 |     97518795 |    209684706 |    209684706 |    209684706 |    209684706 |    443731204 |    443731204 |    443731204 |    443731204 |    953996189 |    953996189 |    953996189 |    953996189 |   1993400135 |   1993400135 |   1993400135 |   1993400135 |
itlb.hits                                   901382 |       901382 |       901382 |       901382 |      2008995 |      2008995 |      2008995 |      2008995 |      4558484 |      4558484 |      4558484 |      4558484 |      9927224 |      9927224 |      9927224 |      9927224 |     21253601 |     21253601 |     21253601 |     21253601 |     47163630 |     47163630 |     47163630 |     47163630 |     97518785 |     97518785 |     97518785 |     97518785 |    209684696 |    209684696 |    209684696 |    209684696 |    443731194 |    443731194 |    443731194 |    443731194 |    953996179 |    953996179 |    953996179 |    953996179 |   1993400125 |   1993400125 |   1993400125 |   1993400125 |
itlb.misses                                      9 |            9 |            9 |            9 |            9 |            9 |            9 |            9 |            9 |            9 |            9 |            9 |           10 |           10 |           10 |           10 |           10 |           10 |           10 |           10 |           10 |           10 |           10 |           10 |           10 |           10 |           10 |           10 |           10 |           10 |           10 |           10 |           10 |           10 |           10 |           10 |           10 |           10 |           10 |           10 |           10 |           10 |           10 |           10 |
itlb.replacements                                0 |            0 |            0 |            0 |            0 |            0 |            0 |            0 |            0 |            0 |            0 |            0 |            0 |            0 |            0 |            0 |            0 |            0 |            0 |            0 |            0 |            0 |            0 |            0 |            0 |            0 |            0 |            0 |            0 |            0 |            0 |            0 |            0 |            0 |            0 |            0 |            0 |            0 |            0 |            0 |            0 |            0 |            0 |            0 |
itlb.writebacks                                  0 |            0 |            0 |            0 |            0 |            0 |            0 |            0 |            0 |            0 |            0 |            0 |            0 |            0 |            0 |            0 |            0 |            0 |            0 |            0 |            0 |            0 |            0 |            0 |            0 |            0 |            0 |            0 |            0 |            0 |            0 |            0 |            0 |            0 |            0 |            0 |            0 |            0 |            0 |            0 |            0 |            0 |            0 |            0 |
itlb.invalidations                               0 |            0 |            0 |            0 |            0 |            0 |            0 |            0 |            0 |            0 |            0 |            0 |            0 |            0 |            0 |            0 |            0 |            0 |            0 |            0 |            0 |            0 |            0 |            0 |            0 |            0 |            0 |            0 |            0 |            0 |            0 |            0 |            0 |            0 |            0 |            0 |            0 |            0 |            0 |            0 |            0 |            0 |            0 |            0 |
itlb.miss_rate                              0.0000 |       0.0000 |       0.0000 |       0.0000 |       0.0000 |       0.0000 |       0.0000 |       0.0000 |       0.0000 |       0.0000 |       0.0000 |       0.0000 |       0.0000 |       0.0000 |       0.0000 |       0.0000 |       0.0000 |       0.0000 |       0.0000 |       0.0000 |       0.0000 |       0.0000 |       0.0000 |       0.0000 |       0.0000 |       0.0000 |       0.0000 |       0.0000 |       0.0000 |       0.0000 |       0.0000 |       0.0000 |       0.0000 |       0.0000 |       0.0000 |       0.0000 |       0.0000 |       0.0000 |       0.0000 |       0.0000 |       0.0000 |       0.0000 |       0.0000 |       0.0000 |
itlb.repl_rate                              0.0000 |       0.0000 |       0.0000 |       0.0000 |       0.0000 |       0.0000 |       0.0000 |       0.0000 |       0.0000 |       0.0000 |       0.0000 |       0.0000 |       0.0000 |       0.0000 |       0.0000 |       0.0000 |       0.0000 |       0.0000 |       0.0000 |       0.0000 |       0.0000 |       0.0000 |       0.0000 |       0.0000 |       0.0000 |       0.0000 |       0.0000 |       0.0000 |       0.0000 |       0.0000 |       0.0000 |       0.0000 |       0.0000 |       0.0000 |       0.0000 |       0.0000 |       0.0000 |       0.0000 |       0.0000 |       0.0000 |       0.0000 |       0.0000 |       0.0000 |       0.0000 |
itlb.wb_rate                                0.0000 |       0.0000 |       0.0000 |       0.0000 |       0.0000 |       0.0000 |       0.0000 |       0.0000 |       0.0000 |       0.0000 |       0.0000 |       0.0000 |       0.0000 |       0.0000 |       0.0000 |       0.0000 |       0.0000 |       0.0000 |       0.0000 |       0.0000 |       0.0000 |       0.0000 |       0.0000 |       0.0000 |       0.0000 |       0.0000 |       0.0000 |       0.0000 |       0.0000 |       0.0000 |       0.0000 |       0.0000 |       0.0000 |       0.0000 |       0.0000 |       0.0000 |       0.0000 |       0.0000 |       0.0000 |       0.0000 |       0.0000 |       0.0000 |       0.0000 |       0.0000 |
itlb.inv_rate                               0.0000 |       0.0000 |       0.0000 |       0.0000 |       0.0000 |       0.0000 |       0.0000 |       0.0000 |       0.0000 |       0.0000 |       0.0000 |       0.0000 |       0.0000 |       0.0000 |       0.0000 |       0.0000 |       0.0000 |       0.0000 |       0.0000 |       0.0000 |       0.0000 |       0.0000 |       0.0000 |       0.0000 |       0.0000 |       0.0000 |       0.0000 |       0.0000 |       0.0000 |       0.0000 |       0.0000 |       0.0000 |       0.0000 |       0.0000 |       0.0000 |       0.0000 |       0.0000 |       0.0000 |       0.0000 |       0.0000 |       0.0000 |       0.0000 |       0.0000 |       0.0000 |
dtlb.accesses                               208490 |       208490 |       208490 |       208490 |       452681 |       452681 |       452681 |       452681 |       983071 |       983071 |       983071 |       983071 |      2116521 |      2116521 |      2116521 |      2116521 |      4883529 |      4883529 |      4883529 |      4883529 |     10616576 |     10616576 |     10616576 |     10616576 |     21154217 |     21154217 |     21154217 |     21154217 |     44665576 |     44665576 |     44665576 |     44665576 |     92567631 |     92567631 |     92567631 |     92567631 |    199335864 |    199335864 |    199335864 |    199335864 |    402921512 |    402921512 |    402921512 |    402921512 |
dtlb.hits                                   208479 |       208479 |       208479 |       208479 |       452666 |       452666 |       452666 |       452666 |       983048 |       983048 |       983048 |       983048 |      2116482 |      2116482 |      2116482 |      2116482 |      4883458 |      4883458 |      4883458 |      4883458 |     10616377 |     10616377 |     10616377 |     10616377 |     21149215 |     21149215 |     21149215 |     21149215 |     44651192 |     44651192 |     44651192 |     44651192 |     92420797 |     92420797 |     92420797 |     92420797 |    199240071 |    199240071 |    199240071 |    199240071 |    402688438 |    402688438 |    402688438 |    402688438 |
dtlb.misses                                     11 |           11 |           11 |           11 |           15 |           15 |           15 |           15 |           23 |           23 |           23 |           23 |           39 |           39 |           39 |           39 |           71 |           71 |           71 |           71 |          199 |          199 |          199 |          199 |         5002 |         5002 |         5002 |         5002 |        14384 |        14384 |        14384 |        14384 |       146834 |       146834 |       146834 |       146834 |        95793 |        95793 |        95793 |        95793 |       233074 |       233074 |       233074 |       233074 |
dtlb.replacements                                0 |            0 |            0 |            0 |            0 |            0 |            0 |            0 |            0 |            0 |            0 |            0 |            0 |            0 |            0 |            0 |            0 |            0 |            0 |            0 |           71 |           71 |           71 |           71 |         4874 |         4874 |         4874 |         4874 |        14256 |        14256 |        14256 |        14256 |       146706 |       146706 |       146706 |       146706 |        95665 |        95665 |        95665 |        95665 |       232946 |       232946 |       232946 |       232946 |
dtlb.writebacks                                  0 |            0 |            0 |            0 |            0 |            0 |            0 |            0 |            0 |            0 |            0 |            0 |            0 |            0 |            0 |            0 |            0 |            0 |            0 |            0 |           69 |           69 |           69 |           69 |         4785 |         4785 |         4785 |         4785 |        13697 |        13697 |        13697 |        13697 |       125462 |       125462 |       125462 |       125462 |        89843 |        89843 |        89843 |        89843 |       217318 |       217318 |       217318 |       217318 |
dtlb.invalidations                               0 |            0 |            0 |            0 |            0 |            0 |            0 |            0 |            0 |            0 |            0 |            0 |            0 |            0 |            0 |            0 |            0 |            0 |            0 |            0 |            0 |            0 |            0 |            0 |            0 |            0 |            0 |            0 |            0 |            0 |            0 |            0 |            0 |            0 |            0 |            0 |            0 |            0 |            0 |            0 |            0 |            0 |            0 |            0 |
dtlb.miss_rate                              0.0001 |       0.0001 |       0.0001 |       0.0001 |       0.0000 |       0.0000 |       0.0000 |       0.0000 |       0.0000 |       0.0000 |       0.0000 |       0.0000 |       0.0000 |       0.0000 |       0.0000 |       0.0000 |       0.0000 |       0.0000 |       0.0000 |       0.0000 |       0.0000 |       0.0000 |       0.0000 |       0.0000 |       0.0002 |       0.0002 |       0.0002 |       0.0002 |       0.0003 |       0.0003 |       0.0003 |       0.0003 |       0.0016 |       0.0016 |       0.0016 |       0.0016 |       0.0005 |       0.0005 |       0.0005 |       0.0005 |       0.0006 |       0.0006 |       0.0006 |       0.0006 |
dtlb.repl_rate                              0.0000 |       0.0000 |       0.0000 |       0.0000 |       0.0000 |       0.0000 |       0.0000 |       0.0000 |       0.0000 |       0.0000 |       0.0000 |       0.0000 |       0.0000 |       0.0000 |       0.0000 |       0.0000 |       0.0000 |       0.0000 |       0.0000 |       0.0000 |       0.0000 |       0.0000 |       0.0000 |       0.0000 |       0.0002 |       0.0002 |       0.0002 |       0.0002 |       0.0003 |       0.0003 |       0.0003 |       0.0003 |       0.0016 |       0.0016 |       0.0016 |       0.0016 |       0.0005 |       0.0005 |       0.0005 |       0.0005 |       0.0006 |       0.0006 |       0.0006 |       0.0006 |
dtlb.wb_rate                                0.0000 |       0.0000 |       0.0000 |       0.0000 |       0.0000 |       0.0000 |       0.0000 |       0.0000 |       0.0000 |       0.0000 |       0.0000 |       0.0000 |       0.0000 |       0.0000 |       0.0000 |       0.0000 |       0.0000 |       0.0000 |       0.0000 |       0.0000 |       0.0000 |       0.0000 |       0.0000 |       0.0000 |       0.0002 |       0.0002 |       0.0002 |       0.0002 |       0.0003 |       0.0003 |       0.0003 |       0.0003 |       0.0014 |       0.0014 |       0.0014 |       0.0014 |       0.0005 |       0.0005 |       0.0005 |       0.0005 |       0.0005 |       0.0005 |       0.0005 |       0.0005 |
dtlb.inv_rate                               0.0000 |       0.0000 |       0.0000 |       0.0000 |       0.0000 |       0.0000 |       0.0000 |       0.0000 |       0.0000 |       0.0000 |       0.0000 |       0.0000 |       0.0000 |       0.0000 |       0.0000 |       0.0000 |       0.0000 |       0.0000 |       0.0000 |       0.0000 |       0.0000 |       0.0000 |       0.0000 |       0.0000 |       0.0000 |       0.0000 |       0.0000 |       0.0000 |       0.0000 |       0.0000 |       0.0000 |       0.0000 |       0.0000 |       0.0000 |       0.0000 |       0.0000 |       0.0000 |       0.0000 |       0.0000 |       0.0000 |       0.0000 |       0.0000 |       0.0000 |       0.0000 |
ld_text_base                            0x00400000 |   0x00400000 |   0x00400000 |   0x00400000 |   0x00400000 |   0x00400000 |   0x00400000 |   0x00400000 |   0x00400000 |   0x00400000 |   0x00400000 |   0x00400000 |   0x00400000 |   0x00400000 |   0x00400000 |   0x00400000 |   0x00400000 |   0x00400000 |   0x00400000 |   0x00400000 |   0x00400000 |   0x00400000 |   0x00400000 |   0x00400000 |   0x00400000 |   0x00400000 |   0x00400000 |   0x00400000 |   0x00400000 |   0x00400000 |   0x00400000 |   0x00400000 |   0x00400000 |   0x00400000 |   0x00400000 |   0x00400000 |   0x00400000 |   0x00400000 |   0x00400000 |   0x00400000 |   0x00400000 |   0x00400000 |   0x00400000 |   0x00400000 |
ld_text_size                                 72720 |        72720 |        72720 |        72720 |        72752 |        72752 |        72752 |        72752 |        72768 |        72768 |        72768 |        72768 |        72784 |        72784 |        72784 |        72784 |        72784 |        72784 |        72784 |        72784 |        72784 |        72784 |        72784 |        72784 |        72784 |        72784 |        72784 |        72784 |        72784 |        72784 |        72784 |        72784 |        72784 |        72784 |        72784 |        72784 |        72784 |        72784 |        72784 |        72784 |        72784 |        72784 |        72784 |        72784 |
ld_data_base                            0x10000000 |   0x10000000 |   0x10000000 |   0x10000000 |   0x10000000 |   0x10000000 |   0x10000000 |   0x10000000 |   0x10000000 |   0x10000000 |   0x10000000 |   0x10000000 |   0x10000000 |   0x10000000 |   0x10000000 |   0x10000000 |   0x10000000 |   0x10000000 |   0x10000000 |   0x10000000 |   0x10000000 |   0x10000000 |   0x10000000 |   0x10000000 |   0x10000000 |   0x10000000 |   0x10000000 |   0x10000000 |   0x10000000 |   0x10000000 |   0x10000000 |   0x10000000 |   0x10000000 |   0x10000000 |   0x10000000 |   0x10000000 |   0x10000000 |   0x10000000 |   0x10000000 |   0x10000000 |   0x10000000 |   0x10000000 |   0x10000000 |   0x10000000 |
ld_data_size                                  8192 |         8192 |         8192 |         8192 |         8192 |         8192 |         8192 |         8192 |         8192 |         8192 |         8192 |         8192 |         8192 |         8192 |         8192 |         8192 |         8192 |         8192 |         8192 |         8192 |         8192 |         8192 |         8192 |         8192 |         8192 |         8192 |         8192 |         8192 |         8192 |         8192 |         8192 |         8192 |         8192 |         8192 |         8192 |         8192 |         8192 |         8192 |         8192 |         8192 |         8192 |         8192 |         8192 |         8192 |
ld_stack_base                           0x7fffc000 |   0x7fffc000 |   0x7fffc000 |   0x7fffc000 |   0x7fffc000 |   0x7fffc000 |   0x7fffc000 |   0x7fffc000 |   0x7fffc000 |   0x7fffc000 |   0x7fffc000 |   0x7fffc000 |   0x7fffc000 |   0x7fffc000 |   0x7fffc000 |   0x7fffc000 |   0x7fffc000 |   0x7fffc000 |   0x7fffc000 |   0x7fffc000 |   0x7fffc000 |   0x7fffc000 |   0x7fffc000 |   0x7fffc000 |   0x7fffc000 |   0x7fffc000 |   0x7fffc000 |   0x7fffc000 |   0x7fffc000 |   0x7fffc000 |   0x7fffc000 |   0x7fffc000 |   0x7fffc000 |   0x7fffc000 |   0x7fffc000 |   0x7fffc000 |   0x7fffc000 |   0x7fffc000 |   0x7fffc000 |   0x7fffc000 |   0x7fffc000 |   0x7fffc000 |   0x7fffc000 |   0x7fffc000 |
ld_stack_size                                16384 |        16384 |        16384 |        16384 |        16384 |        16384 |        16384 |        16384 |        16384 |        16384 |        16384 |        16384 |        16384 |        16384 |        16384 |        16384 |        16384 |        16384 |        16384 |        16384 |        16384 |        16384 |        16384 |        16384 |        16384 |        16384 |        16384 |        16384 |        16384 |        16384 |        16384 |        16384 |        16384 |        16384 |        16384 |        16384 |        16384 |        16384 |        16384 |        16384 |        16384 |        16384 |        16384 |        16384 |
ld_prog_entry                           0x00400140 |   0x00400140 |   0x00400140 |   0x00400140 |   0x00400140 |   0x00400140 |   0x00400140 |   0x00400140 |   0x00400140 |   0x00400140 |   0x00400140 |   0x00400140 |   0x00400140 |   0x00400140 |   0x00400140 |   0x00400140 |   0x00400140 |   0x00400140 |   0x00400140 |   0x00400140 |   0x00400140 |   0x00400140 |   0x00400140 |   0x00400140 |   0x00400140 |   0x00400140 |   0x00400140 |   0x00400140 |   0x00400140 |   0x00400140 |   0x00400140 |   0x00400140 |   0x00400140 |   0x00400140 |   0x00400140 |   0x00400140 |   0x00400140 |   0x00400140 |   0x00400140 |   0x00400140 |   0x00400140 |   0x00400140 |   0x00400140 |   0x00400140 |
ld_environ_base                         0x7fff8000 |   0x7fff8000 |   0x7fff8000 |   0x7fff8000 |   0x7fff8000 |   0x7fff8000 |   0x7fff8000 |   0x7fff8000 |   0x7fff8000 |   0x7fff8000 |   0x7fff8000 |   0x7fff8000 |   0x7fff8000 |   0x7fff8000 |   0x7fff8000 |   0x7fff8000 |   0x7fff8000 |   0x7fff8000 |   0x7fff8000 |   0x7fff8000 |   0x7fff8000 |   0x7fff8000 |   0x7fff8000 |   0x7fff8000 |   0x7fff8000 |   0x7fff8000 |   0x7fff8000 |   0x7fff8000 |   0x7fff8000 |   0x7fff8000 |   0x7fff8000 |   0x7fff8000 |   0x7fff8000 |   0x7fff8000 |   0x7fff8000 |   0x7fff8000 |   0x7fff8000 |   0x7fff8000 |   0x7fff8000 |   0x7fff8000 |   0x7fff8000 |   0x7fff8000 |   0x7fff8000 |   0x7fff8000 |
ld_target_big_endian                             0 |            0 |            0 |            0 |            0 |            0 |            0 |            0 |            0 |            0 |            0 |            0 |            0 |            0 |            0 |            0 |            0 |            0 |            0 |            0 |            0 |            0 |            0 |            0 |            0 |            0 |            0 |            0 |            0 |            0 |            0 |            0 |            0 |            0 |            0 |            0 |            0 |            0 |            0 |            0 |            0 |            0 |            0 |            0 |
mem.page_count                                  29 |           29 |           29 |           29 |           33 |           33 |           33 |           33 |           41 |           41 |           41 |           41 |           57 |           57 |           57 |           57 |           89 |           89 |           89 |           89 |          153 |          153 |          153 |          153 |          281 |          281 |          281 |          281 |          537 |          537 |          537 |          537 |         1049 |         1049 |         1049 |         1049 |         2073 |         2073 |         2073 |         2073 |         4121 |         4121 |         4121 |         4121 |
mem.page_mem                                  116k |         116k |         116k |         116k |         132k |         132k |         132k |         132k |         164k |         164k |         164k |         164k |         228k |         228k |         228k |         228k |         356k |         356k |         356k |         356k |         612k |         612k |         612k |         612k |        1124k |        1124k |        1124k |        1124k |        2148k |        2148k |        2148k |        2148k |        4196k |        4196k |        4196k |        4196k |        8292k |        8292k |        8292k |        8292k |       16484k |       16484k |       16484k |       16484k |
mem.ptab_misses                                 29 |           29 |           29 |           29 |           33 |           33 |           33 |           33 |           41 |           41 |           41 |           41 |           57 |           57 |           57 |           57 |           89 |           89 |           89 |           89 |          153 |          153 |          153 |          153 |          281 |          281 |          281 |          281 |          537 |          537 |          537 |          537 |         1049 |         1049 |         1049 |         1049 |         2073 |         2073 |         2073 |         2073 |         4121 |         4121 |         4121 |         4121 |
mem.ptab_accesses                          4473462 |      4473462 |      4473462 |      4473462 |      9392488 |      9392488 |      9392488 |      9392488 |     20651320 |     20651320 |     20651320 |     20651320 |     44393280 |     44393280 |     44393280 |     44393280 |     95232804 |     95232804 |     95232804 |     95232804 |    210339014 |    210339014 |    210339014 |    210339014 |    432834916 |    432834916 |    432834916 |    432834916 |    928521278 |    928521278 |    928521278 |    928521278 |   1960511380 |   1960511380 |   1960511380 |   1960511380 |   4215107786 |   4215107786 |   4215107786 |   4215107786 |   8779894866 |   8779894866 |   8779894866 |   8779894866 |
mem.ptab_miss_rate                          0.0000 |       0.0000 |       0.0000 |       0.0000 |       0.0000 |       0.0000 |       0.0000 |       0.0000 |       0.0000 |       0.0000 |       0.0000 |       0.0000 |       0.0000 |       0.0000 |       0.0000 |       0.0000 |       0.0000 |       0.0000 |       0.0000 |       0.0000 |       0.0000 |       0.0000 |       0.0000 |       0.0000 |       0.0000 |       0.0000 |       0.0000 |       0.0000 |       0.0000 |       0.0000 |       0.0000 |       0.0000 |       0.0000 |       0.0000 |       0.0000 |       0.0000 |       0.0000 |       0.0000 |       0.0000 |       0.0000 |       0.0000 |       0.0000 |       0.0000 |       0.0000 |
-------------------------------------------------------------------------------------------------
sim-bpred                                     4096 |         4096 |         4096 |         4096 |         4096 |         4096 |         4096 |         8192 |         8192 |         8192 |         8192 |         8192 |         8192 |         8192 |        16384 |        16384 |        16384 |        16384 |        16384 |        16384 |        16384 |        32768 |        32768 |        32768 |        32768 |        32768 |        32768 |        32768 |        65536 |        65536 |        65536 |        65536 |        65536 |        65536 |        65536 |       131072 |       131072 |       131072 |       131072 |       131072 |       131072 |       131072 |       262144 |       262144 |       262144 |       262144 |       262144 |       262144 |       262144 |       524288 |       524288 |       524288 |       524288 |       524288 |       524288 |       524288 |      1048576 |      1048576 |      1048576 |      1048576 |      1048576 |      1048576 |      1048576 |      2097152 |      2097152 |      2097152 |      2097152 |      2097152 |      2097152 |      2097152 |      4194304 |      4194304 |      4194304 |      4194304 |      4194304 |      4194304 |      4194304 |
-bpred bimod -bpred:bimod 512
-bpred bimod -bpred:bimod 1024
-bpred bimod -bpred:bimod 2048
-bpred 2lev -bpred:2lev 1 512 10 1
-bpred 2lev -bpred:2lev 1 1024 10 1
-bpred 2lev -bpred:2lev 1 2048 10 1
-bpred 2lev -bpred:2lev 1 4096 10 1
-------------------------------------------------------------------------------------------------
sim_num_insn                                901391 |       901391 |       901391 |       901391 |       901391 |       901391 |       901391 |      2009004 |      2009004 |      2009004 |      2009004 |      2009004 |      2009004 |      2009004 |      4558493 |      4558493 |      4558493 |      4558493 |      4558493 |      4558493 |      4558493 |      9927234 |      9927234 |      9927234 |      9927234 |      9927234 |      9927234 |      9927234 |     21253611 |     21253611 |     21253611 |     21253611 |     21253611 |     21253611 |     21253611 |     47163640 |     47163640 |     47163640 |     47163640 |     47163640 |     47163640 |     47163640 |     97518795 |     97518795 |     97518795 |     97518795 |     97518795 |     97518795 |     97518795 |    209684706 |    209684706 |    209684706 |    209684706 |    209684706 |    209684706 |    209684706 |    443731204 |    443731204 |    443731204 |    443731204 |    443731204 |    443731204 |    443731204 |    953996189 |    953996189 |    953996189 |    953996189 |    953996189 |    953996189 |    953996189 |   1993400135 |   1993400135 |   1993400135 |   1993400135 |   1993400135 |   1993400135 |   1993400135 |
sim_num_refs                                192024 |       192024 |       192024 |       192024 |       192024 |       192024 |       192024 |       419831 |       419831 |       419831 |       419831 |       419831 |       419831 |       419831 |       917453 |       917453 |       917453 |       917453 |       917453 |       917453 |       917453 |      1985367 |      1985367 |      1985367 |      1985367 |      1985367 |      1985367 |      1985367 |      4621303 |      4621303 |      4621303 |      4621303 |      4621303 |      4621303 |      4621303 |     10092206 |     10092206 |     10092206 |     10092206 |     10092206 |     10092206 |     10092206 |     20105559 |     20105559 |     20105559 |     20105559 |     20105559 |     20105559 |     20105559 |     42568342 |     42568342 |     42568342 |     42568342 |     42568342 |     42568342 |     42568342 |     88373245 |     88373245 |     88373245 |     88373245 |     88373245 |     88373245 |     88373245 |    190947174 |    190947174 |    190947174 |    190947174 |    190947174 |    190947174 |    190947174 |    386144214 |    386144214 |    386144214 |    386144214 |    386144214 |    386144214 |    386144214 |
sim_elapsed_time                                 1 |            1 |            1 |            1 |            1 |            1 |            1 |            1 |            1 |            1 |            1 |            1 |            1 |            1 |            1 |            1 |            1 |            1 |            1 |            1 |            1 |            1 |            1 |            2 |            1 |            1 |            1 |            1 |            2 |            2 |            3 |            2 |            2 |            3 |            2 |            5 |            5 |            6 |            5 |            5 |            5 |            6 |           11 |           11 |           10 |           11 |           11 |           11 |           11 |           24 |           23 |           23 |           23 |           23 |           24 |           23 |           49 |           49 |           48 |           50 |           49 |           50 |           50 |          105 |          105 |          105 |          106 |          106 |          107 |          106 |          218 |          220 |          218 |          223 |          222 |          223 |          223 |
sim_inst_rate                          901391.0000 |  901391.0000 |  901391.0000 |  901391.0000 |  901391.0000 |  901391.0000 |  901391.0000 | 2009004.0000 | 2009004.0000 | 2009004.0000 | 2009004.0000 | 2009004.0000 | 2009004.0000 | 2009004.0000 | 4558493.0000 | 4558493.0000 | 4558493.0000 | 4558493.0000 | 4558493.0000 | 4558493.0000 | 4558493.0000 | 9927234.0000 | 9927234.0000 | 4963617.0000 | 9927234.0000 | 9927234.0000 | 9927234.0000 | 9927234.0000 |10626805.5000 |10626805.5000 | 7084537.0000 |10626805.5000 |10626805.5000 | 7084537.0000 |10626805.5000 | 9432728.0000 | 9432728.0000 | 7860606.6667 | 9432728.0000 | 9432728.0000 | 9432728.0000 | 7860606.6667 | 8865345.0000 | 8865345.0000 | 9751879.5000 | 8865345.0000 | 8865345.0000 | 8865345.0000 | 8865345.0000 | 8736862.7500 | 9116726.3478 | 9116726.3478 | 9116726.3478 | 9116726.3478 | 8736862.7500 | 9116726.3478 | 9055738.8571 | 9055738.8571 | 9244400.0833 | 8874624.0800 | 9055738.8571 | 8874624.0800 | 8874624.0800 | 9085677.9905 | 9085677.9905 | 9085677.9905 | 8999964.0472 | 8999964.0472 | 8915852.2336 | 8999964.0472 | 9144037.3165 | 9060909.7045 | 9144037.3165 | 8939014.0583 | 8979279.8874 | 8939014.0583 | 8939014.0583 |
sim_num_branches                            145655 |       145655 |       145655 |       145655 |       145655 |       145655 |       145655 |       325987 |       325987 |       325987 |       325987 |       325987 |       325987 |       325987 |       743978 |       743978 |       743978 |       743978 |       743978 |       743978 |       743978 |      1623154 |      1623154 |      1623154 |      1623154 |      1623154 |      1623154 |      1623154 |      3441624 |      3441624 |      3441624 |      3441624 |      3441624 |      3441624 |      3441624 |      7658657 |      7658657 |      7658657 |      7658657 |      7658657 |      7658657 |      7658657 |     15916744 |     15916744 |     15916744 |     15916744 |     15916744 |     15916744 |     15916744 |     34306205 |     34306205 |     34306205 |     34306205 |     34306205 |     34306205 |     34306205 |     72795326 |     72795326 |     72795326 |     72795326 |     72795326 |     72795326 |     72795326 |    156492132 |    156492132 |    156492132 |    156492132 |    156492132 |    156492132 |    156492132 |    328317316 |    328317316 |    328317316 |    328317316 |    328317316 |    328317316 |    328317316 |
sim_IPB                                     6.1885 |       6.1885 |       6.1885 |       6.1885 |       6.1885 |       6.1885 |       6.1885 |       6.1628 |       6.1628 |       6.1628 |       6.1628 |       6.1628 |       6.1628 |       6.1628 |       6.1272 |       6.1272 |       6.1272 |       6.1272 |       6.1272 |       6.1272 |       6.1272 |       6.1160 |       6.1160 |       6.1160 |       6.1160 |       6.1160 |       6.1160 |       6.1160 |       6.1755 |       6.1755 |       6.1755 |       6.1755 |       6.1755 |       6.1755 |       6.1755 |       6.1582 |       6.1582 |       6.1582 |       6.1582 |       6.1582 |       6.1582 |       6.1582 |       6.1268 |       6.1268 |       6.1268 |       6.1268 |       6.1268 |       6.1268 |       6.1268 |       6.1122 |       6.1122 |       6.1122 |       6.1122 |       6.1122 |       6.1122 |       6.1122 |       6.0956 |       6.0956 |       6.0956 |       6.0956 |       6.0956 |       6.0956 |       6.0956 |       6.0961 |       6.0961 |       6.0961 |       6.0961 |       6.0961 |       6.0961 |       6.0961 |       6.0716 |       6.0716 |       6.0716 |       6.0716 |       6.0716 |       6.0716 |       6.0716 |
bpred_bimod.lookups                         145655 |       145655 |       145655 |xxxxxxxxxxxxx |xxxxxxxxxxxxx |xxxxxxxxxxxxx |xxxxxxxxxxxxx |       325987 |       325987 |       325987 |xxxxxxxxxxxxx |xxxxxxxxxxxxx |xxxxxxxxxxxxx |xxxxxxxxxxxxx |       743978 |       743978 |       743978 |xxxxxxxxxxxxx |xxxxxxxxxxxxx |xxxxxxxxxxxxx |xxxxxxxxxxxxx |      1623154 |      1623154 |      1623154 |xxxxxxxxxxxxx |xxxxxxxxxxxxx |xxxxxxxxxxxxx |xxxxxxxxxxxxx |      3441624 |      3441624 |      3441624 |xxxxxxxxxxxxx |xxxxxxxxxxxxx |xxxxxxxxxxxxx |xxxxxxxxxxxxx |      7658657 |      7658657 |      7658657 |xxxxxxxxxxxxx |xxxxxxxxxxxxx |xxxxxxxxxxxxx |xxxxxxxxxxxxx |     15916744 |     15916744 |     15916744 |xxxxxxxxxxxxx |xxxxxxxxxxxxx |xxxxxxxxxxxxx |xxxxxxxxxxxxx |     34306205 |     34306205 |     34306205 |xxxxxxxxxxxxx |xxxxxxxxxxxxx |xxxxxxxxxxxxx |xxxxxxxxxxxxx |     72795326 |     72795326 |     72795326 |xxxxxxxxxxxxx |xxxxxxxxxxxxx |xxxxxxxxxxxxx |xxxxxxxxxxxxx |    156492132 |    156492132 |    156492132 |xxxxxxxxxxxxx |xxxxxxxxxxxxx |xxxxxxxxxxxxx |xxxxxxxxxxxxx |    328317316 |    328317316 |    328317316 |
bpred_bimod.updates                         145655 |       145655 |       145655 |xxxxxxxxxxxxx |xxxxxxxxxxxxx |xxxxxxxxxxxxx |xxxxxxxxxxxxx |       325987 |       325987 |       325987 |xxxxxxxxxxxxx |xxxxxxxxxxxxx |xxxxxxxxxxxxx |xxxxxxxxxxxxx |       743978 |       743978 |       743978 |xxxxxxxxxxxxx |xxxxxxxxxxxxx |xxxxxxxxxxxxx |xxxxxxxxxxxxx |      1623154 |      1623154 |      1623154 |xxxxxxxxxxxxx |xxxxxxxxxxxxx |xxxxxxxxxxxxx |xxxxxxxxxxxxx |      3441624 |      3441624 |      3441624 |xxxxxxxxxxxxx |xxxxxxxxxxxxx |xxxxxxxxxxxxx |xxxxxxxxxxxxx |      7658657 |      7658657 |      7658657 |xxxxxxxxxxxxx |xxxxxxxxxxxxx |xxxxxxxxxxxxx |xxxxxxxxxxxxx |     15916744 |     15916744 |     15916744 |xxxxxxxxxxxxx |xxxxxxxxxxxxx |xxxxxxxxxxxxx |xxxxxxxxxxxxx |     34306205 |     34306205 |     34306205 |xxxxxxxxxxxxx |xxxxxxxxxxxxx |xxxxxxxxxxxxx |xxxxxxxxxxxxx |     72795326 |     72795326 |     72795326 |xxxxxxxxxxxxx |xxxxxxxxxxxxx |xxxxxxxxxxxxx |xxxxxxxxxxxxx |    156492132 |    156492132 |    156492132 |xxxxxxxxxxxxx |xxxxxxxxxxxxx |xxxxxxxxxxxxx |xxxxxxxxxxxxx |    328317316 |    328317316 |    328317316 |
bpred_bimod.addr_hits                       111446 |       111447 |       111451 |xxxxxxxxxxxxx |xxxxxxxxxxxxx |xxxxxxxxxxxxx |xxxxxxxxxxxxx |       250658 |       250662 |       250662 |xxxxxxxxxxxxx |xxxxxxxxxxxxx |xxxxxxxxxxxxx |xxxxxxxxxxxxx |       570978 |       570981 |       570982 |xxxxxxxxxxxxx |xxxxxxxxxxxxx |xxxxxxxxxxxxx |xxxxxxxxxxxxx |      1246372 |      1246373 |      1246374 |xxxxxxxxxxxxx |xxxxxxxxxxxxx |xxxxxxxxxxxxx |xxxxxxxxxxxxx |      2695155 |      2695157 |      2695158 |xxxxxxxxxxxxx |xxxxxxxxxxxxx |xxxxxxxxxxxxx |xxxxxxxxxxxxx |      6023593 |      6023595 |      6023596 |xxxxxxxxxxxxx |xxxxxxxxxxxxx |xxxxxxxxxxxxx |xxxxxxxxxxxxx |     12374073 |     12374075 |     12374076 |xxxxxxxxxxxxx |xxxxxxxxxxxxx |xxxxxxxxxxxxx |xxxxxxxxxxxxx |     26571972 |     26571974 |     26571974 |xxxxxxxxxxxxx |xxxxxxxxxxxxx |xxxxxxxxxxxxx |xxxxxxxxxxxxx |     56133699 |     56133701 |     56133702 |xxxxxxxxxxxxx |xxxxxxxxxxxxx |xxxxxxxxxxxxx |xxxxxxxxxxxxx |    120998059 |    120998061 |    120998062 |xxxxxxxxxxxxx |xxxxxxxxxxxxx |xxxxxxxxxxxxx |xxxxxxxxxxxxx |    252582374 |    252582376 |    252582377 |
bpred_bimod.dir_hits                        111550 |       111549 |       111551 |xxxxxxxxxxxxx |xxxxxxxxxxxxx |xxxxxxxxxxxxx |xxxxxxxxxxxxx |       250760 |       250763 |       250762 |xxxxxxxxxxxxx |xxxxxxxxxxxxx |xxxxxxxxxxxxx |xxxxxxxxxxxxx |       571081 |       571083 |       571082 |xxxxxxxxxxxxx |xxxxxxxxxxxxx |xxxxxxxxxxxxx |xxxxxxxxxxxxx |      1246474 |      1246474 |      1246473 |xxxxxxxxxxxxx |xxxxxxxxxxxxx |xxxxxxxxxxxxx |xxxxxxxxxxxxx |      2695257 |      2695259 |      2695258 |xxxxxxxxxxxxx |xxxxxxxxxxxxx |xxxxxxxxxxxxx |xxxxxxxxxxxxx |      6023697 |      6023698 |      6023697 |xxxxxxxxxxxxx |xxxxxxxxxxxxx |xxxxxxxxxxxxx |xxxxxxxxxxxxx |     12374177 |     12374178 |     12374177 |xxxxxxxxxxxxx |xxxxxxxxxxxxx |xxxxxxxxxxxxx |xxxxxxxxxxxxx |     26572074 |     26572076 |     26572075 |xxxxxxxxxxxxx |xxxxxxxxxxxxx |xxxxxxxxxxxxx |xxxxxxxxxxxxx |     56133802 |     56133804 |     56133803 |xxxxxxxxxxxxx |xxxxxxxxxxxxx |xxxxxxxxxxxxx |xxxxxxxxxxxxx |    120998164 |    120998165 |    120998164 |xxxxxxxxxxxxx |xxxxxxxxxxxxx |xxxxxxxxxxxxx |xxxxxxxxxxxxx |    252582476 |    252582478 |    252582477 |
bpred_bimod.misses                           34105 |        34106 |        34104 |xxxxxxxxxxxxx |xxxxxxxxxxxxx |xxxxxxxxxxxxx |xxxxxxxxxxxxx |        75227 |        75224 |        75225 |xxxxxxxxxxxxx |xxxxxxxxxxxxx |xxxxxxxxxxxxx |xxxxxxxxxxxxx |       172897 |       172895 |       172896 |xxxxxxxxxxxxx |xxxxxxxxxxxxx |xxxxxxxxxxxxx |xxxxxxxxxxxxx |       376680 |       376680 |       376681 |xxxxxxxxxxxxx |xxxxxxxxxxxxx |xxxxxxxxxxxxx |xxxxxxxxxxxxx |       746367 |       746365 |       746366 |xxxxxxxxxxxxx |xxxxxxxxxxxxx |xxxxxxxxxxxxx |xxxxxxxxxxxxx |      1634960 |      1634959 |      1634960 |xxxxxxxxxxxxx |xxxxxxxxxxxxx |xxxxxxxxxxxxx |xxxxxxxxxxxxx |      3542567 |      3542566 |      3542567 |xxxxxxxxxxxxx |xxxxxxxxxxxxx |xxxxxxxxxxxxx |xxxxxxxxxxxxx |      7734131 |      7734129 |      7734130 |xxxxxxxxxxxxx |xxxxxxxxxxxxx |xxxxxxxxxxxxx |xxxxxxxxxxxxx |     16661524 |     16661522 |     16661523 |xxxxxxxxxxxxx |xxxxxxxxxxxxx |xxxxxxxxxxxxx |xxxxxxxxxxxxx |     35493968 |     35493967 |     35493968 |xxxxxxxxxxxxx |xxxxxxxxxxxxx |xxxxxxxxxxxxx |xxxxxxxxxxxxx |     75734840 |     75734838 |     75734839 |
bpred_bimod.jr_hits                             57 |           57 |           57 |xxxxxxxxxxxxx |xxxxxxxxxxxxx |xxxxxxxxxxxxx |xxxxxxxxxxxxx |           57 |           57 |           57 |xxxxxxxxxxxxx |xxxxxxxxxxxxx |xxxxxxxxxxxxx |xxxxxxxxxxxxx |           57 |           57 |           57 |xxxxxxxxxxxxx |xxxxxxxxxxxxx |xxxxxxxxxxxxx |xxxxxxxxxxxxx |           57 |           57 |           57 |xxxxxxxxxxxxx |xxxxxxxxxxxxx |xxxxxxxxxxxxx |xxxxxxxxxxxxx |           57 |           57 |           57 |xxxxxxxxxxxxx |xxxxxxxxxxxxx |xxxxxxxxxxxxx |xxxxxxxxxxxxx |           57 |           57 |           57 |xxxxxxxxxxxxx |xxxxxxxxxxxxx |xxxxxxxxxxxxx |xxxxxxxxxxxxx |           57 |           57 |           57 |xxxxxxxxxxxxx |xxxxxxxxxxxxx |xxxxxxxxxxxxx |xxxxxxxxxxxxx |           57 |           57 |           57 |xxxxxxxxxxxxx |xxxxxxxxxxxxx |xxxxxxxxxxxxx |xxxxxxxxxxxxx |           57 |           57 |           57 |xxxxxxxxxxxxx |xxxxxxxxxxxxx |xxxxxxxxxxxxx |xxxxxxxxxxxxx |           57 |           57 |           57 |xxxxxxxxxxxxx |xxxxxxxxxxxxx |xxxxxxxxxxxxx |xxxxxxxxxxxxx |           57 |           57 |           57 |
bpred_bimod.jr_seen                             58 |           58 |           58 |xxxxxxxxxxxxx |xxxxxxxxxxxxx |xxxxxxxxxxxxx |xxxxxxxxxxxxx |           58 |           58 |           58 |xxxxxxxxxxxxx |xxxxxxxxxxxxx |xxxxxxxxxxxxx |xxxxxxxxxxxxx |           58 |           58 |           58 |xxxxxxxxxxxxx |xxxxxxxxxxxxx |xxxxxxxxxxxxx |xxxxxxxxxxxxx |           58 |           58 |           58 |xxxxxxxxxxxxx |xxxxxxxxxxxxx |xxxxxxxxxxxxx |xxxxxxxxxxxxx |           58 |           58 |           58 |xxxxxxxxxxxxx |xxxxxxxxxxxxx |xxxxxxxxxxxxx |xxxxxxxxxxxxx |           58 |           58 |           58 |xxxxxxxxxxxxx |xxxxxxxxxxxxx |xxxxxxxxxxxxx |xxxxxxxxxxxxx |           58 |           58 |           58 |xxxxxxxxxxxxx |xxxxxxxxxxxxx |xxxxxxxxxxxxx |xxxxxxxxxxxxx |           58 |           58 |           58 |xxxxxxxxxxxxx |xxxxxxxxxxxxx |xxxxxxxxxxxxx |xxxxxxxxxxxxx |           58 |           58 |           58 |xxxxxxxxxxxxx |xxxxxxxxxxxxx |xxxxxxxxxxxxx |xxxxxxxxxxxxx |           58 |           58 |           58 |xxxxxxxxxxxxx |xxxxxxxxxxxxx |xxxxxxxxxxxxx |xxxxxxxxxxxxx |           58 |           58 |           58 |
bpred_bimod.jr_non_ras_hits.PP                   0 |            0 |            0 |xxxxxxxxxxxxx |xxxxxxxxxxxxx |xxxxxxxxxxxxx |xxxxxxxxxxxxx |            0 |            0 |            0 |xxxxxxxxxxxxx |xxxxxxxxxxxxx |xxxxxxxxxxxxx |xxxxxxxxxxxxx |            0 |            0 |            0 |xxxxxxxxxxxxx |xxxxxxxxxxxxx |xxxxxxxxxxxxx |xxxxxxxxxxxxx |            0 |            0 |            0 |xxxxxxxxxxxxx |xxxxxxxxxxxxx |xxxxxxxxxxxxx |xxxxxxxxxxxxx |            0 |            0 |            0 |xxxxxxxxxxxxx |xxxxxxxxxxxxx |xxxxxxxxxxxxx |xxxxxxxxxxxxx |            0 |            0 |            0 |xxxxxxxxxxxxx |xxxxxxxxxxxxx |xxxxxxxxxxxxx |xxxxxxxxxxxxx |            0 |            0 |            0 |xxxxxxxxxxxxx |xxxxxxxxxxxxx |xxxxxxxxxxxxx |xxxxxxxxxxxxx |            0 |            0 |            0 |xxxxxxxxxxxxx |xxxxxxxxxxxxx |xxxxxxxxxxxxx |xxxxxxxxxxxxx |            0 |            0 |            0 |xxxxxxxxxxxxx |xxxxxxxxxxxxx |xxxxxxxxxxxxx |xxxxxxxxxxxxx |            0 |            0 |            0 |xxxxxxxxxxxxx |xxxxxxxxxxxxx |xxxxxxxxxxxxx |xxxxxxxxxxxxx |            0 |            0 |            0 |
bpred_bimod.jr_non_ras_seen.PP                   0 |            0 |            0 |xxxxxxxxxxxxx |xxxxxxxxxxxxx |xxxxxxxxxxxxx |xxxxxxxxxxxxx |            0 |            0 |            0 |xxxxxxxxxxxxx |xxxxxxxxxxxxx |xxxxxxxxxxxxx |xxxxxxxxxxxxx |            0 |            0 |            0 |xxxxxxxxxxxxx |xxxxxxxxxxxxx |xxxxxxxxxxxxx |xxxxxxxxxxxxx |            0 |            0 |            0 |xxxxxxxxxxxxx |xxxxxxxxxxxxx |xxxxxxxxxxxxx |xxxxxxxxxxxxx |            0 |            0 |            0 |xxxxxxxxxxxxx |xxxxxxxxxxxxx |xxxxxxxxxxxxx |xxxxxxxxxxxxx |            0 |            0 |            0 |xxxxxxxxxxxxx |xxxxxxxxxxxxx |xxxxxxxxxxxxx |xxxxxxxxxxxxx |            0 |            0 |            0 |xxxxxxxxxxxxx |xxxxxxxxxxxxx |xxxxxxxxxxxxx |xxxxxxxxxxxxx |            0 |            0 |            0 |xxxxxxxxxxxxx |xxxxxxxxxxxxx |xxxxxxxxxxxxx |xxxxxxxxxxxxx |            0 |            0 |            0 |xxxxxxxxxxxxx |xxxxxxxxxxxxx |xxxxxxxxxxxxx |xxxxxxxxxxxxx |            0 |            0 |            0 |xxxxxxxxxxxxx |xxxxxxxxxxxxx |xxxxxxxxxxxxx |xxxxxxxxxxxxx |            0 |            0 |            0 |
bpred_bimod.bpred_addr_rate                 0.7651 |       0.7651 |       0.7652 |xxxxxxxxxxxxx |xxxxxxxxxxxxx |xxxxxxxxxxxxx |xxxxxxxxxxxxx |       0.7689 |       0.7689 |       0.7689 |xxxxxxxxxxxxx |xxxxxxxxxxxxx |xxxxxxxxxxxxx |xxxxxxxxxxxxx |       0.7675 |       0.7675 |       0.7675 |xxxxxxxxxxxxx |xxxxxxxxxxxxx |xxxxxxxxxxxxx |xxxxxxxxxxxxx |       0.7679 |       0.7679 |       0.7679 |xxxxxxxxxxxxx |xxxxxxxxxxxxx |xxxxxxxxxxxxx |xxxxxxxxxxxxx |       0.7831 |       0.7831 |       0.7831 |xxxxxxxxxxxxx |xxxxxxxxxxxxx |xxxxxxxxxxxxx |xxxxxxxxxxxxx |       0.7865 |       0.7865 |       0.7865 |xxxxxxxxxxxxx |xxxxxxxxxxxxx |xxxxxxxxxxxxx |xxxxxxxxxxxxx |       0.7774 |       0.7774 |       0.7774 |xxxxxxxxxxxxx |xxxxxxxxxxxxx |xxxxxxxxxxxxx |xxxxxxxxxxxxx |       0.7746 |       0.7746 |       0.7746 |xxxxxxxxxxxxx |xxxxxxxxxxxxx |xxxxxxxxxxxxx |xxxxxxxxxxxxx |       0.7711 |       0.7711 |       0.7711 |xxxxxxxxxxxxx |xxxxxxxxxxxxx |xxxxxxxxxxxxx |xxxxxxxxxxxxx |       0.7732 |       0.7732 |       0.7732 |xxxxxxxxxxxxx |xxxxxxxxxxxxx |xxxxxxxxxxxxx |xxxxxxxxxxxxx |       0.7693 |       0.7693 |       0.7693 |
bpred_bimod.bpred_dir_rate                  0.7659 |       0.7658 |       0.7659 |xxxxxxxxxxxxx |xxxxxxxxxxxxx |xxxxxxxxxxxxx |xxxxxxxxxxxxx |       0.7692 |       0.7692 |       0.7692 |xxxxxxxxxxxxx |xxxxxxxxxxxxx |xxxxxxxxxxxxx |xxxxxxxxxxxxx |       0.7676 |       0.7676 |       0.7676 |xxxxxxxxxxxxx |xxxxxxxxxxxxx |xxxxxxxxxxxxx |xxxxxxxxxxxxx |       0.7679 |       0.7679 |       0.7679 |xxxxxxxxxxxxx |xxxxxxxxxxxxx |xxxxxxxxxxxxx |xxxxxxxxxxxxx |       0.7831 |       0.7831 |       0.7831 |xxxxxxxxxxxxx |xxxxxxxxxxxxx |xxxxxxxxxxxxx |xxxxxxxxxxxxx |       0.7865 |       0.7865 |       0.7865 |xxxxxxxxxxxxx |xxxxxxxxxxxxx |xxxxxxxxxxxxx |xxxxxxxxxxxxx |       0.7774 |       0.7774 |       0.7774 |xxxxxxxxxxxxx |xxxxxxxxxxxxx |xxxxxxxxxxxxx |xxxxxxxxxxxxx |       0.7746 |       0.7746 |       0.7746 |xxxxxxxxxxxxx |xxxxxxxxxxxxx |xxxxxxxxxxxxx |xxxxxxxxxxxxx |       0.7711 |       0.7711 |       0.7711 |xxxxxxxxxxxxx |xxxxxxxxxxxxx |xxxxxxxxxxxxx |xxxxxxxxxxxxx |       0.7732 |       0.7732 |       0.7732 |xxxxxxxxxxxxx |xxxxxxxxxxxxx |xxxxxxxxxxxxx |xxxxxxxxxxxxx |       0.7693 |       0.7693 |       0.7693 |
bpred_bimod.bpred_jr_rate                   0.9828 |       0.9828 |       0.9828 |xxxxxxxxxxxxx |xxxxxxxxxxxxx |xxxxxxxxxxxxx |xxxxxxxxxxxxx |       0.9828 |       0.9828 |       0.9828 |xxxxxxxxxxxxx |xxxxxxxxxxxxx |xxxxxxxxxxxxx |xxxxxxxxxxxxx |       0.9828 |       0.9828 |       0.9828 |xxxxxxxxxxxxx |xxxxxxxxxxxxx |xxxxxxxxxxxxx |xxxxxxxxxxxxx |       0.9828 |       0.9828 |       0.9828 |xxxxxxxxxxxxx |xxxxxxxxxxxxx |xxxxxxxxxxxxx |xxxxxxxxxxxxx |       0.9828 |       0.9828 |       0.9828 |xxxxxxxxxxxxx |xxxxxxxxxxxxx |xxxxxxxxxxxxx |xxxxxxxxxxxxx |       0.9828 |       0.9828 |       0.9828 |xxxxxxxxxxxxx |xxxxxxxxxxxxx |xxxxxxxxxxxxx |xxxxxxxxxxxxx |       0.9828 |       0.9828 |       0.9828 |xxxxxxxxxxxxx |xxxxxxxxxxxxx |xxxxxxxxxxxxx |xxxxxxxxxxxxx |       0.9828 |       0.9828 |       0.9828 |xxxxxxxxxxxxx |xxxxxxxxxxxxx |xxxxxxxxxxxxx |xxxxxxxxxxxxx |       0.9828 |       0.9828 |       0.9828 |xxxxxxxxxxxxx |xxxxxxxxxxxxx |xxxxxxxxxxxxx |xxxxxxxxxxxxx |       0.9828 |       0.9828 |       0.9828 |xxxxxxxxxxxxx |xxxxxxxxxxxxx |xxxxxxxxxxxxx |xxxxxxxxxxxxx |       0.9828 |       0.9828 |       0.9828 |
bpred_bimod.bpred_jr_non_ras_rate.PP       <error: |      <error: |      <error: |xxxxxxxxxxxxx |xxxxxxxxxxxxx |xxxxxxxxxxxxx |xxxxxxxxxxxxx |      <error: |      <error: |      <error: |xxxxxxxxxxxxx |xxxxxxxxxxxxx |xxxxxxxxxxxxx |xxxxxxxxxxxxx |      <error: |      <error: |      <error: |xxxxxxxxxxxxx |xxxxxxxxxxxxx |xxxxxxxxxxxxx |xxxxxxxxxxxxx |      <error: |      <error: |      <error: |xxxxxxxxxxxxx |xxxxxxxxxxxxx |xxxxxxxxxxxxx |xxxxxxxxxxxxx |      <error: |      <error: |      <error: |xxxxxxxxxxxxx |xxxxxxxxxxxxx |xxxxxxxxxxxxx |xxxxxxxxxxxxx |      <error: |      <error: |      <error: |xxxxxxxxxxxxx |xxxxxxxxxxxxx |xxxxxxxxxxxxx |xxxxxxxxxxxxx |      <error: |      <error: |      <error: |xxxxxxxxxxxxx |xxxxxxxxxxxxx |xxxxxxxxxxxxx |xxxxxxxxxxxxx |      <error: |      <error: |      <error: |xxxxxxxxxxxxx |xxxxxxxxxxxxx |xxxxxxxxxxxxx |xxxxxxxxxxxxx |      <error: |      <error: |      <error: |xxxxxxxxxxxxx |xxxxxxxxxxxxx |xxxxxxxxxxxxx |xxxxxxxxxxxxx |      <error: |      <error: |      <error: |xxxxxxxxxxxxx |xxxxxxxxxxxxx |xxxxxxxxxxxxx |xxxxxxxxxxxxx |      <error: |      <error: |      <error: |
bpred_bimod.retstack_pushes                     60 |           60 |           60 |xxxxxxxxxxxxx |xxxxxxxxxxxxx |xxxxxxxxxxxxx |xxxxxxxxxxxxx |           60 |           60 |           60 |xxxxxxxxxxxxx |xxxxxxxxxxxxx |xxxxxxxxxxxxx |xxxxxxxxxxxxx |           60 |           60 |           60 |xxxxxxxxxxxxx |xxxxxxxxxxxxx |xxxxxxxxxxxxx |xxxxxxxxxxxxx |           60 |           60 |           60 |xxxxxxxxxxxxx |xxxxxxxxxxxxx |xxxxxxxxxxxxx |xxxxxxxxxxxxx |           60 |           60 |           60 |xxxxxxxxxxxxx |xxxxxxxxxxxxx |xxxxxxxxxxxxx |xxxxxxxxxxxxx |           60 |           60 |           60 |xxxxxxxxxxxxx |xxxxxxxxxxxxx |xxxxxxxxxxxxx |xxxxxxxxxxxxx |           60 |           60 |           60 |xxxxxxxxxxxxx |xxxxxxxxxxxxx |xxxxxxxxxxxxx |xxxxxxxxxxxxx |           60 |           60 |           60 |xxxxxxxxxxxxx |xxxxxxxxxxxxx |xxxxxxxxxxxxx |xxxxxxxxxxxxx |           60 |           60 |           60 |xxxxxxxxxxxxx |xxxxxxxxxxxxx |xxxxxxxxxxxxx |xxxxxxxxxxxxx |           60 |           60 |           60 |xxxxxxxxxxxxx |xxxxxxxxxxxxx |xxxxxxxxxxxxx |xxxxxxxxxxxxx |           60 |           60 |           60 |
bpred_bimod.retstack_pops                       58 |           58 |           58 |xxxxxxxxxxxxx |xxxxxxxxxxxxx |xxxxxxxxxxxxx |xxxxxxxxxxxxx |           58 |           58 |           58 |xxxxxxxxxxxxx |xxxxxxxxxxxxx |xxxxxxxxxxxxx |xxxxxxxxxxxxx |           58 |           58 |           58 |xxxxxxxxxxxxx |xxxxxxxxxxxxx |xxxxxxxxxxxxx |xxxxxxxxxxxxx |           58 |           58 |           58 |xxxxxxxxxxxxx |xxxxxxxxxxxxx |xxxxxxxxxxxxx |xxxxxxxxxxxxx |           58 |           58 |           58 |xxxxxxxxxxxxx |xxxxxxxxxxxxx |xxxxxxxxxxxxx |xxxxxxxxxxxxx |           58 |           58 |           58 |xxxxxxxxxxxxx |xxxxxxxxxxxxx |xxxxxxxxxxxxx |xxxxxxxxxxxxx |           58 |           58 |           58 |xxxxxxxxxxxxx |xxxxxxxxxxxxx |xxxxxxxxxxxxx |xxxxxxxxxxxxx |           58 |           58 |           58 |xxxxxxxxxxxxx |xxxxxxxxxxxxx |xxxxxxxxxxxxx |xxxxxxxxxxxxx |           58 |           58 |           58 |xxxxxxxxxxxxx |xxxxxxxxxxxxx |xxxxxxxxxxxxx |xxxxxxxxxxxxx |           58 |           58 |           58 |xxxxxxxxxxxxx |xxxxxxxxxxxxx |xxxxxxxxxxxxx |xxxxxxxxxxxxx |           58 |           58 |           58 |
bpred_bimod.used_ras.PP                         58 |           58 |           58 |xxxxxxxxxxxxx |xxxxxxxxxxxxx |xxxxxxxxxxxxx |xxxxxxxxxxxxx |           58 |           58 |           58 |xxxxxxxxxxxxx |xxxxxxxxxxxxx |xxxxxxxxxxxxx |xxxxxxxxxxxxx |           58 |           58 |           58 |xxxxxxxxxxxxx |xxxxxxxxxxxxx |xxxxxxxxxxxxx |xxxxxxxxxxxxx |           58 |           58 |           58 |xxxxxxxxxxxxx |xxxxxxxxxxxxx |xxxxxxxxxxxxx |xxxxxxxxxxxxx |           58 |           58 |           58 |xxxxxxxxxxxxx |xxxxxxxxxxxxx |xxxxxxxxxxxxx |xxxxxxxxxxxxx |           58 |           58 |           58 |xxxxxxxxxxxxx |xxxxxxxxxxxxx |xxxxxxxxxxxxx |xxxxxxxxxxxxx |           58 |           58 |           58 |xxxxxxxxxxxxx |xxxxxxxxxxxxx |xxxxxxxxxxxxx |xxxxxxxxxxxxx |           58 |           58 |           58 |xxxxxxxxxxxxx |xxxxxxxxxxxxx |xxxxxxxxxxxxx |xxxxxxxxxxxxx |           58 |           58 |           58 |xxxxxxxxxxxxx |xxxxxxxxxxxxx |xxxxxxxxxxxxx |xxxxxxxxxxxxx |           58 |           58 |           58 |xxxxxxxxxxxxx |xxxxxxxxxxxxx |xxxxxxxxxxxxx |xxxxxxxxxxxxx |           58 |           58 |           58 |
bpred_bimod.ras_hits.PP                         57 |           57 |           57 |xxxxxxxxxxxxx |xxxxxxxxxxxxx |xxxxxxxxxxxxx |xxxxxxxxxxxxx |           57 |           57 |           57 |xxxxxxxxxxxxx |xxxxxxxxxxxxx |xxxxxxxxxxxxx |xxxxxxxxxxxxx |           57 |           57 |           57 |xxxxxxxxxxxxx |xxxxxxxxxxxxx |xxxxxxxxxxxxx |xxxxxxxxxxxxx |           57 |           57 |           57 |xxxxxxxxxxxxx |xxxxxxxxxxxxx |xxxxxxxxxxxxx |xxxxxxxxxxxxx |           57 |           57 |           57 |xxxxxxxxxxxxx |xxxxxxxxxxxxx |xxxxxxxxxxxxx |xxxxxxxxxxxxx |           57 |           57 |           57 |xxxxxxxxxxxxx |xxxxxxxxxxxxx |xxxxxxxxxxxxx |xxxxxxxxxxxxx |           57 |           57 |           57 |xxxxxxxxxxxxx |xxxxxxxxxxxxx |xxxxxxxxxxxxx |xxxxxxxxxxxxx |           57 |           57 |           57 |xxxxxxxxxxxxx |xxxxxxxxxxxxx |xxxxxxxxxxxxx |xxxxxxxxxxxxx |           57 |           57 |           57 |xxxxxxxxxxxxx |xxxxxxxxxxxxx |xxxxxxxxxxxxx |xxxxxxxxxxxxx |           57 |           57 |           57 |xxxxxxxxxxxxx |xxxxxxxxxxxxx |xxxxxxxxxxxxx |xxxxxxxxxxxxx |           57 |           57 |           57 |
bpred_bimod.ras_rate.PP                     0.9828 |       0.9828 |       0.9828 |xxxxxxxxxxxxx |xxxxxxxxxxxxx |xxxxxxxxxxxxx |xxxxxxxxxxxxx |       0.9828 |       0.9828 |       0.9828 |xxxxxxxxxxxxx |xxxxxxxxxxxxx |xxxxxxxxxxxxx |xxxxxxxxxxxxx |       0.9828 |       0.9828 |       0.9828 |xxxxxxxxxxxxx |xxxxxxxxxxxxx |xxxxxxxxxxxxx |xxxxxxxxxxxxx |       0.9828 |       0.9828 |       0.9828 |xxxxxxxxxxxxx |xxxxxxxxxxxxx |xxxxxxxxxxxxx |xxxxxxxxxxxxx |       0.9828 |       0.9828 |       0.9828 |xxxxxxxxxxxxx |xxxxxxxxxxxxx |xxxxxxxxxxxxx |xxxxxxxxxxxxx |       0.9828 |       0.9828 |       0.9828 |xxxxxxxxxxxxx |xxxxxxxxxxxxx |xxxxxxxxxxxxx |xxxxxxxxxxxxx |       0.9828 |       0.9828 |       0.9828 |xxxxxxxxxxxxx |xxxxxxxxxxxxx |xxxxxxxxxxxxx |xxxxxxxxxxxxx |       0.9828 |       0.9828 |       0.9828 |xxxxxxxxxxxxx |xxxxxxxxxxxxx |xxxxxxxxxxxxx |xxxxxxxxxxxxx |       0.9828 |       0.9828 |       0.9828 |xxxxxxxxxxxxx |xxxxxxxxxxxxx |xxxxxxxxxxxxx |xxxxxxxxxxxxx |       0.9828 |       0.9828 |       0.9828 |xxxxxxxxxxxxx |xxxxxxxxxxxxx |xxxxxxxxxxxxx |xxxxxxxxxxxxx |       0.9828 |       0.9828 |       0.9828 |
bpred_2lev.lookups                   xxxxxxxxxxxxx |xxxxxxxxxxxxx |xxxxxxxxxxxxx |       145655 |       145655 |       145655 |       145655 |xxxxxxxxxxxxx |xxxxxxxxxxxxx |xxxxxxxxxxxxx |       325987 |       325987 |       325987 |       325987 |xxxxxxxxxxxxx |xxxxxxxxxxxxx |xxxxxxxxxxxxx |       743978 |       743978 |       743978 |       743978 |xxxxxxxxxxxxx |xxxxxxxxxxxxx |xxxxxxxxxxxxx |      1623154 |      1623154 |      1623154 |      1623154 |xxxxxxxxxxxxx |xxxxxxxxxxxxx |xxxxxxxxxxxxx |      3441624 |      3441624 |      3441624 |      3441624 |xxxxxxxxxxxxx |xxxxxxxxxxxxx |xxxxxxxxxxxxx |      7658657 |      7658657 |      7658657 |      7658657 |xxxxxxxxxxxxx |xxxxxxxxxxxxx |xxxxxxxxxxxxx |     15916744 |     15916744 |     15916744 |     15916744 |xxxxxxxxxxxxx |xxxxxxxxxxxxx |xxxxxxxxxxxxx |     34306205 |     34306205 |     34306205 |     34306205 |xxxxxxxxxxxxx |xxxxxxxxxxxxx |xxxxxxxxxxxxx |     72795326 |     72795326 |     72795326 |     72795326 |xxxxxxxxxxxxx |xxxxxxxxxxxxx |xxxxxxxxxxxxx |    156492132 |    156492132 |    156492132 |    156492132 |xxxxxxxxxxxxx |xxxxxxxxxxxxx |xxxxxxxxxxxxx |    328317316 |    328317316 |    328317316 |    328317316 |
[...]
bpred_2lev.retstack_pushes           xxxxxxxxxxxxx |xxxxxxxxxxxxx |xxxxxxxxxxxxx |           60 |           60 |           60 |           60 |xxxxxxxxxxxxx |xxxxxxxxxxxxx |xxxxxxxxxxxxx |           60 |           60 |           60 |           60 |xxxxxxxxxxxxx |xxxxxxxxxxxxx |xxxxxxxxxxxxx |           60 |           60 |           60 |           60 |xxxxxxxxxxxxx |xxxxxxxxxxxxx |xxxxxxxxxxxxx |           60 |           60 |           60 |           60 |xxxxxxxxxxxxx |xxxxxxxxxxxxx |xxxxxxxxxxxxx |           60 |           60 |           60 |           60 |xxxxxxxxxxxxx |xxxxxxxxxxxxx |xxxxxxxxxxxxx |           60 |           60 |           60 |           60 |xxxxxxxxxxxxx |xxxxxxxxxxxxx |xxxxxxxxxxxxx |           60 |           60 |           60 |           60 |xxxxxxxxxxxxx |xxxxxxxxxxxxx |xxxxxxxxxxxxx |           60 |           60 |           60 |           60 |xxxxxxxxxxxxx |xxxxxxxxxxxxx |xxxxxxxxxxxxx |           60 |           60 |           60 |           60 |xxxxxxxxxxxxx |xxxxxxxxxxxxx |xxxxxxxxxxxxx |           60 |           60 |           60 |           60 |xxxxxxxxxxxxx |xxxxxxxxxxxxx |xxxxxxxxxxxxx |           60 |           60 |           60 |           60 |
bpred_2lev.retstack_pops             xxxxxxxxxxxxx |xxxxxxxxxxxxx |xxxxxxxxxxxxx |           58 |           58 |           58 |           58 |xxxxxxxxxxxxx |xxxxxxxxxxxxx |xxxxxxxxxxxxx |           58 |           58 |           58 |           58 |xxxxxxxxxxxxx |xxxxxxxxxxxxx |xxxxxxxxxxxxx |           58 |           58 |           58 |           58 |xxxxxxxxxxxxx |xxxxxxxxxxxxx |xxxxxxxxxxxxx |           58 |           58 |           58 |           58 |xxxxxxxxxxxxx |xxxxxxxxxxxxx |xxxxxxxxxxxxx |           58 |           58 |           58 |           58 |xxxxxxxxxxxxx |xxxxxxxxxxxxx |xxxxxxxxxxxxx |           58 |           58 |           58 |           58 |xxxxxxxxxxxxx |xxxxxxxxxxxxx |xxxxxxxxxxxxx |           58 |           58 |           58 |           58 |xxxxxxxxxxxxx |xxxxxxxxxxxxx |xxxxxxxxxxxxx |           58 |           58 |           58 |           58 |xxxxxxxxxxxxx |xxxxxxxxxxxxx |xxxxxxxxxxxxx |           58 |           58 |           58 |           58 |xxxxxxxxxxxxx |xxxxxxxxxxxxx |xxxxxxxxxxxxx |           58 |           58 |           58 |           58 |xxxxxxxxxxxxx |xxxxxxxxxxxxx |xxxxxxxxxxxxx |           58 |           58 |           58 |           58 |
bpred_2lev.used_ras.PP               xxxxxxxxxxxxx |xxxxxxxxxxxxx |xxxxxxxxxxxxx |           58 |           58 |           58 |           58 |xxxxxxxxxxxxx |xxxxxxxxxxxxx |xxxxxxxxxxxxx |           58 |           58 |           58 |           58 |xxxxxxxxxxxxx |xxxxxxxxxxxxx |xxxxxxxxxxxxx |           58 |           58 |           58 |           58 |xxxxxxxxxxxxx |xxxxxxxxxxxxx |xxxxxxxxxxxxx |           58 |           58 |           58 |           58 |xxxxxxxxxxxxx |xxxxxxxxxxxxx |xxxxxxxxxxxxx |           58 |           58 |           58 |           58 |xxxxxxxxxxxxx |xxxxxxxxxxxxx |xxxxxxxxxxxxx |           58 |           58 |           58 |           58 |xxxxxxxxxxxxx |xxxxxxxxxxxxx |xxxxxxxxxxxxx |           58 |           58 |           58 |           58 |xxxxxxxxxxxxx |xxxxxxxxxxxxx |xxxxxxxxxxxxx |           58 |           58 |           58 |           58 |xxxxxxxxxxxxx |xxxxxxxxxxxxx |xxxxxxxxxxxxx |           58 |           58 |           58 |           58 |xxxxxxxxxxxxx |xxxxxxxxxxxxx |xxxxxxxxxxxxx |           58 |           58 |           58 |           58 |xxxxxxxxxxxxx |xxxxxxxxxxxxx |xxxxxxxxxxxxx |           58 |           58 |           58 |           58 |
bpred_2lev.ras_hits.PP               xxxxxxxxxxxxx |xxxxxxxxxxxxx |xxxxxxxxxxxxx |           57 |           57 |           57 |           57 |xxxxxxxxxxxxx |xxxxxxxxxxxxx |xxxxxxxxxxxxx |           57 |           57 |           57 |           57 |xxxxxxxxxxxxx |xxxxxxxxxxxxx |xxxxxxxxxxxxx |           57 |           57 |           57 |           57 |xxxxxxxxxxxxx |xxxxxxxxxxxxx |xxxxxxxxxxxxx |           57 |           57 |           57 |           57 |xxxxxxxxxxxxx |xxxxxxxxxxxxx |xxxxxxxxxxxxx |           57 |           57 |           57 |           57 |xxxxxxxxxxxxx |xxxxxxxxxxxxx |xxxxxxxxxxxxx |           57 |           57 |           57 |           57 |xxxxxxxxxxxxx |xxxxxxxxxxxxx |xxxxxxxxxxxxx |           57 |           57 |           57 |           57 |xxxxxxxxxxxxx |xxxxxxxxxxxxx |xxxxxxxxxxxxx |           57 |           57 |           57 |           57 |xxxxxxxxxxxxx |xxxxxxxxxxxxx |xxxxxxxxxxxxx |           57 |           57 |           57 |           57 |xxxxxxxxxxxxx |xxxxxxxxxxxxx |xxxxxxxxxxxxx |           57 |           57 |           57 |           57 |xxxxxxxxxxxxx |xxxxxxxxxxxxx |xxxxxxxxxxxxx |           57 |           57 |           57 |           57 |
bpred_2lev.ras_rate.PP               xxxxxxxxxxxxx |xxxxxxxxxxxxx |xxxxxxxxxxxxx |       0.9828 |       0.9828 |       0.9828 |       0.9828 |xxxxxxxxxxxxx |xxxxxxxxxxxxx |xxxxxxxxxxxxx |       0.9828 |       0.9828 |       0.9828 |       0.9828 |xxxxxxxxxxxxx |xxxxxxxxxxxxx |xxxxxxxxxxxxx |       0.9828 |       0.9828 |       0.9828 |       0.9828 |xxxxxxxxxxxxx |xxxxxxxxxxxxx |xxxxxxxxxxxxx |       0.9828 |       0.9828 |       0.9828 |       0.9828 |xxxxxxxxxxxxx |xxxxxxxxxxxxx |xxxxxxxxxxxxx |       0.9828 |       0.9828 |       0.9828 |       0.9828 |xxxxxxxxxxxxx |xxxxxxxxxxxxx |xxxxxxxxxxxxx |       0.9828 |       0.9828 |       0.9828 |       0.9828 |xxxxxxxxxxxxx |xxxxxxxxxxxxx |xxxxxxxxxxxxx |       0.9828 |       0.9828 |       0.9828 |       0.9828 |xxxxxxxxxxxxx |xxxxxxxxxxxxx |xxxxxxxxxxxxx |       0.9828 |       0.9828 |       0.9828 |       0.9828 |xxxxxxxxxxxxx |xxxxxxxxxxxxx |xxxxxxxxxxxxx |       0.9828 |       0.9828 |       0.9828 |       0.9828 |xxxxxxxxxxxxx |xxxxxxxxxxxxx |xxxxxxxxxxxxx |       0.9828 |       0.9828 |       0.9828 |       0.9828 |xxxxxxxxxxxxx |xxxxxxxxxxxxx |xxxxxxxxxxxxx |       0.9828 |       0.9828 |       0.9828 |       0.9828 |

Command list: 
	sslittle-na-sstrix-gcc -Wall -O3 -funroll-loops -finline-functions  -DRANDOM_SIZE=4096 -DOFFSET=2 -DSORT=improved_shellsort sorts/improved_shellsort76071968.c simpleMain.c -o improved_shellsort1236773770
	sim-cache -cache:dl1 dl1:256:32:1:l -cache:dl2 dl2:131072:32:1:l -cache:il1 il1:256:32:1:l -cache:il2 dl2 improved_shellsort1236773770
	sim-cache -cache:dl1 dl1:256:32:1:l -cache:dl2 dl2:65536:32:1:l -cache:il1 il1:256:32:1:l -cache:il2 dl2 improved_shellsort1236773770
	sim-cache -cache:dl1 dl1:1:32:256:l -cache:dl2 dl2:1:32:131072:l -cache:il1 il1:1:32:256:l -cache:il2 dl2 improved_shellsort1236773770
	sim-cache -cache:dl1 dl1:1:32:256:l -cache:dl2 dl2:1:32:65536:l -cache:il1 il1:1:32:256:l -cache:il2 dl2 improved_shellsort1236773770
	sim-bpred -bpred bimod -bpred:bimod 512 improved_shellsort1236773770
	sim-bpred -bpred bimod -bpred:bimod 1024 improved_shellsort1236773770
	sim-bpred -bpred bimod -bpred:bimod 2048 improved_shellsort1236773770
	sim-bpred -bpred 2lev -bpred:2lev 1 512 10 1 improved_shellsort1236773770
	sim-bpred -bpred 2lev -bpred:2lev 1 1024 10 1 improved_shellsort1236773770
	sim-bpred -bpred 2lev -bpred:2lev 1 2048 10 1 improved_shellsort1236773770
	sim-bpred -bpred 2lev -bpred:2lev 1 4096 10 1 improved_shellsort1236773770
	sslittle-na-sstrix-gcc -Wall -O3 -funroll-loops -finline-functions  -DRANDOM_SIZE=8192 -DOFFSET=2 -DSORT=improved_shellsort sorts/improved_shellsort76071968.c simpleMain.c -o improved_shellsort1236773770
	sim-cache -cache:dl1 dl1:256:32:1:l -cache:dl2 dl2:131072:32:1:l -cache:il1 il1:256:32:1:l -cache:il2 dl2 improved_shellsort1236773770
	sim-cache -cache:dl1 dl1:256:32:1:l -cache:dl2 dl2:65536:32:1:l -cache:il1 il1:256:32:1:l -cache:il2 dl2 improved_shellsort1236773770
	sim-cache -cache:dl1 dl1:1:32:256:l -cache:dl2 dl2:1:32:131072:l -cache:il1 il1:1:32:256:l -cache:il2 dl2 improved_shellsort1236773770
	sim-cache -cache:dl1 dl1:1:32:256:l -cache:dl2 dl2:1:32:65536:l -cache:il1 il1:1:32:256:l -cache:il2 dl2 improved_shellsort1236773770
	sim-bpred -bpred bimod -bpred:bimod 512 improved_shellsort1236773770
	sim-bpred -bpred bimod -bpred:bimod 1024 improved_shellsort1236773770
	sim-bpred -bpred bimod -bpred:bimod 2048 improved_shellsort1236773770
	sim-bpred -bpred 2lev -bpred:2lev 1 512 10 1 improved_shellsort1236773770
	sim-bpred -bpred 2lev -bpred:2lev 1 1024 10 1 improved_shellsort1236773770
	sim-bpred -bpred 2lev -bpred:2lev 1 2048 10 1 improved_shellsort1236773770
	sim-bpred -bpred 2lev -bpred:2lev 1 4096 10 1 improved_shellsort1236773770
	sslittle-na-sstrix-gcc -Wall -O3 -funroll-loops -finline-functions  -DRANDOM_SIZE=16384 -DOFFSET=2 -DSORT=improved_shellsort sorts/improved_shellsort76071968.c simpleMain.c -o improved_shellsort1236773770
	sim-cache -cache:dl1 dl1:256:32:1:l -cache:dl2 dl2:131072:32:1:l -cache:il1 il1:256:32:1:l -cache:il2 dl2 improved_shellsort1236773770
	sim-cache -cache:dl1 dl1:256:32:1:l -cache:dl2 dl2:65536:32:1:l -cache:il1 il1:256:32:1:l -cache:il2 dl2 improved_shellsort1236773770
	sim-cache -cache:dl1 dl1:1:32:256:l -cache:dl2 dl2:1:32:131072:l -cache:il1 il1:1:32:256:l -cache:il2 dl2 improved_shellsort1236773770
	sim-cache -cache:dl1 dl1:1:32:256:l -cache:dl2 dl2:1:32:65536:l -cache:il1 il1:1:32:256:l -cache:il2 dl2 improved_shellsort1236773770
	sim-bpred -bpred bimod -bpred:bimod 512 improved_shellsort1236773770
	sim-bpred -bpred bimod -bpred:bimod 1024 improved_shellsort1236773770
	sim-bpred -bpred bimod -bpred:bimod 2048 improved_shellsort1236773770
	sim-bpred -bpred 2lev -bpred:2lev 1 512 10 1 improved_shellsort1236773770
	sim-bpred -bpred 2lev -bpred:2lev 1 1024 10 1 improved_shellsort1236773770
	sim-bpred -bpred 2lev -bpred:2lev 1 2048 10 1 improved_shellsort1236773770
	sim-bpred -bpred 2lev -bpred:2lev 1 4096 10 1 improved_shellsort1236773770
	sslittle-na-sstrix-gcc -Wall -O3 -funroll-loops -finline-functions  -DRANDOM_SIZE=32768 -DOFFSET=2 -DSORT=improved_shellsort sorts/improved_shellsort76071968.c simpleMain.c -o improved_shellsort1236773770
	sim-cache -cache:dl1 dl1:256:32:1:l -cache:dl2 dl2:131072:32:1:l -cache:il1 il1:256:32:1:l -cache:il2 dl2 improved_shellsort1236773770
	sim-cache -cache:dl1 dl1:256:32:1:l -cache:dl2 dl2:65536:32:1:l -cache:il1 il1:256:32:1:l -cache:il2 dl2 improved_shellsort1236773770
	sim-cache -cache:dl1 dl1:1:32:256:l -cache:dl2 dl2:1:32:131072:l -cache:il1 il1:1:32:256:l -cache:il2 dl2 improved_shellsort1236773770
	sim-cache -cache:dl1 dl1:1:32:256:l -cache:dl2 dl2:1:32:65536:l -cache:il1 il1:1:32:256:l -cache:il2 dl2 improved_shellsort1236773770
	sim-bpred -bpred bimod -bpred:bimod 512 improved_shellsort1236773770
	sim-bpred -bpred bimod -bpred:bimod 1024 improved_shellsort1236773770
	sim-bpred -bpred bimod -bpred:bimod 2048 improved_shellsort1236773770
	sim-bpred -bpred 2lev -bpred:2lev 1 512 10 1 improved_shellsort1236773770
	sim-bpred -bpred 2lev -bpred:2lev 1 1024 10 1 improved_shellsort1236773770
	sim-bpred -bpred 2lev -bpred:2lev 1 2048 10 1 improved_shellsort1236773770
	sim-bpred -bpred 2lev -bpred:2lev 1 4096 10 1 improved_shellsort1236773770
	sslittle-na-sstrix-gcc -Wall -O3 -funroll-loops -finline-functions  -DRANDOM_SIZE=65536 -DOFFSET=2 -DSORT=improved_shellsort sorts/improved_shellsort76071968.c simpleMain.c -o improved_shellsort1236773770
	sim-cache -cache:dl1 dl1:256:32:1:l -cache:dl2 dl2:131072:32:1:l -cache:il1 il1:256:32:1:l -cache:il2 dl2 improved_shellsort1236773770
	sim-cache -cache:dl1 dl1:256:32:1:l -cache:dl2 dl2:65536:32:1:l -cache:il1 il1:256:32:1:l -cache:il2 dl2 improved_shellsort1236773770
	sim-cache -cache:dl1 dl1:1:32:256:l -cache:dl2 dl2:1:32:131072:l -cache:il1 il1:1:32:256:l -cache:il2 dl2 improved_shellsort1236773770
	sim-cache -cache:dl1 dl1:1:32:256:l -cache:dl2 dl2:1:32:65536:l -cache:il1 il1:1:32:256:l -cache:il2 dl2 improved_shellsort1236773770
	sim-bpred -bpred bimod -bpred:bimod 512 improved_shellsort1236773770
	sim-bpred -bpred bimod -bpred:bimod 1024 improved_shellsort1236773770
	sim-bpred -bpred bimod -bpred:bimod 2048 improved_shellsort1236773770
	sim-bpred -bpred 2lev -bpred:2lev 1 512 10 1 improved_shellsort1236773770
	sim-bpred -bpred 2lev -bpred:2lev 1 1024 10 1 improved_shellsort1236773770
	sim-bpred -bpred 2lev -bpred:2lev 1 2048 10 1 improved_shellsort1236773770
	sim-bpred -bpred 2lev -bpred:2lev 1 4096 10 1 improved_shellsort1236773770
	sslittle-na-sstrix-gcc -Wall -O3 -funroll-loops -finline-functions  -DRANDOM_SIZE=131072 -DOFFSET=2 -DSORT=improved_shellsort sorts/improved_shellsort76071968.c simpleMain.c -o improved_shellsort1236773770
	sim-cache -cache:dl1 dl1:256:32:1:l -cache:dl2 dl2:131072:32:1:l -cache:il1 il1:256:32:1:l -cache:il2 dl2 improved_shellsort1236773770
	sim-cache -cache:dl1 dl1:256:32:1:l -cache:dl2 dl2:65536:32:1:l -cache:il1 il1:256:32:1:l -cache:il2 dl2 improved_shellsort1236773770
	sim-cache -cache:dl1 dl1:1:32:256:l -cache:dl2 dl2:1:32:131072:l -cache:il1 il1:1:32:256:l -cache:il2 dl2 improved_shellsort1236773770
	sim-cache -cache:dl1 dl1:1:32:256:l -cache:dl2 dl2:1:32:65536:l -cache:il1 il1:1:32:256:l -cache:il2 dl2 improved_shellsort1236773770
	sim-bpred -bpred bimod -bpred:bimod 512 improved_shellsort1236773770
	sim-bpred -bpred bimod -bpred:bimod 1024 improved_shellsort1236773770
	sim-bpred -bpred bimod -bpred:bimod 2048 improved_shellsort1236773770
	sim-bpred -bpred 2lev -bpred:2lev 1 512 10 1 improved_shellsort1236773770
	sim-bpred -bpred 2lev -bpred:2lev 1 1024 10 1 improved_shellsort1236773770
	sim-bpred -bpred 2lev -bpred:2lev 1 2048 10 1 improved_shellsort1236773770
	sim-bpred -bpred 2lev -bpred:2lev 1 4096 10 1 improved_shellsort1236773770
	sslittle-na-sstrix-gcc -Wall -O3 -funroll-loops -finline-functions  -DRANDOM_SIZE=262144 -DOFFSET=2 -DSORT=improved_shellsort sorts/improved_shellsort76071968.c simpleMain.c -o improved_shellsort1236773770
	sim-cache -cache:dl1 dl1:256:32:1:l -cache:dl2 dl2:131072:32:1:l -cache:il1 il1:256:32:1:l -cache:il2 dl2 improved_shellsort1236773770
	sim-cache -cache:dl1 dl1:256:32:1:l -cache:dl2 dl2:65536:32:1:l -cache:il1 il1:256:32:1:l -cache:il2 dl2 improved_shellsort1236773770
	sim-cache -cache:dl1 dl1:1:32:256:l -cache:dl2 dl2:1:32:131072:l -cache:il1 il1:1:32:256:l -cache:il2 dl2 improved_shellsort1236773770
	sim-cache -cache:dl1 dl1:1:32:256:l -cache:dl2 dl2:1:32:65536:l -cache:il1 il1:1:32:256:l -cache:il2 dl2 improved_shellsort1236773770
	sim-bpred -bpred bimod -bpred:bimod 512 improved_shellsort1236773770
	sim-bpred -bpred bimod -bpred:bimod 1024 improved_shellsort1236773770
	sim-bpred -bpred bimod -bpred:bimod 2048 improved_shellsort1236773770
	sim-bpred -bpred 2lev -bpred:2lev 1 512 10 1 improved_shellsort1236773770
	sim-bpred -bpred 2lev -bpred:2lev 1 1024 10 1 improved_shellsort1236773770
	sim-bpred -bpred 2lev -bpred:2lev 1 2048 10 1 improved_shellsort1236773770
	sim-bpred -bpred 2lev -bpred:2lev 1 4096 10 1 improved_shellsort1236773770
	sslittle-na-sstrix-gcc -Wall -O3 -funroll-loops -finline-functions  -DRANDOM_SIZE=524288 -DOFFSET=2 -DSORT=improved_shellsort sorts/improved_shellsort76071968.c simpleMain.c -o improved_shellsort1236773770
	sim-cache -cache:dl1 dl1:256:32:1:l -cache:dl2 dl2:131072:32:1:l -cache:il1 il1:256:32:1:l -cache:il2 dl2 improved_shellsort1236773770
	sim-cache -cache:dl1 dl1:256:32:1:l -cache:dl2 dl2:65536:32:1:l -cache:il1 il1:256:32:1:l -cache:il2 dl2 improved_shellsort1236773770
	sim-cache -cache:dl1 dl1:1:32:256:l -cache:dl2 dl2:1:32:131072:l -cache:il1 il1:1:32:256:l -cache:il2 dl2 improved_shellsort1236773770
	sim-cache -cache:dl1 dl1:1:32:256:l -cache:dl2 dl2:1:32:65536:l -cache:il1 il1:1:32:256:l -cache:il2 dl2 improved_shellsort1236773770
	sim-bpred -bpred bimod -bpred:bimod 512 improved_shellsort1236773770
	sim-bpred -bpred bimod -bpred:bimod 1024 improved_shellsort1236773770
	sim-bpred -bpred bimod -bpred:bimod 2048 improved_shellsort1236773770
	sim-bpred -bpred 2lev -bpred:2lev 1 512 10 1 improved_shellsort1236773770
	sim-bpred -bpred 2lev -bpred:2lev 1 1024 10 1 improved_shellsort1236773770
	sim-bpred -bpred 2lev -bpred:2lev 1 2048 10 1 improved_shellsort1236773770
	sim-bpred -bpred 2lev -bpred:2lev 1 4096 10 1 improved_shellsort1236773770
	sslittle-na-sstrix-gcc -Wall -O3 -funroll-loops -finline-functions  -DRANDOM_SIZE=1048576 -DOFFSET=2 -DSORT=improved_shellsort sorts/improved_shellsort76071968.c simpleMain.c -o improved_shellsort1236773770
	sim-cache -cache:dl1 dl1:256:32:1:l -cache:dl2 dl2:131072:32:1:l -cache:il1 il1:256:32:1:l -cache:il2 dl2 improved_shellsort1236773770
	sim-cache -cache:dl1 dl1:256:32:1:l -cache:dl2 dl2:65536:32:1:l -cache:il1 il1:256:32:1:l -cache:il2 dl2 improved_shellsort1236773770
	sim-cache -cache:dl1 dl1:1:32:256:l -cache:dl2 dl2:1:32:131072:l -cache:il1 il1:1:32:256:l -cache:il2 dl2 improved_shellsort1236773770
	sim-cache -cache:dl1 dl1:1:32:256:l -cache:dl2 dl2:1:32:65536:l -cache:il1 il1:1:32:256:l -cache:il2 dl2 improved_shellsort1236773770
	sim-bpred -bpred bimod -bpred:bimod 512 improved_shellsort1236773770
	sim-bpred -bpred bimod -bpred:bimod 1024 improved_shellsort1236773770
	sim-bpred -bpred bimod -bpred:bimod 2048 improved_shellsort1236773770
	sim-bpred -bpred 2lev -bpred:2lev 1 512 10 1 improved_shellsort1236773770
	sim-bpred -bpred 2lev -bpred:2lev 1 1024 10 1 improved_shellsort1236773770
	sim-bpred -bpred 2lev -bpred:2lev 1 2048 10 1 improved_shellsort1236773770
	sim-bpred -bpred 2lev -bpred:2lev 1 4096 10 1 improved_shellsort1236773770
	sslittle-na-sstrix-gcc -Wall -O3 -funroll-loops -finline-functions  -DRANDOM_SIZE=2097152 -DOFFSET=2 -DSORT=improved_shellsort sorts/improved_shellsort76071968.c simpleMain.c -o improved_shellsort1236773770
	sim-cache -cache:dl1 dl1:256:32:1:l -cache:dl2 dl2:131072:32:1:l -cache:il1 il1:256:32:1:l -cache:il2 dl2 improved_shellsort1236773770
	sim-cache -cache:dl1 dl1:256:32:1:l -cache:dl2 dl2:65536:32:1:l -cache:il1 il1:256:32:1:l -cache:il2 dl2 improved_shellsort1236773770
	sim-cache -cache:dl1 dl1:1:32:256:l -cache:dl2 dl2:1:32:131072:l -cache:il1 il1:1:32:256:l -cache:il2 dl2 improved_shellsort1236773770
	sim-cache -cache:dl1 dl1:1:32:256:l -cache:dl2 dl2:1:32:65536:l -cache:il1 il1:1:32:256:l -cache:il2 dl2 improved_shellsort1236773770
	sim-bpred -bpred bimod -bpred:bimod 512 improved_shellsort1236773770
	sim-bpred -bpred bimod -bpred:bimod 1024 improved_shellsort1236773770
	sim-bpred -bpred bimod -bpred:bimod 2048 improved_shellsort1236773770
	sim-bpred -bpred 2lev -bpred:2lev 1 512 10 1 improved_shellsort1236773770
	sim-bpred -bpred 2lev -bpred:2lev 1 1024 10 1 improved_shellsort1236773770
	sim-bpred -bpred 2lev -bpred:2lev 1 2048 10 1 improved_shellsort1236773770
	sim-bpred -bpred 2lev -bpred:2lev 1 4096 10 1 improved_shellsort1236773770
	sslittle-na-sstrix-gcc -Wall -O3 -funroll-loops -finline-functions  -DRANDOM_SIZE=4194304 -DOFFSET=2 -DSORT=improved_shellsort sorts/improved_shellsort76071968.c simpleMain.c -o improved_shellsort1236773770
	sim-cache -cache:dl1 dl1:256:32:1:l -cache:dl2 dl2:131072:32:1:l -cache:il1 il1:256:32:1:l -cache:il2 dl2 improved_shellsort1236773770
	sim-cache -cache:dl1 dl1:256:32:1:l -cache:dl2 dl2:65536:32:1:l -cache:il1 il1:256:32:1:l -cache:il2 dl2 improved_shellsort1236773770
	sim-cache -cache:dl1 dl1:1:32:256:l -cache:dl2 dl2:1:32:131072:l -cache:il1 il1:1:32:256:l -cache:il2 dl2 improved_shellsort1236773770
	sim-cache -cache:dl1 dl1:1:32:256:l -cache:dl2 dl2:1:32:65536:l -cache:il1 il1:1:32:256:l -cache:il2 dl2 improved_shellsort1236773770
	sim-bpred -bpred bimod -bpred:bimod 512 improved_shellsort1236773770
	sim-bpred -bpred bimod -bpred:bimod 1024 improved_shellsort1236773770
	sim-bpred -bpred bimod -bpred:bimod 2048 improved_shellsort1236773770
	sim-bpred -bpred 2lev -bpred:2lev 1 512 10 1 improved_shellsort1236773770
	sim-bpred -bpred 2lev -bpred:2lev 1 1024 10 1 improved_shellsort1236773770
	sim-bpred -bpred 2lev -bpred:2lev 1 2048 10 1 improved_shellsort1236773770
	sim-bpred -bpred 2lev -bpred:2lev 1 4096 10 1 improved_shellsort1236773770
