Thu Jun 23 12:38:53 2005
Run as: "./do_simple -c random.org1 -o 1 improved_shellsort"
-------------------------------------------------------------------------------------------------
sim-cache                                     4096 |         4096 |         4096 |         4096 |         8192 |         8192 |         8192 |         8192 |        16384 |        16384 |        16384 |        16384 |        32768 |        32768 |        32768 |        32768 |        65536 |        65536 |        65536 |        65536 |       131072 |       131072 |       131072 |       131072 |       262144 |       262144 |       262144 |       262144 |       524288 |       524288 |       524288 |       524288 |      1048576 |      1048576 |      1048576 |      1048576 |      2097152 |      2097152 |      2097152 |      2097152 |      4194304 |      4194304 |      4194304 |      4194304 |
-cache:dl1 dl1:256:32:1:l -cache:dl2 dl2:131072:32:1:l -cache:il1 il1:256:32:1:l -cache:il2 dl2
-cache:dl1 dl1:256:32:1:l -cache:dl2 dl2:65536:32:1:l -cache:il1 il1:256:32:1:l -cache:il2 dl2
-cache:dl1 dl1:1:32:256:l -cache:dl2 dl2:1:32:131072:l -cache:il1 il1:1:32:256:l -cache:il2 dl2
-cache:dl1 dl1:1:32:256:l -cache:dl2 dl2:1:32:65536:l -cache:il1 il1:1:32:256:l -cache:il2 dl2
-------------------------------------------------------------------------------------------------
sim_num_insn                                914671 |       914671 |       914671 |       914671 |      2030043 |      2030043 |      2030043 |      2030043 |      4615902 |      4615902 |      4615902 |      4615902 |     10055563 |     10055563 |     10055563 |     10055563 |     21194242 |     21194242 |     21194242 |     21194242 |     47296564 |     47296564 |     47296564 |     47296564 |     97428959 |     97428959 |     97428959 |     97428959 |    209204736 |    209204736 |    209204736 |    209204736 |    444252538 |    444252538 |    444252538 |    444252538 |    953185083 |    953185083 |    953185083 |    953185083 |   1994056150 |   1994056150 |   1994056150 |   1994056150 |
sim_num_refs                                194792 |       194792 |       194792 |       194792 |       426279 |       426279 |       426279 |       426279 |       929178 |       929178 |       929178 |       929178 |      2007187 |      2007187 |      2007187 |      2007187 |      4604349 |      4604349 |      4604349 |      4604349 |     10109303 |     10109303 |     10109303 |     10109303 |     20081030 |     20081030 |     20081030 |     20081030 |     42475452 |     42475452 |     42475452 |     42475452 |     88474943 |     88474943 |     88474943 |     88474943 |    190796422 |    190796422 |    190796422 |    190796422 |    386266353 |    386266353 |    386266353 |    386266353 |
sim_elapsed_time                                 1 |            1 |            7 |            3 |            1 |            1 |            9 |            5 |            1 |            2 |           14 |            8 |            3 |            2 |           26 |           14 |            6 |            5 |           48 |           26 |           12 |           12 |           90 |           49 |           24 |           24 |          168 |           86 |           51 |           51 |          295 |          134 |          108 |          108 |          435 |          199 |          231 |          231 |          577 |          337 |          482 |          482 |          859 |          620 |
sim_inst_rate                          914671.0000 |  914671.0000 |  130667.2857 |  304890.3333 | 2030043.0000 | 2030043.0000 |  225560.3333 |  406008.6000 | 4615902.0000 | 2307951.0000 |  329707.2857 |  576987.7500 | 3351854.3333 | 5027781.5000 |  386752.4231 |  718254.5000 | 3532373.6667 | 4238848.4000 |  441546.7083 |  815163.1538 | 3941380.3333 | 3941380.3333 |  525517.3778 |  965236.0000 | 4059539.9583 | 4059539.9583 |  579934.2798 | 1132894.8721 | 4102053.6471 | 4102053.6471 |  709168.5966 | 1561229.3731 | 4113449.4259 | 4113449.4259 | 1021270.2023 | 2232424.8141 | 4126342.3506 | 4126342.3506 | 1651967.2149 | 2828442.3828 | 4137045.9544 | 4137045.9544 | 2321369.2084 | 3216219.5968 |
il1.accesses                                914671 |       914671 |       914671 |       914671 |      2030043 |      2030043 |      2030043 |      2030043 |      4615902 |      4615902 |      4615902 |      4615902 |     10055563 |     10055563 |     10055563 |     10055563 |     21194242 |     21194242 |     21194242 |     21194242 |     47296564 |     47296564 |     47296564 |     47296564 |     97428959 |     97428959 |     97428959 |     97428959 |    209204736 |    209204736 |    209204736 |    209204736 |    444252538 |    444252538 |    444252538 |    444252538 |    953185083 |    953185083 |    953185083 |    953185083 |   1994056150 |   1994056150 |   1994056150 |   1994056150 |
il1.hits                                    914248 |       914248 |       914308 |       914308 |      2029618 |      2029618 |      2029678 |      2029678 |      4615486 |      4615486 |      4615540 |      4615540 |     10055137 |     10055137 |     10055197 |     10055197 |     21193816 |     21193816 |     21193876 |     21193876 |     47296139 |     47296139 |     47296199 |     47296199 |     97428534 |     97428534 |     97428594 |     97428594 |    209204311 |    209204311 |    209204371 |    209204371 |    444252113 |    444252113 |    444252173 |    444252173 |    953184658 |    953184658 |    953184718 |    953184718 |   1994055725 |   1994055725 |   1994055785 |   1994055785 |
il1.misses                                     423 |          423 |          363 |          363 |          425 |          425 |          365 |          365 |          416 |          416 |          362 |          362 |          426 |          426 |          366 |          366 |          426 |          426 |          366 |          366 |          425 |          425 |          365 |          365 |          425 |          425 |          365 |          365 |          425 |          425 |          365 |          365 |          425 |          425 |          365 |          365 |          425 |          425 |          365 |          365 |          425 |          425 |          365 |          365 |
il1.replacements                               212 |          212 |          107 |          107 |          212 |          212 |          109 |          109 |          206 |          206 |          106 |          106 |          212 |          212 |          110 |          110 |          212 |          212 |          110 |          110 |          211 |          211 |          109 |          109 |          211 |          211 |          109 |          109 |          211 |          211 |          109 |          109 |          211 |          211 |          109 |          109 |          211 |          211 |          109 |          109 |          211 |          211 |          109 |          109 |
il1.writebacks                                   0 |            0 |            0 |            0 |            0 |            0 |            0 |            0 |            0 |            0 |            0 |            0 |            0 |            0 |            0 |            0 |            0 |            0 |            0 |            0 |            0 |            0 |            0 |            0 |            0 |            0 |            0 |            0 |            0 |            0 |            0 |            0 |            0 |            0 |            0 |            0 |            0 |            0 |            0 |            0 |            0 |            0 |            0 |            0 |
il1.invalidations                                0 |            0 |            0 |            0 |            0 |            0 |            0 |            0 |            0 |            0 |            0 |            0 |            0 |            0 |            0 |            0 |            0 |            0 |            0 |            0 |            0 |            0 |            0 |            0 |            0 |            0 |            0 |            0 |            0 |            0 |            0 |            0 |            0 |            0 |            0 |            0 |            0 |            0 |            0 |            0 |            0 |            0 |            0 |            0 |
il1.miss_rate                               0.0005 |       0.0005 |       0.0004 |       0.0004 |       0.0002 |       0.0002 |       0.0002 |       0.0002 |       0.0001 |       0.0001 |       0.0001 |       0.0001 |       0.0000 |       0.0000 |       0.0000 |       0.0000 |       0.0000 |       0.0000 |       0.0000 |       0.0000 |       0.0000 |       0.0000 |       0.0000 |       0.0000 |       0.0000 |       0.0000 |       0.0000 |       0.0000 |       0.0000 |       0.0000 |       0.0000 |       0.0000 |       0.0000 |       0.0000 |       0.0000 |       0.0000 |       0.0000 |       0.0000 |       0.0000 |       0.0000 |       0.0000 |       0.0000 |       0.0000 |       0.0000 |
il1.repl_rate                               0.0002 |       0.0002 |       0.0001 |       0.0001 |       0.0001 |       0.0001 |       0.0001 |       0.0001 |       0.0000 |       0.0000 |       0.0000 |       0.0000 |       0.0000 |       0.0000 |       0.0000 |       0.0000 |       0.0000 |       0.0000 |       0.0000 |       0.0000 |       0.0000 |       0.0000 |       0.0000 |       0.0000 |       0.0000 |       0.0000 |       0.0000 |       0.0000 |       0.0000 |       0.0000 |       0.0000 |       0.0000 |       0.0000 |       0.0000 |       0.0000 |       0.0000 |       0.0000 |       0.0000 |       0.0000 |       0.0000 |       0.0000 |       0.0000 |       0.0000 |       0.0000 |
il1.wb_rate                                 0.0000 |       0.0000 |       0.0000 |       0.0000 |       0.0000 |       0.0000 |       0.0000 |       0.0000 |       0.0000 |       0.0000 |       0.0000 |       0.0000 |       0.0000 |       0.0000 |       0.0000 |       0.0000 |       0.0000 |       0.0000 |       0.0000 |       0.0000 |       0.0000 |       0.0000 |       0.0000 |       0.0000 |       0.0000 |       0.0000 |       0.0000 |       0.0000 |       0.0000 |       0.0000 |       0.0000 |       0.0000 |       0.0000 |       0.0000 |       0.0000 |       0.0000 |       0.0000 |       0.0000 |       0.0000 |       0.0000 |       0.0000 |       0.0000 |       0.0000 |       0.0000 |
il1.inv_rate                                0.0000 |       0.0000 |       0.0000 |       0.0000 |       0.0000 |       0.0000 |       0.0000 |       0.0000 |       0.0000 |       0.0000 |       0.0000 |       0.0000 |       0.0000 |       0.0000 |       0.0000 |       0.0000 |       0.0000 |       0.0000 |       0.0000 |       0.0000 |       0.0000 |       0.0000 |       0.0000 |       0.0000 |       0.0000 |       0.0000 |       0.0000 |       0.0000 |       0.0000 |       0.0000 |       0.0000 |       0.0000 |       0.0000 |       0.0000 |       0.0000 |       0.0000 |       0.0000 |       0.0000 |       0.0000 |       0.0000 |       0.0000 |       0.0000 |       0.0000 |       0.0000 |
dl1.accesses                                211258 |       211258 |       211258 |       211258 |       459129 |       459129 |       459129 |       459129 |       994796 |       994796 |       994796 |       994796 |      2138341 |      2138341 |      2138341 |      2138341 |      4866575 |      4866575 |      4866575 |      4866575 |     10633673 |     10633673 |     10633673 |     10633673 |     21129688 |     21129688 |     21129688 |     21129688 |     44572686 |     44572686 |     44572686 |     44572686 |     92669329 |     92669329 |     92669329 |     92669329 |    199185112 |    199185112 |    199185112 |    199185112 |    403043651 |    403043651 |    403043651 |    403043651 |
dl1.hits                                    205293 |       205293 |       204899 |       204899 |       443383 |       443383 |       442782 |       442782 |       954268 |       954268 |       952968 |       952968 |      2041353 |      2041353 |      2034660 |      2034660 |      4637962 |      4637962 |      4625288 |      4625288 |     10087233 |     10087233 |     10062660 |     10062660 |     19896722 |     19896722 |     19805546 |     19805546 |     41747253 |     41747253 |     41553039 |     41553039 |     86402297 |     86402297 |     85899008 |     85899008 |    185156682 |    185156682 |    184684211 |    184684211 |    372269308 |    372269308 |    372063821 |    372063821 |
dl1.misses                                    5965 |         5965 |         6359 |         6359 |        15746 |        15746 |        16347 |        16347 |        40528 |        40528 |        41828 |        41828 |        96988 |        96988 |       103681 |       103681 |       228613 |       228613 |       241287 |       241287 |       546440 |       546440 |       571013 |       571013 |      1232966 |      1232966 |      1324142 |      1324142 |      2825433 |      2825433 |      3019647 |      3019647 |      6267032 |      6267032 |      6770321 |      6770321 |     14028430 |     14028430 |     14500901 |     14500901 |     30774343 |     30774343 |     30979830 |     30979830 |
dl1.replacements                              5709 |         5709 |         6103 |         6103 |        15490 |        15490 |        16091 |        16091 |        40272 |        40272 |        41572 |        41572 |        96732 |        96732 |       103425 |       103425 |       228357 |       228357 |       241031 |       241031 |       546184 |       546184 |       570757 |       570757 |      1232710 |      1232710 |      1323886 |      1323886 |      2825177 |      2825177 |      3019391 |      3019391 |      6266776 |      6266776 |      6770065 |      6770065 |     14028174 |     14028174 |     14500645 |     14500645 |     30774087 |     30774087 |     30979574 |     30979574 |
dl1.writebacks                                5600 |         5600 |         5898 |         5898 |        14403 |        14403 |        14899 |        14899 |        36270 |        36270 |        37306 |        37306 |        85892 |        85892 |        91370 |        91370 |       198385 |       198385 |       208961 |       208961 |       470199 |       470199 |       491223 |       491223 |      1057551 |      1057551 |      1132747 |      1132747 |      2408900 |      2408900 |      2572169 |      2572169 |      5337197 |      5337197 |      5747051 |      5747051 |     11902955 |     11902955 |     12296272 |     12296272 |     26081107 |     26081107 |     26224097 |     26224097 |
dl1.invalidations                                0 |            0 |            0 |            0 |            0 |            0 |            0 |            0 |            0 |            0 |            0 |            0 |            0 |            0 |            0 |            0 |            0 |            0 |            0 |            0 |            0 |            0 |            0 |            0 |            0 |            0 |            0 |            0 |            0 |            0 |            0 |            0 |            0 |            0 |            0 |            0 |            0 |            0 |            0 |            0 |            0 |            0 |            0 |            0 |
dl1.miss_rate                               0.0282 |       0.0282 |       0.0301 |       0.0301 |       0.0343 |       0.0343 |       0.0356 |       0.0356 |       0.0407 |       0.0407 |       0.0420 |       0.0420 |       0.0454 |       0.0454 |       0.0485 |       0.0485 |       0.0470 |       0.0470 |       0.0496 |       0.0496 |       0.0514 |       0.0514 |       0.0537 |       0.0537 |       0.0584 |       0.0584 |       0.0627 |       0.0627 |       0.0634 |       0.0634 |       0.0677 |       0.0677 |       0.0676 |       0.0676 |       0.0731 |       0.0731 |       0.0704 |       0.0704 |       0.0728 |       0.0728 |       0.0764 |       0.0764 |       0.0769 |       0.0769 |
dl1.repl_rate                               0.0270 |       0.0270 |       0.0289 |       0.0289 |       0.0337 |       0.0337 |       0.0350 |       0.0350 |       0.0405 |       0.0405 |       0.0418 |       0.0418 |       0.0452 |       0.0452 |       0.0484 |       0.0484 |       0.0469 |       0.0469 |       0.0495 |       0.0495 |       0.0514 |       0.0514 |       0.0537 |       0.0537 |       0.0583 |       0.0583 |       0.0627 |       0.0627 |       0.0634 |       0.0634 |       0.0677 |       0.0677 |       0.0676 |       0.0676 |       0.0731 |       0.0731 |       0.0704 |       0.0704 |       0.0728 |       0.0728 |       0.0764 |       0.0764 |       0.0769 |       0.0769 |
dl1.wb_rate                                 0.0265 |       0.0265 |       0.0279 |       0.0279 |       0.0314 |       0.0314 |       0.0325 |       0.0325 |       0.0365 |       0.0365 |       0.0375 |       0.0375 |       0.0402 |       0.0402 |       0.0427 |       0.0427 |       0.0408 |       0.0408 |       0.0429 |       0.0429 |       0.0442 |       0.0442 |       0.0462 |       0.0462 |       0.0501 |       0.0501 |       0.0536 |       0.0536 |       0.0540 |       0.0540 |       0.0577 |       0.0577 |       0.0576 |       0.0576 |       0.0620 |       0.0620 |       0.0598 |       0.0598 |       0.0617 |       0.0617 |       0.0647 |       0.0647 |       0.0651 |       0.0651 |
dl1.inv_rate                                0.0000 |       0.0000 |       0.0000 |       0.0000 |       0.0000 |       0.0000 |       0.0000 |       0.0000 |       0.0000 |       0.0000 |       0.0000 |       0.0000 |       0.0000 |       0.0000 |       0.0000 |       0.0000 |       0.0000 |       0.0000 |       0.0000 |       0.0000 |       0.0000 |       0.0000 |       0.0000 |       0.0000 |       0.0000 |       0.0000 |       0.0000 |       0.0000 |       0.0000 |       0.0000 |       0.0000 |       0.0000 |       0.0000 |       0.0000 |       0.0000 |       0.0000 |       0.0000 |       0.0000 |       0.0000 |       0.0000 |       0.0000 |       0.0000 |       0.0000 |       0.0000 |
dl2.accesses                                 11988 |        11988 |        12620 |        12620 |        30574 |        30574 |        31611 |        31611 |        77214 |        77214 |        79496 |        79496 |       183306 |       183306 |       195417 |       195417 |       427424 |       427424 |       450614 |       450614 |      1017064 |      1017064 |      1062601 |      1062601 |      2290942 |      2290942 |      2457254 |      2457254 |      5234758 |      5234758 |      5592181 |      5592181 |     11604654 |     11604654 |     12517737 |     12517737 |     25931810 |     25931810 |     26797538 |     26797538 |     56855875 |     56855875 |     57204292 |     57204292 |
dl2.hits                                     10698 |        10698 |        11334 |        11334 |        28770 |        28770 |        29811 |        29811 |        74390 |        74390 |        76678 |        76678 |       178429 |       178429 |       190544 |       190544 |       418451 |       418451 |       441645 |       441645 |       999900 |       999900 |      1045441 |      1045441 |      2257394 |      2257394 |      2423710 |      2423710 |      5168442 |      5168335 |      5525869 |      5289643 |     11472693 |      9277718 |     11906362 |     10087842 |     21016819 |     20191848 |     21676775 |     20896837 |     44855214 |     42942895 |     44880651 |     42940884 |
dl2.misses                                    1290 |         1290 |         1286 |         1286 |         1804 |         1804 |         1800 |         1800 |         2824 |         2824 |         2818 |         2818 |         4877 |         4877 |         4873 |         4873 |         8973 |         8973 |         8969 |         8969 |        17164 |        17164 |        17160 |        17160 |        33548 |        33548 |        33544 |        33544 |        66316 |        66423 |        66312 |       302538 |       131961 |      2326936 |       611375 |      2429895 |      4914991 |      5739962 |      5120763 |      5900701 |     12000661 |     13912980 |     12323641 |     14263408 |
dl2.replacements                                57 |           57 |            0 |            0 |           58 |           58 |            0 |            0 |           63 |           63 |            0 |            0 |           59 |           59 |            0 |            0 |           59 |           59 |            0 |            0 |           59 |           59 |            0 |            0 |           59 |           59 |            0 |            0 |           59 |          887 |            0 |       237002 |          889 |      2261400 |       480303 |      2364359 |      4783919 |      5674426 |      4989691 |      5835165 |     11869589 |     13847444 |     12192569 |     14197872 |
dl2.writebacks                                   2 |            2 |            0 |            0 |            2 |            2 |            0 |            0 |            2 |            2 |            0 |            0 |            2 |            2 |            0 |            0 |            2 |            2 |            0 |            0 |            2 |            2 |            0 |            0 |            2 |            2 |            0 |            0 |            2 |          694 |            0 |       236857 |          697 |      2235620 |       480158 |      2314421 |      4732727 |      5396521 |      4890025 |      5527827 |     11313979 |     12832082 |     11577288 |     13108761 |
dl2.invalidations                                0 |            0 |            0 |            0 |            0 |            0 |            0 |            0 |            0 |            0 |            0 |            0 |            0 |            0 |            0 |            0 |            0 |            0 |            0 |            0 |            0 |            0 |            0 |            0 |            0 |            0 |            0 |            0 |            0 |            0 |            0 |            0 |            0 |            0 |            0 |            0 |            0 |            0 |            0 |            0 |            0 |            0 |            0 |            0 |
dl2.miss_rate                               0.1076 |       0.1076 |       0.1019 |       0.1019 |       0.0590 |       0.0590 |       0.0569 |       0.0569 |       0.0366 |       0.0366 |       0.0354 |       0.0354 |       0.0266 |       0.0266 |       0.0249 |       0.0249 |       0.0210 |       0.0210 |       0.0199 |       0.0199 |       0.0169 |       0.0169 |       0.0161 |       0.0161 |       0.0146 |       0.0146 |       0.0137 |       0.0137 |       0.0127 |       0.0127 |       0.0119 |       0.0541 |       0.0114 |       0.2005 |       0.0488 |       0.1941 |       0.1895 |       0.2213 |       0.1911 |       0.2202 |       0.2111 |       0.2447 |       0.2154 |       0.2493 |
dl2.repl_rate                               0.0048 |       0.0048 |       0.0000 |       0.0000 |       0.0019 |       0.0019 |       0.0000 |       0.0000 |       0.0008 |       0.0008 |       0.0000 |       0.0000 |       0.0003 |       0.0003 |       0.0000 |       0.0000 |       0.0001 |       0.0001 |       0.0000 |       0.0000 |       0.0001 |       0.0001 |       0.0000 |       0.0000 |       0.0000 |       0.0000 |       0.0000 |       0.0000 |       0.0000 |       0.0002 |       0.0000 |       0.0424 |       0.0001 |       0.1949 |       0.0384 |       0.1889 |       0.1845 |       0.2188 |       0.1862 |       0.2178 |       0.2088 |       0.2436 |       0.2131 |       0.2482 |
dl2.wb_rate                                 0.0002 |       0.0002 |       0.0000 |       0.0000 |       0.0001 |       0.0001 |       0.0000 |       0.0000 |       0.0000 |       0.0000 |       0.0000 |       0.0000 |       0.0000 |       0.0000 |       0.0000 |       0.0000 |       0.0000 |       0.0000 |       0.0000 |       0.0000 |       0.0000 |       0.0000 |       0.0000 |       0.0000 |       0.0000 |       0.0000 |       0.0000 |       0.0000 |       0.0000 |       0.0001 |       0.0000 |       0.0424 |       0.0001 |       0.1926 |       0.0384 |       0.1849 |       0.1825 |       0.2081 |       0.1825 |       0.2063 |       0.1990 |       0.2257 |       0.2024 |       0.2292 |
dl2.inv_rate                                0.0000 |       0.0000 |       0.0000 |       0.0000 |       0.0000 |       0.0000 |       0.0000 |       0.0000 |       0.0000 |       0.0000 |       0.0000 |       0.0000 |       0.0000 |       0.0000 |       0.0000 |       0.0000 |       0.0000 |       0.0000 |       0.0000 |       0.0000 |       0.0000 |       0.0000 |       0.0000 |       0.0000 |       0.0000 |       0.0000 |       0.0000 |       0.0000 |       0.0000 |       0.0000 |       0.0000 |       0.0000 |       0.0000 |       0.0000 |       0.0000 |       0.0000 |       0.0000 |       0.0000 |       0.0000 |       0.0000 |       0.0000 |       0.0000 |       0.0000 |       0.0000 |
itlb.accesses                               914671 |       914671 |       914671 |       914671 |      2030043 |      2030043 |      2030043 |      2030043 |      4615902 |      4615902 |      4615902 |      4615902 |     10055563 |     10055563 |     10055563 |     10055563 |     21194242 |     21194242 |     21194242 |     21194242 |     47296564 |     47296564 |     47296564 |     47296564 |     97428959 |     97428959 |     97428959 |     97428959 |    209204736 |    209204736 |    209204736 |    209204736 |    444252538 |    444252538 |    444252538 |    444252538 |    953185083 |    953185083 |    953185083 |    953185083 |   1994056150 |   1994056150 |   1994056150 |   1994056150 |
itlb.hits                                   914662 |       914662 |       914662 |       914662 |      2030034 |      2030034 |      2030034 |      2030034 |      4615893 |      4615893 |      4615893 |      4615893 |     10055553 |     10055553 |     10055553 |     10055553 |     21194232 |     21194232 |     21194232 |     21194232 |     47296554 |     47296554 |     47296554 |     47296554 |     97428949 |     97428949 |     97428949 |     97428949 |    209204726 |    209204726 |    209204726 |    209204726 |    444252528 |    444252528 |    444252528 |    444252528 |    953185073 |    953185073 |    953185073 |    953185073 |   1994056140 |   1994056140 |   1994056140 |   1994056140 |
itlb.misses                                      9 |            9 |            9 |            9 |            9 |            9 |            9 |            9 |            9 |            9 |            9 |            9 |           10 |           10 |           10 |           10 |           10 |           10 |           10 |           10 |           10 |           10 |           10 |           10 |           10 |           10 |           10 |           10 |           10 |           10 |           10 |           10 |           10 |           10 |           10 |           10 |           10 |           10 |           10 |           10 |           10 |           10 |           10 |           10 |
itlb.replacements                                0 |            0 |            0 |            0 |            0 |            0 |            0 |            0 |            0 |            0 |            0 |            0 |            0 |            0 |            0 |            0 |            0 |            0 |            0 |            0 |            0 |            0 |            0 |            0 |            0 |            0 |            0 |            0 |            0 |            0 |            0 |            0 |            0 |            0 |            0 |            0 |            0 |            0 |            0 |            0 |            0 |            0 |            0 |            0 |
itlb.writebacks                                  0 |            0 |            0 |            0 |            0 |            0 |            0 |            0 |            0 |            0 |            0 |            0 |            0 |            0 |            0 |            0 |            0 |            0 |            0 |            0 |            0 |            0 |            0 |            0 |            0 |            0 |            0 |            0 |            0 |            0 |            0 |            0 |            0 |            0 |            0 |            0 |            0 |            0 |            0 |            0 |            0 |            0 |            0 |            0 |
itlb.invalidations                               0 |            0 |            0 |            0 |            0 |            0 |            0 |            0 |            0 |            0 |            0 |            0 |            0 |            0 |            0 |            0 |            0 |            0 |            0 |            0 |            0 |            0 |            0 |            0 |            0 |            0 |            0 |            0 |            0 |            0 |            0 |            0 |            0 |            0 |            0 |            0 |            0 |            0 |            0 |            0 |            0 |            0 |            0 |            0 |
itlb.miss_rate                              0.0000 |       0.0000 |       0.0000 |       0.0000 |       0.0000 |       0.0000 |       0.0000 |       0.0000 |       0.0000 |       0.0000 |       0.0000 |       0.0000 |       0.0000 |       0.0000 |       0.0000 |       0.0000 |       0.0000 |       0.0000 |       0.0000 |       0.0000 |       0.0000 |       0.0000 |       0.0000 |       0.0000 |       0.0000 |       0.0000 |       0.0000 |       0.0000 |       0.0000 |       0.0000 |       0.0000 |       0.0000 |       0.0000 |       0.0000 |       0.0000 |       0.0000 |       0.0000 |       0.0000 |       0.0000 |       0.0000 |       0.0000 |       0.0000 |       0.0000 |       0.0000 |
itlb.repl_rate                              0.0000 |       0.0000 |       0.0000 |       0.0000 |       0.0000 |       0.0000 |       0.0000 |       0.0000 |       0.0000 |       0.0000 |       0.0000 |       0.0000 |       0.0000 |       0.0000 |       0.0000 |       0.0000 |       0.0000 |       0.0000 |       0.0000 |       0.0000 |       0.0000 |       0.0000 |       0.0000 |       0.0000 |       0.0000 |       0.0000 |       0.0000 |       0.0000 |       0.0000 |       0.0000 |       0.0000 |       0.0000 |       0.0000 |       0.0000 |       0.0000 |       0.0000 |       0.0000 |       0.0000 |       0.0000 |       0.0000 |       0.0000 |       0.0000 |       0.0000 |       0.0000 |
itlb.wb_rate                                0.0000 |       0.0000 |       0.0000 |       0.0000 |       0.0000 |       0.0000 |       0.0000 |       0.0000 |       0.0000 |       0.0000 |       0.0000 |       0.0000 |       0.0000 |       0.0000 |       0.0000 |       0.0000 |       0.0000 |       0.0000 |       0.0000 |       0.0000 |       0.0000 |       0.0000 |       0.0000 |       0.0000 |       0.0000 |       0.0000 |       0.0000 |       0.0000 |       0.0000 |       0.0000 |       0.0000 |       0.0000 |       0.0000 |       0.0000 |       0.0000 |       0.0000 |       0.0000 |       0.0000 |       0.0000 |       0.0000 |       0.0000 |       0.0000 |       0.0000 |       0.0000 |
itlb.inv_rate                               0.0000 |       0.0000 |       0.0000 |       0.0000 |       0.0000 |       0.0000 |       0.0000 |       0.0000 |       0.0000 |       0.0000 |       0.0000 |       0.0000 |       0.0000 |       0.0000 |       0.0000 |       0.0000 |       0.0000 |       0.0000 |       0.0000 |       0.0000 |       0.0000 |       0.0000 |       0.0000 |       0.0000 |       0.0000 |       0.0000 |       0.0000 |       0.0000 |       0.0000 |       0.0000 |       0.0000 |       0.0000 |       0.0000 |       0.0000 |       0.0000 |       0.0000 |       0.0000 |       0.0000 |       0.0000 |       0.0000 |       0.0000 |       0.0000 |       0.0000 |       0.0000 |
dtlb.accesses                               211258 |       211258 |       211258 |       211258 |       459129 |       459129 |       459129 |       459129 |       994796 |       994796 |       994796 |       994796 |      2138341 |      2138341 |      2138341 |      2138341 |      4866575 |      4866575 |      4866575 |      4866575 |     10633673 |     10633673 |     10633673 |     10633673 |     21129688 |     21129688 |     21129688 |     21129688 |     44572686 |     44572686 |     44572686 |     44572686 |     92669329 |     92669329 |     92669329 |     92669329 |    199185112 |    199185112 |    199185112 |    199185112 |    403043651 |    403043651 |    403043651 |    403043651 |
dtlb.hits                                   211247 |       211247 |       211247 |       211247 |       459114 |       459114 |       459114 |       459114 |       994773 |       994773 |       994773 |       994773 |      2138302 |      2138302 |      2138302 |      2138302 |      4866504 |      4866504 |      4866504 |      4866504 |     10633474 |     10633474 |     10633474 |     10633474 |     21124688 |     21124688 |     21124688 |     21124688 |     44558265 |     44558265 |     44558265 |     44558265 |     92522418 |     92522418 |     92522418 |     92522418 |    199089240 |    199089240 |    199089240 |    199089240 |    402810697 |    402810697 |    402810697 |    402810697 |
dtlb.misses                                     11 |           11 |           11 |           11 |           15 |           15 |           15 |           15 |           23 |           23 |           23 |           23 |           39 |           39 |           39 |           39 |           71 |           71 |           71 |           71 |          199 |          199 |          199 |          199 |         5000 |         5000 |         5000 |         5000 |        14421 |        14421 |        14421 |        14421 |       146911 |       146911 |       146911 |       146911 |        95872 |        95872 |        95872 |        95872 |       232954 |       232954 |       232954 |       232954 |
dtlb.replacements                                0 |            0 |            0 |            0 |            0 |            0 |            0 |            0 |            0 |            0 |            0 |            0 |            0 |            0 |            0 |            0 |            0 |            0 |            0 |            0 |           71 |           71 |           71 |           71 |         4872 |         4872 |         4872 |         4872 |        14293 |        14293 |        14293 |        14293 |       146783 |       146783 |       146783 |       146783 |        95744 |        95744 |        95744 |        95744 |       232826 |       232826 |       232826 |       232826 |
dtlb.writebacks                                  0 |            0 |            0 |            0 |            0 |            0 |            0 |            0 |            0 |            0 |            0 |            0 |            0 |            0 |            0 |            0 |            0 |            0 |            0 |            0 |           69 |           69 |           69 |           69 |         4794 |         4794 |         4794 |         4794 |        13739 |        13739 |        13739 |        13739 |       125422 |       125422 |       125422 |       125422 |        89928 |        89928 |        89928 |        89928 |       217192 |       217192 |       217192 |       217192 |
dtlb.invalidations                               0 |            0 |            0 |            0 |            0 |            0 |            0 |            0 |            0 |            0 |            0 |            0 |            0 |            0 |            0 |            0 |            0 |            0 |            0 |            0 |            0 |            0 |            0 |            0 |            0 |            0 |            0 |            0 |            0 |            0 |            0 |            0 |            0 |            0 |            0 |            0 |            0 |            0 |            0 |            0 |            0 |            0 |            0 |            0 |
dtlb.miss_rate                              0.0001 |       0.0001 |       0.0001 |       0.0001 |       0.0000 |       0.0000 |       0.0000 |       0.0000 |       0.0000 |       0.0000 |       0.0000 |       0.0000 |       0.0000 |       0.0000 |       0.0000 |       0.0000 |       0.0000 |       0.0000 |       0.0000 |       0.0000 |       0.0000 |       0.0000 |       0.0000 |       0.0000 |       0.0002 |       0.0002 |       0.0002 |       0.0002 |       0.0003 |       0.0003 |       0.0003 |       0.0003 |       0.0016 |       0.0016 |       0.0016 |       0.0016 |       0.0005 |       0.0005 |       0.0005 |       0.0005 |       0.0006 |       0.0006 |       0.0006 |       0.0006 |
dtlb.repl_rate                              0.0000 |       0.0000 |       0.0000 |       0.0000 |       0.0000 |       0.0000 |       0.0000 |       0.0000 |       0.0000 |       0.0000 |       0.0000 |       0.0000 |       0.0000 |       0.0000 |       0.0000 |       0.0000 |       0.0000 |       0.0000 |       0.0000 |       0.0000 |       0.0000 |       0.0000 |       0.0000 |       0.0000 |       0.0002 |       0.0002 |       0.0002 |       0.0002 |       0.0003 |       0.0003 |       0.0003 |       0.0003 |       0.0016 |       0.0016 |       0.0016 |       0.0016 |       0.0005 |       0.0005 |       0.0005 |       0.0005 |       0.0006 |       0.0006 |       0.0006 |       0.0006 |
dtlb.wb_rate                                0.0000 |       0.0000 |       0.0000 |       0.0000 |       0.0000 |       0.0000 |       0.0000 |       0.0000 |       0.0000 |       0.0000 |       0.0000 |       0.0000 |       0.0000 |       0.0000 |       0.0000 |       0.0000 |       0.0000 |       0.0000 |       0.0000 |       0.0000 |       0.0000 |       0.0000 |       0.0000 |       0.0000 |       0.0002 |       0.0002 |       0.0002 |       0.0002 |       0.0003 |       0.0003 |       0.0003 |       0.0003 |       0.0014 |       0.0014 |       0.0014 |       0.0014 |       0.0005 |       0.0005 |       0.0005 |       0.0005 |       0.0005 |       0.0005 |       0.0005 |       0.0005 |
dtlb.inv_rate                               0.0000 |       0.0000 |       0.0000 |       0.0000 |       0.0000 |       0.0000 |       0.0000 |       0.0000 |       0.0000 |       0.0000 |       0.0000 |       0.0000 |       0.0000 |       0.0000 |       0.0000 |       0.0000 |       0.0000 |       0.0000 |       0.0000 |       0.0000 |       0.0000 |       0.0000 |       0.0000 |       0.0000 |       0.0000 |       0.0000 |       0.0000 |       0.0000 |       0.0000 |       0.0000 |       0.0000 |       0.0000 |       0.0000 |       0.0000 |       0.0000 |       0.0000 |       0.0000 |       0.0000 |       0.0000 |       0.0000 |       0.0000 |       0.0000 |       0.0000 |       0.0000 |
ld_text_base                            0x00400000 |   0x00400000 |   0x00400000 |   0x00400000 |   0x00400000 |   0x00400000 |   0x00400000 |   0x00400000 |   0x00400000 |   0x00400000 |   0x00400000 |   0x00400000 |   0x00400000 |   0x00400000 |   0x00400000 |   0x00400000 |   0x00400000 |   0x00400000 |   0x00400000 |   0x00400000 |   0x00400000 |   0x00400000 |   0x00400000 |   0x00400000 |   0x00400000 |   0x00400000 |   0x00400000 |   0x00400000 |   0x00400000 |   0x00400000 |   0x00400000 |   0x00400000 |   0x00400000 |   0x00400000 |   0x00400000 |   0x00400000 |   0x00400000 |   0x00400000 |   0x00400000 |   0x00400000 |   0x00400000 |   0x00400000 |   0x00400000 |   0x00400000 |
ld_text_size                                 72720 |        72720 |        72720 |        72720 |        72752 |        72752 |        72752 |        72752 |        72768 |        72768 |        72768 |        72768 |        72784 |        72784 |        72784 |        72784 |        72784 |        72784 |        72784 |        72784 |        72784 |        72784 |        72784 |        72784 |        72784 |        72784 |        72784 |        72784 |        72784 |        72784 |        72784 |        72784 |        72784 |        72784 |        72784 |        72784 |        72784 |        72784 |        72784 |        72784 |        72784 |        72784 |        72784 |        72784 |
ld_data_base                            0x10000000 |   0x10000000 |   0x10000000 |   0x10000000 |   0x10000000 |   0x10000000 |   0x10000000 |   0x10000000 |   0x10000000 |   0x10000000 |   0x10000000 |   0x10000000 |   0x10000000 |   0x10000000 |   0x10000000 |   0x10000000 |   0x10000000 |   0x10000000 |   0x10000000 |   0x10000000 |   0x10000000 |   0x10000000 |   0x10000000 |   0x10000000 |   0x10000000 |   0x10000000 |   0x10000000 |   0x10000000 |   0x10000000 |   0x10000000 |   0x10000000 |   0x10000000 |   0x10000000 |   0x10000000 |   0x10000000 |   0x10000000 |   0x10000000 |   0x10000000 |   0x10000000 |   0x10000000 |   0x10000000 |   0x10000000 |   0x10000000 |   0x10000000 |
ld_data_size                                  8192 |         8192 |         8192 |         8192 |         8192 |         8192 |         8192 |         8192 |         8192 |         8192 |         8192 |         8192 |         8192 |         8192 |         8192 |         8192 |         8192 |         8192 |         8192 |         8192 |         8192 |         8192 |         8192 |         8192 |         8192 |         8192 |         8192 |         8192 |         8192 |         8192 |         8192 |         8192 |         8192 |         8192 |         8192 |         8192 |         8192 |         8192 |         8192 |         8192 |         8192 |         8192 |         8192 |         8192 |
ld_stack_base                           0x7fffc000 |   0x7fffc000 |   0x7fffc000 |   0x7fffc000 |   0x7fffc000 |   0x7fffc000 |   0x7fffc000 |   0x7fffc000 |   0x7fffc000 |   0x7fffc000 |   0x7fffc000 |   0x7fffc000 |   0x7fffc000 |   0x7fffc000 |   0x7fffc000 |   0x7fffc000 |   0x7fffc000 |   0x7fffc000 |   0x7fffc000 |   0x7fffc000 |   0x7fffc000 |   0x7fffc000 |   0x7fffc000 |   0x7fffc000 |   0x7fffc000 |   0x7fffc000 |   0x7fffc000 |   0x7fffc000 |   0x7fffc000 |   0x7fffc000 |   0x7fffc000 |   0x7fffc000 |   0x7fffc000 |   0x7fffc000 |   0x7fffc000 |   0x7fffc000 |   0x7fffc000 |   0x7fffc000 |   0x7fffc000 |   0x7fffc000 |   0x7fffc000 |   0x7fffc000 |   0x7fffc000 |   0x7fffc000 |
ld_stack_size                                16384 |        16384 |        16384 |        16384 |        16384 |        16384 |        16384 |        16384 |        16384 |        16384 |        16384 |        16384 |        16384 |        16384 |        16384 |        16384 |        16384 |        16384 |        16384 |        16384 |        16384 |        16384 |        16384 |        16384 |        16384 |        16384 |        16384 |        16384 |        16384 |        16384 |        16384 |        16384 |        16384 |        16384 |        16384 |        16384 |        16384 |        16384 |        16384 |        16384 |        16384 |        16384 |        16384 |        16384 |
ld_prog_entry                           0x00400140 |   0x00400140 |   0x00400140 |   0x00400140 |   0x00400140 |   0x00400140 |   0x00400140 |   0x00400140 |   0x00400140 |   0x00400140 |   0x00400140 |   0x00400140 |   0x00400140 |   0x00400140 |   0x00400140 |   0x00400140 |   0x00400140 |   0x00400140 |   0x00400140 |   0x00400140 |   0x00400140 |   0x00400140 |   0x00400140 |   0x00400140 |   0x00400140 |   0x00400140 |   0x00400140 |   0x00400140 |   0x00400140 |   0x00400140 |   0x00400140 |   0x00400140 |   0x00400140 |   0x00400140 |   0x00400140 |   0x00400140 |   0x00400140 |   0x00400140 |   0x00400140 |   0x00400140 |   0x00400140 |   0x00400140 |   0x00400140 |   0x00400140 |
ld_environ_base                         0x7fff8000 |   0x7fff8000 |   0x7fff8000 |   0x7fff8000 |   0x7fff8000 |   0x7fff8000 |   0x7fff8000 |   0x7fff8000 |   0x7fff8000 |   0x7fff8000 |   0x7fff8000 |   0x7fff8000 |   0x7fff8000 |   0x7fff8000 |   0x7fff8000 |   0x7fff8000 |   0x7fff8000 |   0x7fff8000 |   0x7fff8000 |   0x7fff8000 |   0x7fff8000 |   0x7fff8000 |   0x7fff8000 |   0x7fff8000 |   0x7fff8000 |   0x7fff8000 |   0x7fff8000 |   0x7fff8000 |   0x7fff8000 |   0x7fff8000 |   0x7fff8000 |   0x7fff8000 |   0x7fff8000 |   0x7fff8000 |   0x7fff8000 |   0x7fff8000 |   0x7fff8000 |   0x7fff8000 |   0x7fff8000 |   0x7fff8000 |   0x7fff8000 |   0x7fff8000 |   0x7fff8000 |   0x7fff8000 |
ld_target_big_endian                             0 |            0 |            0 |            0 |            0 |            0 |            0 |            0 |            0 |            0 |            0 |            0 |            0 |            0 |            0 |            0 |            0 |            0 |            0 |            0 |            0 |            0 |            0 |            0 |            0 |            0 |            0 |            0 |            0 |            0 |            0 |            0 |            0 |            0 |            0 |            0 |            0 |            0 |            0 |            0 |            0 |            0 |            0 |            0 |
mem.page_count                                  29 |           29 |           29 |           29 |           33 |           33 |           33 |           33 |           41 |           41 |           41 |           41 |           57 |           57 |           57 |           57 |           89 |           89 |           89 |           89 |          153 |          153 |          153 |          153 |          281 |          281 |          281 |          281 |          537 |          537 |          537 |          537 |         1049 |         1049 |         1049 |         1049 |         2073 |         2073 |         2073 |         2073 |         4121 |         4121 |         4121 |         4121 |
mem.page_mem                                  116k |         116k |         116k |         116k |         132k |         132k |         132k |         132k |         164k |         164k |         164k |         164k |         228k |         228k |         228k |         228k |         356k |         356k |         356k |         356k |         612k |         612k |         612k |         612k |        1124k |        1124k |        1124k |        1124k |        2148k |        2148k |        2148k |        2148k |        4196k |        4196k |        4196k |        4196k |        8292k |        8292k |        8292k |        8292k |       16484k |       16484k |       16484k |       16484k |
mem.ptab_misses                                 29 |           29 |           29 |           29 |           33 |           33 |           33 |           33 |           41 |           41 |           41 |           41 |           57 |           57 |           57 |           57 |           89 |           89 |           89 |           89 |          153 |          153 |          153 |          153 |          281 |          281 |          281 |          281 |          537 |          537 |          537 |          537 |         1049 |         1049 |         1049 |         1049 |         2073 |         2073 |         2073 |         2073 |         4121 |         4121 |         4121 |         4121 |
mem.ptab_accesses                          4532098 |      4532098 |      4532098 |      4532098 |      9489520 |      9489520 |      9489520 |      9489520 |     20904386 |     20904386 |     20904386 |     20904386 |     44950216 |     44950216 |     44950216 |     44950216 |     94961400 |     94961400 |     94961400 |     94961400 |    210904884 |    210904884 |    210904884 |    210904884 |    432426494 |    432426494 |    432426494 |    432426494 |    926415598 |    926415598 |    926415598 |    926415598 |   1962800092 |   1962800092 |   1962800092 |   1962800092 |   4211561838 |   4211561838 |   4211561838 |   4211561838 |   8782763184 |   8782763184 |   8782763184 |   8782763184 |
mem.ptab_miss_rate                          0.0000 |       0.0000 |       0.0000 |       0.0000 |       0.0000 |       0.0000 |       0.0000 |       0.0000 |       0.0000 |       0.0000 |       0.0000 |       0.0000 |       0.0000 |       0.0000 |       0.0000 |       0.0000 |       0.0000 |       0.0000 |       0.0000 |       0.0000 |       0.0000 |       0.0000 |       0.0000 |       0.0000 |       0.0000 |       0.0000 |       0.0000 |       0.0000 |       0.0000 |       0.0000 |       0.0000 |       0.0000 |       0.0000 |       0.0000 |       0.0000 |       0.0000 |       0.0000 |       0.0000 |       0.0000 |       0.0000 |       0.0000 |       0.0000 |       0.0000 |       0.0000 |
-------------------------------------------------------------------------------------------------
sim-bpred                                     4096 |         4096 |         4096 |         4096 |         4096 |         4096 |         4096 |         8192 |         8192 |         8192 |         8192 |         8192 |         8192 |         8192 |        16384 |        16384 |        16384 |        16384 |        16384 |        16384 |        16384 |        32768 |        32768 |        32768 |        32768 |        32768 |        32768 |        32768 |        65536 |        65536 |        65536 |        65536 |        65536 |        65536 |        65536 |       131072 |       131072 |       131072 |       131072 |       131072 |       131072 |       131072 |       262144 |       262144 |       262144 |       262144 |       262144 |       262144 |       262144 |       524288 |       524288 |       524288 |       524288 |       524288 |       524288 |       524288 |      1048576 |      1048576 |      1048576 |      1048576 |      1048576 |      1048576 |      1048576 |      2097152 |      2097152 |      2097152 |      2097152 |      2097152 |      2097152 |      2097152 |      4194304 |      4194304 |      4194304 |      4194304 |      4194304 |      4194304 |      4194304 |
-bpred bimod -bpred:bimod 512
-bpred bimod -bpred:bimod 1024
-bpred bimod -bpred:bimod 2048
-bpred 2lev -bpred:2lev 1 512 10 1
-bpred 2lev -bpred:2lev 1 1024 10 1
-bpred 2lev -bpred:2lev 1 2048 10 1
-bpred 2lev -bpred:2lev 1 4096 10 1
-------------------------------------------------------------------------------------------------
sim_num_insn                                914671 |       914671 |       914671 |       914671 |       914671 |       914671 |       914671 |      2030043 |      2030043 |      2030043 |      2030043 |      2030043 |      2030043 |      2030043 |      4615902 |      4615902 |      4615902 |      4615902 |      4615902 |      4615902 |      4615902 |     10055563 |     10055563 |     10055563 |     10055563 |     10055563 |     10055563 |     10055563 |     21194242 |     21194242 |     21194242 |     21194242 |     21194242 |     21194242 |     21194242 |     47296564 |     47296564 |     47296564 |     47296564 |     47296564 |     47296564 |     47296564 |     97428959 |     97428959 |     97428959 |     97428959 |     97428959 |     97428959 |     97428959 |    209204736 |    209204736 |    209204736 |    209204736 |    209204736 |    209204736 |    209204736 |    444252538 |    444252538 |    444252538 |    444252538 |    444252538 |    444252538 |    444252538 |    953185083 |    953185083 |    953185083 |    953185083 |    953185083 |    953185083 |    953185083 |   1994056150 |   1994056150 |   1994056150 |   1994056150 |   1994056150 |   1994056150 |   1994056150 |
sim_num_refs                                194792 |       194792 |       194792 |       194792 |       194792 |       194792 |       194792 |       426279 |       426279 |       426279 |       426279 |       426279 |       426279 |       426279 |       929178 |       929178 |       929178 |       929178 |       929178 |       929178 |       929178 |      2007187 |      2007187 |      2007187 |      2007187 |      2007187 |      2007187 |      2007187 |      4604349 |      4604349 |      4604349 |      4604349 |      4604349 |      4604349 |      4604349 |     10109303 |     10109303 |     10109303 |     10109303 |     10109303 |     10109303 |     10109303 |     20081030 |     20081030 |     20081030 |     20081030 |     20081030 |     20081030 |     20081030 |     42475452 |     42475452 |     42475452 |     42475452 |     42475452 |     42475452 |     42475452 |     88474943 |     88474943 |     88474943 |     88474943 |     88474943 |     88474943 |     88474943 |    190796422 |    190796422 |    190796422 |    190796422 |    190796422 |    190796422 |    190796422 |    386266353 |    386266353 |    386266353 |    386266353 |    386266353 |    386266353 |    386266353 |
sim_elapsed_time                                 1 |            1 |            1 |            1 |            1 |            1 |            1 |            1 |            1 |            1 |            1 |            1 |            1 |            1 |            1 |            1 |            1 |            1 |            1 |            1 |            1 |            1 |            2 |            1 |            1 |            1 |            1 |            1 |            2 |            2 |            3 |            2 |            2 |            3 |            2 |            5 |            5 |            6 |            5 |            5 |            5 |            5 |           11 |           10 |           11 |           11 |           11 |           11 |           11 |           23 |           24 |           22 |           24 |           23 |           24 |           23 |           49 |           49 |           49 |           49 |           50 |           50 |           50 |          105 |          105 |          105 |          106 |          107 |          107 |          106 |          219 |          220 |          219 |          223 |          223 |          223 |          222 |
sim_inst_rate                          914671.0000 |  914671.0000 |  914671.0000 |  914671.0000 |  914671.0000 |  914671.0000 |  914671.0000 | 2030043.0000 | 2030043.0000 | 2030043.0000 | 2030043.0000 | 2030043.0000 | 2030043.0000 | 2030043.0000 | 4615902.0000 | 4615902.0000 | 4615902.0000 | 4615902.0000 | 4615902.0000 | 4615902.0000 | 4615902.0000 |10055563.0000 | 5027781.5000 |10055563.0000 |10055563.0000 |10055563.0000 |10055563.0000 |10055563.0000 |10597121.0000 |10597121.0000 | 7064747.3333 |10597121.0000 |10597121.0000 | 7064747.3333 |10597121.0000 | 9459312.8000 | 9459312.8000 | 7882760.6667 | 9459312.8000 | 9459312.8000 | 9459312.8000 | 9459312.8000 | 8857178.0909 | 9742895.9000 | 8857178.0909 | 8857178.0909 | 8857178.0909 | 8857178.0909 | 8857178.0909 | 9095858.0870 | 8716864.0000 | 9509306.1818 | 8716864.0000 | 9095858.0870 | 8716864.0000 | 9095858.0870 | 9066378.3265 | 9066378.3265 | 9066378.3265 | 9066378.3265 | 8885050.7600 | 8885050.7600 | 8885050.7600 | 9077953.1714 | 9077953.1714 | 9077953.1714 | 8992312.1038 | 8908271.8037 | 8908271.8037 | 8992312.1038 | 9105279.2237 | 9063891.5909 | 9105279.2237 | 8941955.8296 | 8941955.8296 | 8941955.8296 | 8982234.9099 |
sim_num_branches                            147822 |       147822 |       147822 |       147822 |       147822 |       147822 |       147822 |       329230 |       329230 |       329230 |       329230 |       329230 |       329230 |       329230 |       753354 |       753354 |       753354 |       753354 |       753354 |       753354 |       753354 |      1644507 |      1644507 |      1644507 |      1644507 |      1644507 |      1644507 |      1644507 |      3432375 |      3432375 |      3432375 |      3432375 |      3432375 |      3432375 |      3432375 |      7681275 |      7681275 |      7681275 |      7681275 |      7681275 |      7681275 |      7681275 |     15902644 |     15902644 |     15902644 |     15902644 |     15902644 |     15902644 |     15902644 |     34227386 |     34227386 |     34227386 |     34227386 |     34227386 |     34227386 |     34227386 |     72880873 |     72880873 |     72880873 |     72880873 |     72880873 |     72880873 |     72880873 |    156358367 |    156358367 |    156358367 |    156358367 |    156358367 |    156358367 |    156358367 |    328425492 |    328425492 |    328425492 |    328425492 |    328425492 |    328425492 |    328425492 |
sim_IPB                                     6.1877 |       6.1877 |       6.1877 |       6.1877 |       6.1877 |       6.1877 |       6.1877 |       6.1660 |       6.1660 |       6.1660 |       6.1660 |       6.1660 |       6.1660 |       6.1660 |       6.1271 |       6.1271 |       6.1271 |       6.1271 |       6.1271 |       6.1271 |       6.1271 |       6.1146 |       6.1146 |       6.1146 |       6.1146 |       6.1146 |       6.1146 |       6.1146 |       6.1748 |       6.1748 |       6.1748 |       6.1748 |       6.1748 |       6.1748 |       6.1748 |       6.1574 |       6.1574 |       6.1574 |       6.1574 |       6.1574 |       6.1574 |       6.1574 |       6.1266 |       6.1266 |       6.1266 |       6.1266 |       6.1266 |       6.1266 |       6.1266 |       6.1122 |       6.1122 |       6.1122 |       6.1122 |       6.1122 |       6.1122 |       6.1122 |       6.0956 |       6.0956 |       6.0956 |       6.0956 |       6.0956 |       6.0956 |       6.0956 |       6.0962 |       6.0962 |       6.0962 |       6.0962 |       6.0962 |       6.0962 |       6.0962 |       6.0716 |       6.0716 |       6.0716 |       6.0716 |       6.0716 |       6.0716 |       6.0716 |
bpred_bimod.lookups                         147822 |       147822 |       147822 |xxxxxxxxxxxxx |xxxxxxxxxxxxx |xxxxxxxxxxxxx |xxxxxxxxxxxxx |       329230 |       329230 |       329230 |xxxxxxxxxxxxx |xxxxxxxxxxxxx |xxxxxxxxxxxxx |xxxxxxxxxxxxx |       753354 |       753354 |       753354 |xxxxxxxxxxxxx |xxxxxxxxxxxxx |xxxxxxxxxxxxx |xxxxxxxxxxxxx |      1644507 |      1644507 |      1644507 |xxxxxxxxxxxxx |xxxxxxxxxxxxx |xxxxxxxxxxxxx |xxxxxxxxxxxxx |      3432375 |      3432375 |      3432375 |xxxxxxxxxxxxx |xxxxxxxxxxxxx |xxxxxxxxxxxxx |xxxxxxxxxxxxx |      7681275 |      7681275 |      7681275 |xxxxxxxxxxxxx |xxxxxxxxxxxxx |xxxxxxxxxxxxx |xxxxxxxxxxxxx |     15902644 |     15902644 |     15902644 |xxxxxxxxxxxxx |xxxxxxxxxxxxx |xxxxxxxxxxxxx |xxxxxxxxxxxxx |     34227386 |     34227386 |     34227386 |xxxxxxxxxxxxx |xxxxxxxxxxxxx |xxxxxxxxxxxxx |xxxxxxxxxxxxx |     72880873 |     72880873 |     72880873 |xxxxxxxxxxxxx |xxxxxxxxxxxxx |xxxxxxxxxxxxx |xxxxxxxxxxxxx |    156358367 |    156358367 |    156358367 |xxxxxxxxxxxxx |xxxxxxxxxxxxx |xxxxxxxxxxxxx |xxxxxxxxxxxxx |    328425492 |    328425492 |    328425492 |
bpred_bimod.updates                         147822 |       147822 |       147822 |xxxxxxxxxxxxx |xxxxxxxxxxxxx |xxxxxxxxxxxxx |xxxxxxxxxxxxx |       329230 |       329230 |       329230 |xxxxxxxxxxxxx |xxxxxxxxxxxxx |xxxxxxxxxxxxx |xxxxxxxxxxxxx |       753354 |       753354 |       753354 |xxxxxxxxxxxxx |xxxxxxxxxxxxx |xxxxxxxxxxxxx |xxxxxxxxxxxxx |      1644507 |      1644507 |      1644507 |xxxxxxxxxxxxx |xxxxxxxxxxxxx |xxxxxxxxxxxxx |xxxxxxxxxxxxx |      3432375 |      3432375 |      3432375 |xxxxxxxxxxxxx |xxxxxxxxxxxxx |xxxxxxxxxxxxx |xxxxxxxxxxxxx |      7681275 |      7681275 |      7681275 |xxxxxxxxxxxxx |xxxxxxxxxxxxx |xxxxxxxxxxxxx |xxxxxxxxxxxxx |     15902644 |     15902644 |     15902644 |xxxxxxxxxxxxx |xxxxxxxxxxxxx |xxxxxxxxxxxxx |xxxxxxxxxxxxx |     34227386 |     34227386 |     34227386 |xxxxxxxxxxxxx |xxxxxxxxxxxxx |xxxxxxxxxxxxx |xxxxxxxxxxxxx |     72880873 |     72880873 |     72880873 |xxxxxxxxxxxxx |xxxxxxxxxxxxx |xxxxxxxxxxxxx |xxxxxxxxxxxxx |    156358367 |    156358367 |    156358367 |xxxxxxxxxxxxx |xxxxxxxxxxxxx |xxxxxxxxxxxxx |xxxxxxxxxxxxx |    328425492 |    328425492 |    328425492 |
bpred_bimod.addr_hits                       113613 |       113615 |       113616 |xxxxxxxxxxxxx |xxxxxxxxxxxxx |xxxxxxxxxxxxx |xxxxxxxxxxxxx |       254000 |       254004 |       254004 |xxxxxxxxxxxxx |xxxxxxxxxxxxx |xxxxxxxxxxxxx |xxxxxxxxxxxxx |       580313 |       580316 |       580316 |xxxxxxxxxxxxx |xxxxxxxxxxxxx |xxxxxxxxxxxxx |xxxxxxxxxxxxx |      1267355 |      1267357 |      1267358 |xxxxxxxxxxxxx |xxxxxxxxxxxxx |xxxxxxxxxxxxx |xxxxxxxxxxxxx |      2687892 |      2687894 |      2687895 |xxxxxxxxxxxxx |xxxxxxxxxxxxx |xxxxxxxxxxxxx |xxxxxxxxxxxxx |      6043993 |      6043995 |      6043996 |xxxxxxxxxxxxx |xxxxxxxxxxxxx |xxxxxxxxxxxxx |xxxxxxxxxxxxx |     12359820 |     12359822 |     12359823 |xxxxxxxxxxxxx |xxxxxxxxxxxxx |xxxxxxxxxxxxx |xxxxxxxxxxxxx |     26512277 |     26512279 |     26512280 |xxxxxxxxxxxxx |xxxxxxxxxxxxx |xxxxxxxxxxxxx |xxxxxxxxxxxxx |     56198548 |     56198549 |     56198550 |xxxxxxxxxxxxx |xxxxxxxxxxxxx |xxxxxxxxxxxxx |xxxxxxxxxxxxx |    120869513 |    120869515 |    120869516 |xxxxxxxxxxxxx |xxxxxxxxxxxxx |xxxxxxxxxxxxx |xxxxxxxxxxxxx |    252645650 |    252645652 |    252645653 |
bpred_bimod.dir_hits                        113717 |       113718 |       113716 |xxxxxxxxxxxxx |xxxxxxxxxxxxx |xxxxxxxxxxxxx |xxxxxxxxxxxxx |       254100 |       254103 |       254102 |xxxxxxxxxxxxx |xxxxxxxxxxxxx |xxxxxxxxxxxxx |xxxxxxxxxxxxx |       580412 |       580414 |       580411 |xxxxxxxxxxxxx |xxxxxxxxxxxxx |xxxxxxxxxxxxx |xxxxxxxxxxxxx |      1267456 |      1267457 |      1267456 |xxxxxxxxxxxxx |xxxxxxxxxxxxx |xxxxxxxxxxxxx |xxxxxxxxxxxxx |      2687995 |      2687996 |      2687995 |xxxxxxxxxxxxx |xxxxxxxxxxxxx |xxxxxxxxxxxxx |xxxxxxxxxxxxx |      6044095 |      6044097 |      6044096 |xxxxxxxxxxxxx |xxxxxxxxxxxxx |xxxxxxxxxxxxx |xxxxxxxxxxxxx |     12359923 |     12359924 |     12359923 |xxxxxxxxxxxxx |xxxxxxxxxxxxx |xxxxxxxxxxxxx |xxxxxxxxxxxxx |     26512381 |     26512382 |     26512381 |xxxxxxxxxxxxx |xxxxxxxxxxxxx |xxxxxxxxxxxxx |xxxxxxxxxxxxx |     56198650 |     56198650 |     56198649 |xxxxxxxxxxxxx |xxxxxxxxxxxxx |xxxxxxxxxxxxx |xxxxxxxxxxxxx |    120869618 |    120869619 |    120869618 |xxxxxxxxxxxxx |xxxxxxxxxxxxx |xxxxxxxxxxxxx |xxxxxxxxxxxxx |    252645750 |    252645751 |    252645750 |
bpred_bimod.misses                           34105 |        34104 |        34106 |xxxxxxxxxxxxx |xxxxxxxxxxxxx |xxxxxxxxxxxxx |xxxxxxxxxxxxx |        75130 |        75127 |        75128 |xxxxxxxxxxxxx |xxxxxxxxxxxxx |xxxxxxxxxxxxx |xxxxxxxxxxxxx |       172942 |       172940 |       172943 |xxxxxxxxxxxxx |xxxxxxxxxxxxx |xxxxxxxxxxxxx |xxxxxxxxxxxxx |       377051 |       377050 |       377051 |xxxxxxxxxxxxx |xxxxxxxxxxxxx |xxxxxxxxxxxxx |xxxxxxxxxxxxx |       744380 |       744379 |       744380 |xxxxxxxxxxxxx |xxxxxxxxxxxxx |xxxxxxxxxxxxx |xxxxxxxxxxxxx |      1637180 |      1637178 |      1637179 |xxxxxxxxxxxxx |xxxxxxxxxxxxx |xxxxxxxxxxxxx |xxxxxxxxxxxxx |      3542721 |      3542720 |      3542721 |xxxxxxxxxxxxx |xxxxxxxxxxxxx |xxxxxxxxxxxxx |xxxxxxxxxxxxx |      7715005 |      7715004 |      7715005 |xxxxxxxxxxxxx |xxxxxxxxxxxxx |xxxxxxxxxxxxx |xxxxxxxxxxxxx |     16682223 |     16682223 |     16682224 |xxxxxxxxxxxxx |xxxxxxxxxxxxx |xxxxxxxxxxxxx |xxxxxxxxxxxxx |     35488749 |     35488748 |     35488749 |xxxxxxxxxxxxx |xxxxxxxxxxxxx |xxxxxxxxxxxxx |xxxxxxxxxxxxx |     75779742 |     75779741 |     75779742 |
bpred_bimod.jr_hits                             57 |           57 |           57 |xxxxxxxxxxxxx |xxxxxxxxxxxxx |xxxxxxxxxxxxx |xxxxxxxxxxxxx |           57 |           57 |           57 |xxxxxxxxxxxxx |xxxxxxxxxxxxx |xxxxxxxxxxxxx |xxxxxxxxxxxxx |           57 |           57 |           57 |xxxxxxxxxxxxx |xxxxxxxxxxxxx |xxxxxxxxxxxxx |xxxxxxxxxxxxx |           57 |           57 |           57 |xxxxxxxxxxxxx |xxxxxxxxxxxxx |xxxxxxxxxxxxx |xxxxxxxxxxxxx |           57 |           57 |           57 |xxxxxxxxxxxxx |xxxxxxxxxxxxx |xxxxxxxxxxxxx |xxxxxxxxxxxxx |           57 |           57 |           57 |xxxxxxxxxxxxx |xxxxxxxxxxxxx |xxxxxxxxxxxxx |xxxxxxxxxxxxx |           57 |           57 |           57 |xxxxxxxxxxxxx |xxxxxxxxxxxxx |xxxxxxxxxxxxx |xxxxxxxxxxxxx |           57 |           57 |           57 |xxxxxxxxxxxxx |xxxxxxxxxxxxx |xxxxxxxxxxxxx |xxxxxxxxxxxxx |           57 |           57 |           57 |xxxxxxxxxxxxx |xxxxxxxxxxxxx |xxxxxxxxxxxxx |xxxxxxxxxxxxx |           57 |           57 |           57 |xxxxxxxxxxxxx |xxxxxxxxxxxxx |xxxxxxxxxxxxx |xxxxxxxxxxxxx |           57 |           57 |           57 |
bpred_bimod.jr_seen                             58 |           58 |           58 |xxxxxxxxxxxxx |xxxxxxxxxxxxx |xxxxxxxxxxxxx |xxxxxxxxxxxxx |           58 |           58 |           58 |xxxxxxxxxxxxx |xxxxxxxxxxxxx |xxxxxxxxxxxxx |xxxxxxxxxxxxx |           58 |           58 |           58 |xxxxxxxxxxxxx |xxxxxxxxxxxxx |xxxxxxxxxxxxx |xxxxxxxxxxxxx |           58 |           58 |           58 |xxxxxxxxxxxxx |xxxxxxxxxxxxx |xxxxxxxxxxxxx |xxxxxxxxxxxxx |           58 |           58 |           58 |xxxxxxxxxxxxx |xxxxxxxxxxxxx |xxxxxxxxxxxxx |xxxxxxxxxxxxx |           58 |           58 |           58 |xxxxxxxxxxxxx |xxxxxxxxxxxxx |xxxxxxxxxxxxx |xxxxxxxxxxxxx |           58 |           58 |           58 |xxxxxxxxxxxxx |xxxxxxxxxxxxx |xxxxxxxxxxxxx |xxxxxxxxxxxxx |           58 |           58 |           58 |xxxxxxxxxxxxx |xxxxxxxxxxxxx |xxxxxxxxxxxxx |xxxxxxxxxxxxx |           58 |           58 |           58 |xxxxxxxxxxxxx |xxxxxxxxxxxxx |xxxxxxxxxxxxx |xxxxxxxxxxxxx |           58 |           58 |           58 |xxxxxxxxxxxxx |xxxxxxxxxxxxx |xxxxxxxxxxxxx |xxxxxxxxxxxxx |           58 |           58 |           58 |
bpred_bimod.jr_non_ras_hits.PP                   0 |            0 |            0 |xxxxxxxxxxxxx |xxxxxxxxxxxxx |xxxxxxxxxxxxx |xxxxxxxxxxxxx |            0 |            0 |            0 |xxxxxxxxxxxxx |xxxxxxxxxxxxx |xxxxxxxxxxxxx |xxxxxxxxxxxxx |            0 |            0 |            0 |xxxxxxxxxxxxx |xxxxxxxxxxxxx |xxxxxxxxxxxxx |xxxxxxxxxxxxx |            0 |            0 |            0 |xxxxxxxxxxxxx |xxxxxxxxxxxxx |xxxxxxxxxxxxx |xxxxxxxxxxxxx |            0 |            0 |            0 |xxxxxxxxxxxxx |xxxxxxxxxxxxx |xxxxxxxxxxxxx |xxxxxxxxxxxxx |            0 |            0 |            0 |xxxxxxxxxxxxx |xxxxxxxxxxxxx |xxxxxxxxxxxxx |xxxxxxxxxxxxx |            0 |            0 |            0 |xxxxxxxxxxxxx |xxxxxxxxxxxxx |xxxxxxxxxxxxx |xxxxxxxxxxxxx |            0 |            0 |            0 |xxxxxxxxxxxxx |xxxxxxxxxxxxx |xxxxxxxxxxxxx |xxxxxxxxxxxxx |            0 |            0 |            0 |xxxxxxxxxxxxx |xxxxxxxxxxxxx |xxxxxxxxxxxxx |xxxxxxxxxxxxx |            0 |            0 |            0 |xxxxxxxxxxxxx |xxxxxxxxxxxxx |xxxxxxxxxxxxx |xxxxxxxxxxxxx |            0 |            0 |            0 |
bpred_bimod.jr_non_ras_seen.PP                   0 |            0 |            0 |xxxxxxxxxxxxx |xxxxxxxxxxxxx |xxxxxxxxxxxxx |xxxxxxxxxxxxx |            0 |            0 |            0 |xxxxxxxxxxxxx |xxxxxxxxxxxxx |xxxxxxxxxxxxx |xxxxxxxxxxxxx |            0 |            0 |            0 |xxxxxxxxxxxxx |xxxxxxxxxxxxx |xxxxxxxxxxxxx |xxxxxxxxxxxxx |            0 |            0 |            0 |xxxxxxxxxxxxx |xxxxxxxxxxxxx |xxxxxxxxxxxxx |xxxxxxxxxxxxx |            0 |            0 |            0 |xxxxxxxxxxxxx |xxxxxxxxxxxxx |xxxxxxxxxxxxx |xxxxxxxxxxxxx |            0 |            0 |            0 |xxxxxxxxxxxxx |xxxxxxxxxxxxx |xxxxxxxxxxxxx |xxxxxxxxxxxxx |            0 |            0 |            0 |xxxxxxxxxxxxx |xxxxxxxxxxxxx |xxxxxxxxxxxxx |xxxxxxxxxxxxx |            0 |            0 |            0 |xxxxxxxxxxxxx |xxxxxxxxxxxxx |xxxxxxxxxxxxx |xxxxxxxxxxxxx |            0 |            0 |            0 |xxxxxxxxxxxxx |xxxxxxxxxxxxx |xxxxxxxxxxxxx |xxxxxxxxxxxxx |            0 |            0 |            0 |xxxxxxxxxxxxx |xxxxxxxxxxxxx |xxxxxxxxxxxxx |xxxxxxxxxxxxx |            0 |            0 |            0 |
bpred_bimod.bpred_addr_rate                 0.7686 |       0.7686 |       0.7686 |xxxxxxxxxxxxx |xxxxxxxxxxxxx |xxxxxxxxxxxxx |xxxxxxxxxxxxx |       0.7715 |       0.7715 |       0.7715 |xxxxxxxxxxxxx |xxxxxxxxxxxxx |xxxxxxxxxxxxx |xxxxxxxxxxxxx |       0.7703 |       0.7703 |       0.7703 |xxxxxxxxxxxxx |xxxxxxxxxxxxx |xxxxxxxxxxxxx |xxxxxxxxxxxxx |       0.7707 |       0.7707 |       0.7707 |xxxxxxxxxxxxx |xxxxxxxxxxxxx |xxxxxxxxxxxxx |xxxxxxxxxxxxx |       0.7831 |       0.7831 |       0.7831 |xxxxxxxxxxxxx |xxxxxxxxxxxxx |xxxxxxxxxxxxx |xxxxxxxxxxxxx |       0.7868 |       0.7868 |       0.7868 |xxxxxxxxxxxxx |xxxxxxxxxxxxx |xxxxxxxxxxxxx |xxxxxxxxxxxxx |       0.7772 |       0.7772 |       0.7772 |xxxxxxxxxxxxx |xxxxxxxxxxxxx |xxxxxxxxxxxxx |xxxxxxxxxxxxx |       0.7746 |       0.7746 |       0.7746 |xxxxxxxxxxxxx |xxxxxxxxxxxxx |xxxxxxxxxxxxx |xxxxxxxxxxxxx |       0.7711 |       0.7711 |       0.7711 |xxxxxxxxxxxxx |xxxxxxxxxxxxx |xxxxxxxxxxxxx |xxxxxxxxxxxxx |       0.7730 |       0.7730 |       0.7730 |xxxxxxxxxxxxx |xxxxxxxxxxxxx |xxxxxxxxxxxxx |xxxxxxxxxxxxx |       0.7693 |       0.7693 |       0.7693 |
bpred_bimod.bpred_dir_rate                  0.7693 |       0.7693 |       0.7693 |xxxxxxxxxxxxx |xxxxxxxxxxxxx |xxxxxxxxxxxxx |xxxxxxxxxxxxx |       0.7718 |       0.7718 |       0.7718 |xxxxxxxxxxxxx |xxxxxxxxxxxxx |xxxxxxxxxxxxx |xxxxxxxxxxxxx |       0.7704 |       0.7704 |       0.7704 |xxxxxxxxxxxxx |xxxxxxxxxxxxx |xxxxxxxxxxxxx |xxxxxxxxxxxxx |       0.7707 |       0.7707 |       0.7707 |xxxxxxxxxxxxx |xxxxxxxxxxxxx |xxxxxxxxxxxxx |xxxxxxxxxxxxx |       0.7831 |       0.7831 |       0.7831 |xxxxxxxxxxxxx |xxxxxxxxxxxxx |xxxxxxxxxxxxx |xxxxxxxxxxxxx |       0.7869 |       0.7869 |       0.7869 |xxxxxxxxxxxxx |xxxxxxxxxxxxx |xxxxxxxxxxxxx |xxxxxxxxxxxxx |       0.7772 |       0.7772 |       0.7772 |xxxxxxxxxxxxx |xxxxxxxxxxxxx |xxxxxxxxxxxxx |xxxxxxxxxxxxx |       0.7746 |       0.7746 |       0.7746 |xxxxxxxxxxxxx |xxxxxxxxxxxxx |xxxxxxxxxxxxx |xxxxxxxxxxxxx |       0.7711 |       0.7711 |       0.7711 |xxxxxxxxxxxxx |xxxxxxxxxxxxx |xxxxxxxxxxxxx |xxxxxxxxxxxxx |       0.7730 |       0.7730 |       0.7730 |xxxxxxxxxxxxx |xxxxxxxxxxxxx |xxxxxxxxxxxxx |xxxxxxxxxxxxx |       0.7693 |       0.7693 |       0.7693 |
bpred_bimod.bpred_jr_rate                   0.9828 |       0.9828 |       0.9828 |xxxxxxxxxxxxx |xxxxxxxxxxxxx |xxxxxxxxxxxxx |xxxxxxxxxxxxx |       0.9828 |       0.9828 |       0.9828 |xxxxxxxxxxxxx |xxxxxxxxxxxxx |xxxxxxxxxxxxx |xxxxxxxxxxxxx |       0.9828 |       0.9828 |       0.9828 |xxxxxxxxxxxxx |xxxxxxxxxxxxx |xxxxxxxxxxxxx |xxxxxxxxxxxxx |       0.9828 |       0.9828 |       0.9828 |xxxxxxxxxxxxx |xxxxxxxxxxxxx |xxxxxxxxxxxxx |xxxxxxxxxxxxx |       0.9828 |       0.9828 |       0.9828 |xxxxxxxxxxxxx |xxxxxxxxxxxxx |xxxxxxxxxxxxx |xxxxxxxxxxxxx |       0.9828 |       0.9828 |       0.9828 |xxxxxxxxxxxxx |xxxxxxxxxxxxx |xxxxxxxxxxxxx |xxxxxxxxxxxxx |       0.9828 |       0.9828 |       0.9828 |xxxxxxxxxxxxx |xxxxxxxxxxxxx |xxxxxxxxxxxxx |xxxxxxxxxxxxx |       0.9828 |       0.9828 |       0.9828 |xxxxxxxxxxxxx |xxxxxxxxxxxxx |xxxxxxxxxxxxx |xxxxxxxxxxxxx |       0.9828 |       0.9828 |       0.9828 |xxxxxxxxxxxxx |xxxxxxxxxxxxx |xxxxxxxxxxxxx |xxxxxxxxxxxxx |       0.9828 |       0.9828 |       0.9828 |xxxxxxxxxxxxx |xxxxxxxxxxxxx |xxxxxxxxxxxxx |xxxxxxxxxxxxx |       0.9828 |       0.9828 |       0.9828 |
bpred_bimod.bpred_jr_non_ras_rate.PP       <error: |      <error: |      <error: |xxxxxxxxxxxxx |xxxxxxxxxxxxx |xxxxxxxxxxxxx |xxxxxxxxxxxxx |      <error: |      <error: |      <error: |xxxxxxxxxxxxx |xxxxxxxxxxxxx |xxxxxxxxxxxxx |xxxxxxxxxxxxx |      <error: |      <error: |      <error: |xxxxxxxxxxxxx |xxxxxxxxxxxxx |xxxxxxxxxxxxx |xxxxxxxxxxxxx |      <error: |      <error: |      <error: |xxxxxxxxxxxxx |xxxxxxxxxxxxx |xxxxxxxxxxxxx |xxxxxxxxxxxxx |      <error: |      <error: |      <error: |xxxxxxxxxxxxx |xxxxxxxxxxxxx |xxxxxxxxxxxxx |xxxxxxxxxxxxx |      <error: |      <error: |      <error: |xxxxxxxxxxxxx |xxxxxxxxxxxxx |xxxxxxxxxxxxx |xxxxxxxxxxxxx |      <error: |      <error: |      <error: |xxxxxxxxxxxxx |xxxxxxxxxxxxx |xxxxxxxxxxxxx |xxxxxxxxxxxxx |      <error: |      <error: |      <error: |xxxxxxxxxxxxx |xxxxxxxxxxxxx |xxxxxxxxxxxxx |xxxxxxxxxxxxx |      <error: |      <error: |      <error: |xxxxxxxxxxxxx |xxxxxxxxxxxxx |xxxxxxxxxxxxx |xxxxxxxxxxxxx |      <error: |      <error: |      <error: |xxxxxxxxxxxxx |xxxxxxxxxxxxx |xxxxxxxxxxxxx |xxxxxxxxxxxxx |      <error: |      <error: |      <error: |
bpred_bimod.retstack_pushes                     60 |           60 |           60 |xxxxxxxxxxxxx |xxxxxxxxxxxxx |xxxxxxxxxxxxx |xxxxxxxxxxxxx |           60 |           60 |           60 |xxxxxxxxxxxxx |xxxxxxxxxxxxx |xxxxxxxxxxxxx |xxxxxxxxxxxxx |           60 |           60 |           60 |xxxxxxxxxxxxx |xxxxxxxxxxxxx |xxxxxxxxxxxxx |xxxxxxxxxxxxx |           60 |           60 |           60 |xxxxxxxxxxxxx |xxxxxxxxxxxxx |xxxxxxxxxxxxx |xxxxxxxxxxxxx |           60 |           60 |           60 |xxxxxxxxxxxxx |xxxxxxxxxxxxx |xxxxxxxxxxxxx |xxxxxxxxxxxxx |           60 |           60 |           60 |xxxxxxxxxxxxx |xxxxxxxxxxxxx |xxxxxxxxxxxxx |xxxxxxxxxxxxx |           60 |           60 |           60 |xxxxxxxxxxxxx |xxxxxxxxxxxxx |xxxxxxxxxxxxx |xxxxxxxxxxxxx |           60 |           60 |           60 |xxxxxxxxxxxxx |xxxxxxxxxxxxx |xxxxxxxxxxxxx |xxxxxxxxxxxxx |           60 |           60 |           60 |xxxxxxxxxxxxx |xxxxxxxxxxxxx |xxxxxxxxxxxxx |xxxxxxxxxxxxx |           60 |           60 |           60 |xxxxxxxxxxxxx |xxxxxxxxxxxxx |xxxxxxxxxxxxx |xxxxxxxxxxxxx |           60 |           60 |           60 |
bpred_bimod.retstack_pops                       58 |           58 |           58 |xxxxxxxxxxxxx |xxxxxxxxxxxxx |xxxxxxxxxxxxx |xxxxxxxxxxxxx |           58 |           58 |           58 |xxxxxxxxxxxxx |xxxxxxxxxxxxx |xxxxxxxxxxxxx |xxxxxxxxxxxxx |           58 |           58 |           58 |xxxxxxxxxxxxx |xxxxxxxxxxxxx |xxxxxxxxxxxxx |xxxxxxxxxxxxx |           58 |           58 |           58 |xxxxxxxxxxxxx |xxxxxxxxxxxxx |xxxxxxxxxxxxx |xxxxxxxxxxxxx |           58 |           58 |           58 |xxxxxxxxxxxxx |xxxxxxxxxxxxx |xxxxxxxxxxxxx |xxxxxxxxxxxxx |           58 |           58 |           58 |xxxxxxxxxxxxx |xxxxxxxxxxxxx |xxxxxxxxxxxxx |xxxxxxxxxxxxx |           58 |           58 |           58 |xxxxxxxxxxxxx |xxxxxxxxxxxxx |xxxxxxxxxxxxx |xxxxxxxxxxxxx |           58 |           58 |           58 |xxxxxxxxxxxxx |xxxxxxxxxxxxx |xxxxxxxxxxxxx |xxxxxxxxxxxxx |           58 |           58 |           58 |xxxxxxxxxxxxx |xxxxxxxxxxxxx |xxxxxxxxxxxxx |xxxxxxxxxxxxx |           58 |           58 |           58 |xxxxxxxxxxxxx |xxxxxxxxxxxxx |xxxxxxxxxxxxx |xxxxxxxxxxxxx |           58 |           58 |           58 |
bpred_bimod.used_ras.PP                         58 |           58 |           58 |xxxxxxxxxxxxx |xxxxxxxxxxxxx |xxxxxxxxxxxxx |xxxxxxxxxxxxx |           58 |           58 |           58 |xxxxxxxxxxxxx |xxxxxxxxxxxxx |xxxxxxxxxxxxx |xxxxxxxxxxxxx |           58 |           58 |           58 |xxxxxxxxxxxxx |xxxxxxxxxxxxx |xxxxxxxxxxxxx |xxxxxxxxxxxxx |           58 |           58 |           58 |xxxxxxxxxxxxx |xxxxxxxxxxxxx |xxxxxxxxxxxxx |xxxxxxxxxxxxx |           58 |           58 |           58 |xxxxxxxxxxxxx |xxxxxxxxxxxxx |xxxxxxxxxxxxx |xxxxxxxxxxxxx |           58 |           58 |           58 |xxxxxxxxxxxxx |xxxxxxxxxxxxx |xxxxxxxxxxxxx |xxxxxxxxxxxxx |           58 |           58 |           58 |xxxxxxxxxxxxx |xxxxxxxxxxxxx |xxxxxxxxxxxxx |xxxxxxxxxxxxx |           58 |           58 |           58 |xxxxxxxxxxxxx |xxxxxxxxxxxxx |xxxxxxxxxxxxx |xxxxxxxxxxxxx |           58 |           58 |           58 |xxxxxxxxxxxxx |xxxxxxxxxxxxx |xxxxxxxxxxxxx |xxxxxxxxxxxxx |           58 |           58 |           58 |xxxxxxxxxxxxx |xxxxxxxxxxxxx |xxxxxxxxxxxxx |xxxxxxxxxxxxx |           58 |           58 |           58 |
bpred_bimod.ras_hits.PP                         57 |           57 |           57 |xxxxxxxxxxxxx |xxxxxxxxxxxxx |xxxxxxxxxxxxx |xxxxxxxxxxxxx |           57 |           57 |           57 |xxxxxxxxxxxxx |xxxxxxxxxxxxx |xxxxxxxxxxxxx |xxxxxxxxxxxxx |           57 |           57 |           57 |xxxxxxxxxxxxx |xxxxxxxxxxxxx |xxxxxxxxxxxxx |xxxxxxxxxxxxx |           57 |           57 |           57 |xxxxxxxxxxxxx |xxxxxxxxxxxxx |xxxxxxxxxxxxx |xxxxxxxxxxxxx |           57 |           57 |           57 |xxxxxxxxxxxxx |xxxxxxxxxxxxx |xxxxxxxxxxxxx |xxxxxxxxxxxxx |           57 |           57 |           57 |xxxxxxxxxxxxx |xxxxxxxxxxxxx |xxxxxxxxxxxxx |xxxxxxxxxxxxx |           57 |           57 |           57 |xxxxxxxxxxxxx |xxxxxxxxxxxxx |xxxxxxxxxxxxx |xxxxxxxxxxxxx |           57 |           57 |           57 |xxxxxxxxxxxxx |xxxxxxxxxxxxx |xxxxxxxxxxxxx |xxxxxxxxxxxxx |           57 |           57 |           57 |xxxxxxxxxxxxx |xxxxxxxxxxxxx |xxxxxxxxxxxxx |xxxxxxxxxxxxx |           57 |           57 |           57 |xxxxxxxxxxxxx |xxxxxxxxxxxxx |xxxxxxxxxxxxx |xxxxxxxxxxxxx |           57 |           57 |           57 |
bpred_bimod.ras_rate.PP                     0.9828 |       0.9828 |       0.9828 |xxxxxxxxxxxxx |xxxxxxxxxxxxx |xxxxxxxxxxxxx |xxxxxxxxxxxxx |       0.9828 |       0.9828 |       0.9828 |xxxxxxxxxxxxx |xxxxxxxxxxxxx |xxxxxxxxxxxxx |xxxxxxxxxxxxx |       0.9828 |       0.9828 |       0.9828 |xxxxxxxxxxxxx |xxxxxxxxxxxxx |xxxxxxxxxxxxx |xxxxxxxxxxxxx |       0.9828 |       0.9828 |       0.9828 |xxxxxxxxxxxxx |xxxxxxxxxxxxx |xxxxxxxxxxxxx |xxxxxxxxxxxxx |       0.9828 |       0.9828 |       0.9828 |xxxxxxxxxxxxx |xxxxxxxxxxxxx |xxxxxxxxxxxxx |xxxxxxxxxxxxx |       0.9828 |       0.9828 |       0.9828 |xxxxxxxxxxxxx |xxxxxxxxxxxxx |xxxxxxxxxxxxx |xxxxxxxxxxxxx |       0.9828 |       0.9828 |       0.9828 |xxxxxxxxxxxxx |xxxxxxxxxxxxx |xxxxxxxxxxxxx |xxxxxxxxxxxxx |       0.9828 |       0.9828 |       0.9828 |xxxxxxxxxxxxx |xxxxxxxxxxxxx |xxxxxxxxxxxxx |xxxxxxxxxxxxx |       0.9828 |       0.9828 |       0.9828 |xxxxxxxxxxxxx |xxxxxxxxxxxxx |xxxxxxxxxxxxx |xxxxxxxxxxxxx |       0.9828 |       0.9828 |       0.9828 |xxxxxxxxxxxxx |xxxxxxxxxxxxx |xxxxxxxxxxxxx |xxxxxxxxxxxxx |       0.9828 |       0.9828 |       0.9828 |
bpred_2lev.lookups                   xxxxxxxxxxxxx |xxxxxxxxxxxxx |xxxxxxxxxxxxx |       147822 |       147822 |       147822 |       147822 |xxxxxxxxxxxxx |xxxxxxxxxxxxx |xxxxxxxxxxxxx |       329230 |       329230 |       329230 |       329230 |xxxxxxxxxxxxx |xxxxxxxxxxxxx |xxxxxxxxxxxxx |       753354 |       753354 |       753354 |       753354 |xxxxxxxxxxxxx |xxxxxxxxxxxxx |xxxxxxxxxxxxx |      1644507 |      1644507 |      1644507 |      1644507 |xxxxxxxxxxxxx |xxxxxxxxxxxxx |xxxxxxxxxxxxx |      3432375 |      3432375 |      3432375 |      3432375 |xxxxxxxxxxxxx |xxxxxxxxxxxxx |xxxxxxxxxxxxx |      7681275 |      7681275 |      7681275 |      7681275 |xxxxxxxxxxxxx |xxxxxxxxxxxxx |xxxxxxxxxxxxx |     15902644 |     15902644 |     15902644 |     15902644 |xxxxxxxxxxxxx |xxxxxxxxxxxxx |xxxxxxxxxxxxx |     34227386 |     34227386 |     34227386 |     34227386 |xxxxxxxxxxxxx |xxxxxxxxxxxxx |xxxxxxxxxxxxx |     72880873 |     72880873 |     72880873 |     72880873 |xxxxxxxxxxxxx |xxxxxxxxxxxxx |xxxxxxxxxxxxx |    156358367 |    156358367 |    156358367 |    156358367 |xxxxxxxxxxxxx |xxxxxxxxxxxxx |xxxxxxxxxxxxx |    328425492 |    328425492 |    328425492 |    328425492 |
[...]
bpred_2lev.retstack_pushes           xxxxxxxxxxxxx |xxxxxxxxxxxxx |xxxxxxxxxxxxx |           60 |           60 |           60 |           60 |xxxxxxxxxxxxx |xxxxxxxxxxxxx |xxxxxxxxxxxxx |           60 |           60 |           60 |           60 |xxxxxxxxxxxxx |xxxxxxxxxxxxx |xxxxxxxxxxxxx |           60 |           60 |           60 |           60 |xxxxxxxxxxxxx |xxxxxxxxxxxxx |xxxxxxxxxxxxx |           60 |           60 |           60 |           60 |xxxxxxxxxxxxx |xxxxxxxxxxxxx |xxxxxxxxxxxxx |           60 |           60 |           60 |           60 |xxxxxxxxxxxxx |xxxxxxxxxxxxx |xxxxxxxxxxxxx |           60 |           60 |           60 |           60 |xxxxxxxxxxxxx |xxxxxxxxxxxxx |xxxxxxxxxxxxx |           60 |           60 |           60 |           60 |xxxxxxxxxxxxx |xxxxxxxxxxxxx |xxxxxxxxxxxxx |           60 |           60 |           60 |           60 |xxxxxxxxxxxxx |xxxxxxxxxxxxx |xxxxxxxxxxxxx |           60 |           60 |           60 |           60 |xxxxxxxxxxxxx |xxxxxxxxxxxxx |xxxxxxxxxxxxx |           60 |           60 |           60 |           60 |xxxxxxxxxxxxx |xxxxxxxxxxxxx |xxxxxxxxxxxxx |           60 |           60 |           60 |           60 |
bpred_2lev.retstack_pops             xxxxxxxxxxxxx |xxxxxxxxxxxxx |xxxxxxxxxxxxx |           58 |           58 |           58 |           58 |xxxxxxxxxxxxx |xxxxxxxxxxxxx |xxxxxxxxxxxxx |           58 |           58 |           58 |           58 |xxxxxxxxxxxxx |xxxxxxxxxxxxx |xxxxxxxxxxxxx |           58 |           58 |           58 |           58 |xxxxxxxxxxxxx |xxxxxxxxxxxxx |xxxxxxxxxxxxx |           58 |           58 |           58 |           58 |xxxxxxxxxxxxx |xxxxxxxxxxxxx |xxxxxxxxxxxxx |           58 |           58 |           58 |           58 |xxxxxxxxxxxxx |xxxxxxxxxxxxx |xxxxxxxxxxxxx |           58 |           58 |           58 |           58 |xxxxxxxxxxxxx |xxxxxxxxxxxxx |xxxxxxxxxxxxx |           58 |           58 |           58 |           58 |xxxxxxxxxxxxx |xxxxxxxxxxxxx |xxxxxxxxxxxxx |           58 |           58 |           58 |           58 |xxxxxxxxxxxxx |xxxxxxxxxxxxx |xxxxxxxxxxxxx |           58 |           58 |           58 |           58 |xxxxxxxxxxxxx |xxxxxxxxxxxxx |xxxxxxxxxxxxx |           58 |           58 |           58 |           58 |xxxxxxxxxxxxx |xxxxxxxxxxxxx |xxxxxxxxxxxxx |           58 |           58 |           58 |           58 |
bpred_2lev.used_ras.PP               xxxxxxxxxxxxx |xxxxxxxxxxxxx |xxxxxxxxxxxxx |           58 |           58 |           58 |           58 |xxxxxxxxxxxxx |xxxxxxxxxxxxx |xxxxxxxxxxxxx |           58 |           58 |           58 |           58 |xxxxxxxxxxxxx |xxxxxxxxxxxxx |xxxxxxxxxxxxx |           58 |           58 |           58 |           58 |xxxxxxxxxxxxx |xxxxxxxxxxxxx |xxxxxxxxxxxxx |           58 |           58 |           58 |           58 |xxxxxxxxxxxxx |xxxxxxxxxxxxx |xxxxxxxxxxxxx |           58 |           58 |           58 |           58 |xxxxxxxxxxxxx |xxxxxxxxxxxxx |xxxxxxxxxxxxx |           58 |           58 |           58 |           58 |xxxxxxxxxxxxx |xxxxxxxxxxxxx |xxxxxxxxxxxxx |           58 |           58 |           58 |           58 |xxxxxxxxxxxxx |xxxxxxxxxxxxx |xxxxxxxxxxxxx |           58 |           58 |           58 |           58 |xxxxxxxxxxxxx |xxxxxxxxxxxxx |xxxxxxxxxxxxx |           58 |           58 |           58 |           58 |xxxxxxxxxxxxx |xxxxxxxxxxxxx |xxxxxxxxxxxxx |           58 |           58 |           58 |           58 |xxxxxxxxxxxxx |xxxxxxxxxxxxx |xxxxxxxxxxxxx |           58 |           58 |           58 |           58 |
bpred_2lev.ras_hits.PP               xxxxxxxxxxxxx |xxxxxxxxxxxxx |xxxxxxxxxxxxx |           57 |           57 |           57 |           57 |xxxxxxxxxxxxx |xxxxxxxxxxxxx |xxxxxxxxxxxxx |           57 |           57 |           57 |           57 |xxxxxxxxxxxxx |xxxxxxxxxxxxx |xxxxxxxxxxxxx |           57 |           57 |           57 |           57 |xxxxxxxxxxxxx |xxxxxxxxxxxxx |xxxxxxxxxxxxx |           57 |           57 |           57 |           57 |xxxxxxxxxxxxx |xxxxxxxxxxxxx |xxxxxxxxxxxxx |           57 |           57 |           57 |           57 |xxxxxxxxxxxxx |xxxxxxxxxxxxx |xxxxxxxxxxxxx |           57 |           57 |           57 |           57 |xxxxxxxxxxxxx |xxxxxxxxxxxxx |xxxxxxxxxxxxx |           57 |           57 |           57 |           57 |xxxxxxxxxxxxx |xxxxxxxxxxxxx |xxxxxxxxxxxxx |           57 |           57 |           57 |           57 |xxxxxxxxxxxxx |xxxxxxxxxxxxx |xxxxxxxxxxxxx |           57 |           57 |           57 |           57 |xxxxxxxxxxxxx |xxxxxxxxxxxxx |xxxxxxxxxxxxx |           57 |           57 |           57 |           57 |xxxxxxxxxxxxx |xxxxxxxxxxxxx |xxxxxxxxxxxxx |           57 |           57 |           57 |           57 |
bpred_2lev.ras_rate.PP               xxxxxxxxxxxxx |xxxxxxxxxxxxx |xxxxxxxxxxxxx |       0.9828 |       0.9828 |       0.9828 |       0.9828 |xxxxxxxxxxxxx |xxxxxxxxxxxxx |xxxxxxxxxxxxx |       0.9828 |       0.9828 |       0.9828 |       0.9828 |xxxxxxxxxxxxx |xxxxxxxxxxxxx |xxxxxxxxxxxxx |       0.9828 |       0.9828 |       0.9828 |       0.9828 |xxxxxxxxxxxxx |xxxxxxxxxxxxx |xxxxxxxxxxxxx |       0.9828 |       0.9828 |       0.9828 |       0.9828 |xxxxxxxxxxxxx |xxxxxxxxxxxxx |xxxxxxxxxxxxx |       0.9828 |       0.9828 |       0.9828 |       0.9828 |xxxxxxxxxxxxx |xxxxxxxxxxxxx |xxxxxxxxxxxxx |       0.9828 |       0.9828 |       0.9828 |       0.9828 |xxxxxxxxxxxxx |xxxxxxxxxxxxx |xxxxxxxxxxxxx |       0.9828 |       0.9828 |       0.9828 |       0.9828 |xxxxxxxxxxxxx |xxxxxxxxxxxxx |xxxxxxxxxxxxx |       0.9828 |       0.9828 |       0.9828 |       0.9828 |xxxxxxxxxxxxx |xxxxxxxxxxxxx |xxxxxxxxxxxxx |       0.9828 |       0.9828 |       0.9828 |       0.9828 |xxxxxxxxxxxxx |xxxxxxxxxxxxx |xxxxxxxxxxxxx |       0.9828 |       0.9828 |       0.9828 |       0.9828 |xxxxxxxxxxxxx |xxxxxxxxxxxxx |xxxxxxxxxxxxx |       0.9828 |       0.9828 |       0.9828 |       0.9828 |

Command list: 
	sslittle-na-sstrix-gcc -Wall -O3 -funroll-loops -finline-functions  -DRANDOM_SIZE=4096 -DOFFSET=1 -DSORT=improved_shellsort sorts/improved_shellsort341892059.c simpleMain.c -o improved_shellsort669399904
	sim-cache -cache:dl1 dl1:256:32:1:l -cache:dl2 dl2:131072:32:1:l -cache:il1 il1:256:32:1:l -cache:il2 dl2 improved_shellsort669399904
	sim-cache -cache:dl1 dl1:256:32:1:l -cache:dl2 dl2:65536:32:1:l -cache:il1 il1:256:32:1:l -cache:il2 dl2 improved_shellsort669399904
	sim-cache -cache:dl1 dl1:1:32:256:l -cache:dl2 dl2:1:32:131072:l -cache:il1 il1:1:32:256:l -cache:il2 dl2 improved_shellsort669399904
	sim-cache -cache:dl1 dl1:1:32:256:l -cache:dl2 dl2:1:32:65536:l -cache:il1 il1:1:32:256:l -cache:il2 dl2 improved_shellsort669399904
	sim-bpred -bpred bimod -bpred:bimod 512 improved_shellsort669399904
	sim-bpred -bpred bimod -bpred:bimod 1024 improved_shellsort669399904
	sim-bpred -bpred bimod -bpred:bimod 2048 improved_shellsort669399904
	sim-bpred -bpred 2lev -bpred:2lev 1 512 10 1 improved_shellsort669399904
	sim-bpred -bpred 2lev -bpred:2lev 1 1024 10 1 improved_shellsort669399904
	sim-bpred -bpred 2lev -bpred:2lev 1 2048 10 1 improved_shellsort669399904
	sim-bpred -bpred 2lev -bpred:2lev 1 4096 10 1 improved_shellsort669399904
	sslittle-na-sstrix-gcc -Wall -O3 -funroll-loops -finline-functions  -DRANDOM_SIZE=8192 -DOFFSET=1 -DSORT=improved_shellsort sorts/improved_shellsort341892059.c simpleMain.c -o improved_shellsort669399904
	sim-cache -cache:dl1 dl1:256:32:1:l -cache:dl2 dl2:131072:32:1:l -cache:il1 il1:256:32:1:l -cache:il2 dl2 improved_shellsort669399904
	sim-cache -cache:dl1 dl1:256:32:1:l -cache:dl2 dl2:65536:32:1:l -cache:il1 il1:256:32:1:l -cache:il2 dl2 improved_shellsort669399904
	sim-cache -cache:dl1 dl1:1:32:256:l -cache:dl2 dl2:1:32:131072:l -cache:il1 il1:1:32:256:l -cache:il2 dl2 improved_shellsort669399904
	sim-cache -cache:dl1 dl1:1:32:256:l -cache:dl2 dl2:1:32:65536:l -cache:il1 il1:1:32:256:l -cache:il2 dl2 improved_shellsort669399904
	sim-bpred -bpred bimod -bpred:bimod 512 improved_shellsort669399904
	sim-bpred -bpred bimod -bpred:bimod 1024 improved_shellsort669399904
	sim-bpred -bpred bimod -bpred:bimod 2048 improved_shellsort669399904
	sim-bpred -bpred 2lev -bpred:2lev 1 512 10 1 improved_shellsort669399904
	sim-bpred -bpred 2lev -bpred:2lev 1 1024 10 1 improved_shellsort669399904
	sim-bpred -bpred 2lev -bpred:2lev 1 2048 10 1 improved_shellsort669399904
	sim-bpred -bpred 2lev -bpred:2lev 1 4096 10 1 improved_shellsort669399904
	sslittle-na-sstrix-gcc -Wall -O3 -funroll-loops -finline-functions  -DRANDOM_SIZE=16384 -DOFFSET=1 -DSORT=improved_shellsort sorts/improved_shellsort341892059.c simpleMain.c -o improved_shellsort669399904
	sim-cache -cache:dl1 dl1:256:32:1:l -cache:dl2 dl2:131072:32:1:l -cache:il1 il1:256:32:1:l -cache:il2 dl2 improved_shellsort669399904
	sim-cache -cache:dl1 dl1:256:32:1:l -cache:dl2 dl2:65536:32:1:l -cache:il1 il1:256:32:1:l -cache:il2 dl2 improved_shellsort669399904
	sim-cache -cache:dl1 dl1:1:32:256:l -cache:dl2 dl2:1:32:131072:l -cache:il1 il1:1:32:256:l -cache:il2 dl2 improved_shellsort669399904
	sim-cache -cache:dl1 dl1:1:32:256:l -cache:dl2 dl2:1:32:65536:l -cache:il1 il1:1:32:256:l -cache:il2 dl2 improved_shellsort669399904
	sim-bpred -bpred bimod -bpred:bimod 512 improved_shellsort669399904
	sim-bpred -bpred bimod -bpred:bimod 1024 improved_shellsort669399904
	sim-bpred -bpred bimod -bpred:bimod 2048 improved_shellsort669399904
	sim-bpred -bpred 2lev -bpred:2lev 1 512 10 1 improved_shellsort669399904
	sim-bpred -bpred 2lev -bpred:2lev 1 1024 10 1 improved_shellsort669399904
	sim-bpred -bpred 2lev -bpred:2lev 1 2048 10 1 improved_shellsort669399904
	sim-bpred -bpred 2lev -bpred:2lev 1 4096 10 1 improved_shellsort669399904
	sslittle-na-sstrix-gcc -Wall -O3 -funroll-loops -finline-functions  -DRANDOM_SIZE=32768 -DOFFSET=1 -DSORT=improved_shellsort sorts/improved_shellsort341892059.c simpleMain.c -o improved_shellsort669399904
	sim-cache -cache:dl1 dl1:256:32:1:l -cache:dl2 dl2:131072:32:1:l -cache:il1 il1:256:32:1:l -cache:il2 dl2 improved_shellsort669399904
	sim-cache -cache:dl1 dl1:256:32:1:l -cache:dl2 dl2:65536:32:1:l -cache:il1 il1:256:32:1:l -cache:il2 dl2 improved_shellsort669399904
	sim-cache -cache:dl1 dl1:1:32:256:l -cache:dl2 dl2:1:32:131072:l -cache:il1 il1:1:32:256:l -cache:il2 dl2 improved_shellsort669399904
	sim-cache -cache:dl1 dl1:1:32:256:l -cache:dl2 dl2:1:32:65536:l -cache:il1 il1:1:32:256:l -cache:il2 dl2 improved_shellsort669399904
	sim-bpred -bpred bimod -bpred:bimod 512 improved_shellsort669399904
	sim-bpred -bpred bimod -bpred:bimod 1024 improved_shellsort669399904
	sim-bpred -bpred bimod -bpred:bimod 2048 improved_shellsort669399904
	sim-bpred -bpred 2lev -bpred:2lev 1 512 10 1 improved_shellsort669399904
	sim-bpred -bpred 2lev -bpred:2lev 1 1024 10 1 improved_shellsort669399904
	sim-bpred -bpred 2lev -bpred:2lev 1 2048 10 1 improved_shellsort669399904
	sim-bpred -bpred 2lev -bpred:2lev 1 4096 10 1 improved_shellsort669399904
	sslittle-na-sstrix-gcc -Wall -O3 -funroll-loops -finline-functions  -DRANDOM_SIZE=65536 -DOFFSET=1 -DSORT=improved_shellsort sorts/improved_shellsort341892059.c simpleMain.c -o improved_shellsort669399904
	sim-cache -cache:dl1 dl1:256:32:1:l -cache:dl2 dl2:131072:32:1:l -cache:il1 il1:256:32:1:l -cache:il2 dl2 improved_shellsort669399904
	sim-cache -cache:dl1 dl1:256:32:1:l -cache:dl2 dl2:65536:32:1:l -cache:il1 il1:256:32:1:l -cache:il2 dl2 improved_shellsort669399904
	sim-cache -cache:dl1 dl1:1:32:256:l -cache:dl2 dl2:1:32:131072:l -cache:il1 il1:1:32:256:l -cache:il2 dl2 improved_shellsort669399904
	sim-cache -cache:dl1 dl1:1:32:256:l -cache:dl2 dl2:1:32:65536:l -cache:il1 il1:1:32:256:l -cache:il2 dl2 improved_shellsort669399904
	sim-bpred -bpred bimod -bpred:bimod 512 improved_shellsort669399904
	sim-bpred -bpred bimod -bpred:bimod 1024 improved_shellsort669399904
	sim-bpred -bpred bimod -bpred:bimod 2048 improved_shellsort669399904
	sim-bpred -bpred 2lev -bpred:2lev 1 512 10 1 improved_shellsort669399904
	sim-bpred -bpred 2lev -bpred:2lev 1 1024 10 1 improved_shellsort669399904
	sim-bpred -bpred 2lev -bpred:2lev 1 2048 10 1 improved_shellsort669399904
	sim-bpred -bpred 2lev -bpred:2lev 1 4096 10 1 improved_shellsort669399904
	sslittle-na-sstrix-gcc -Wall -O3 -funroll-loops -finline-functions  -DRANDOM_SIZE=131072 -DOFFSET=1 -DSORT=improved_shellsort sorts/improved_shellsort341892059.c simpleMain.c -o improved_shellsort669399904
	sim-cache -cache:dl1 dl1:256:32:1:l -cache:dl2 dl2:131072:32:1:l -cache:il1 il1:256:32:1:l -cache:il2 dl2 improved_shellsort669399904
	sim-cache -cache:dl1 dl1:256:32:1:l -cache:dl2 dl2:65536:32:1:l -cache:il1 il1:256:32:1:l -cache:il2 dl2 improved_shellsort669399904
	sim-cache -cache:dl1 dl1:1:32:256:l -cache:dl2 dl2:1:32:131072:l -cache:il1 il1:1:32:256:l -cache:il2 dl2 improved_shellsort669399904
	sim-cache -cache:dl1 dl1:1:32:256:l -cache:dl2 dl2:1:32:65536:l -cache:il1 il1:1:32:256:l -cache:il2 dl2 improved_shellsort669399904
	sim-bpred -bpred bimod -bpred:bimod 512 improved_shellsort669399904
	sim-bpred -bpred bimod -bpred:bimod 1024 improved_shellsort669399904
	sim-bpred -bpred bimod -bpred:bimod 2048 improved_shellsort669399904
	sim-bpred -bpred 2lev -bpred:2lev 1 512 10 1 improved_shellsort669399904
	sim-bpred -bpred 2lev -bpred:2lev 1 1024 10 1 improved_shellsort669399904
	sim-bpred -bpred 2lev -bpred:2lev 1 2048 10 1 improved_shellsort669399904
	sim-bpred -bpred 2lev -bpred:2lev 1 4096 10 1 improved_shellsort669399904
	sslittle-na-sstrix-gcc -Wall -O3 -funroll-loops -finline-functions  -DRANDOM_SIZE=262144 -DOFFSET=1 -DSORT=improved_shellsort sorts/improved_shellsort341892059.c simpleMain.c -o improved_shellsort669399904
	sim-cache -cache:dl1 dl1:256:32:1:l -cache:dl2 dl2:131072:32:1:l -cache:il1 il1:256:32:1:l -cache:il2 dl2 improved_shellsort669399904
	sim-cache -cache:dl1 dl1:256:32:1:l -cache:dl2 dl2:65536:32:1:l -cache:il1 il1:256:32:1:l -cache:il2 dl2 improved_shellsort669399904
	sim-cache -cache:dl1 dl1:1:32:256:l -cache:dl2 dl2:1:32:131072:l -cache:il1 il1:1:32:256:l -cache:il2 dl2 improved_shellsort669399904
	sim-cache -cache:dl1 dl1:1:32:256:l -cache:dl2 dl2:1:32:65536:l -cache:il1 il1:1:32:256:l -cache:il2 dl2 improved_shellsort669399904
	sim-bpred -bpred bimod -bpred:bimod 512 improved_shellsort669399904
	sim-bpred -bpred bimod -bpred:bimod 1024 improved_shellsort669399904
	sim-bpred -bpred bimod -bpred:bimod 2048 improved_shellsort669399904
	sim-bpred -bpred 2lev -bpred:2lev 1 512 10 1 improved_shellsort669399904
	sim-bpred -bpred 2lev -bpred:2lev 1 1024 10 1 improved_shellsort669399904
	sim-bpred -bpred 2lev -bpred:2lev 1 2048 10 1 improved_shellsort669399904
	sim-bpred -bpred 2lev -bpred:2lev 1 4096 10 1 improved_shellsort669399904
	sslittle-na-sstrix-gcc -Wall -O3 -funroll-loops -finline-functions  -DRANDOM_SIZE=524288 -DOFFSET=1 -DSORT=improved_shellsort sorts/improved_shellsort341892059.c simpleMain.c -o improved_shellsort669399904
	sim-cache -cache:dl1 dl1:256:32:1:l -cache:dl2 dl2:131072:32:1:l -cache:il1 il1:256:32:1:l -cache:il2 dl2 improved_shellsort669399904
	sim-cache -cache:dl1 dl1:256:32:1:l -cache:dl2 dl2:65536:32:1:l -cache:il1 il1:256:32:1:l -cache:il2 dl2 improved_shellsort669399904
	sim-cache -cache:dl1 dl1:1:32:256:l -cache:dl2 dl2:1:32:131072:l -cache:il1 il1:1:32:256:l -cache:il2 dl2 improved_shellsort669399904
	sim-cache -cache:dl1 dl1:1:32:256:l -cache:dl2 dl2:1:32:65536:l -cache:il1 il1:1:32:256:l -cache:il2 dl2 improved_shellsort669399904
	sim-bpred -bpred bimod -bpred:bimod 512 improved_shellsort669399904
	sim-bpred -bpred bimod -bpred:bimod 1024 improved_shellsort669399904
	sim-bpred -bpred bimod -bpred:bimod 2048 improved_shellsort669399904
	sim-bpred -bpred 2lev -bpred:2lev 1 512 10 1 improved_shellsort669399904
	sim-bpred -bpred 2lev -bpred:2lev 1 1024 10 1 improved_shellsort669399904
	sim-bpred -bpred 2lev -bpred:2lev 1 2048 10 1 improved_shellsort669399904
	sim-bpred -bpred 2lev -bpred:2lev 1 4096 10 1 improved_shellsort669399904
	sslittle-na-sstrix-gcc -Wall -O3 -funroll-loops -finline-functions  -DRANDOM_SIZE=1048576 -DOFFSET=1 -DSORT=improved_shellsort sorts/improved_shellsort341892059.c simpleMain.c -o improved_shellsort669399904
	sim-cache -cache:dl1 dl1:256:32:1:l -cache:dl2 dl2:131072:32:1:l -cache:il1 il1:256:32:1:l -cache:il2 dl2 improved_shellsort669399904
	sim-cache -cache:dl1 dl1:256:32:1:l -cache:dl2 dl2:65536:32:1:l -cache:il1 il1:256:32:1:l -cache:il2 dl2 improved_shellsort669399904
	sim-cache -cache:dl1 dl1:1:32:256:l -cache:dl2 dl2:1:32:131072:l -cache:il1 il1:1:32:256:l -cache:il2 dl2 improved_shellsort669399904
	sim-cache -cache:dl1 dl1:1:32:256:l -cache:dl2 dl2:1:32:65536:l -cache:il1 il1:1:32:256:l -cache:il2 dl2 improved_shellsort669399904
	sim-bpred -bpred bimod -bpred:bimod 512 improved_shellsort669399904
	sim-bpred -bpred bimod -bpred:bimod 1024 improved_shellsort669399904
	sim-bpred -bpred bimod -bpred:bimod 2048 improved_shellsort669399904
	sim-bpred -bpred 2lev -bpred:2lev 1 512 10 1 improved_shellsort669399904
	sim-bpred -bpred 2lev -bpred:2lev 1 1024 10 1 improved_shellsort669399904
	sim-bpred -bpred 2lev -bpred:2lev 1 2048 10 1 improved_shellsort669399904
	sim-bpred -bpred 2lev -bpred:2lev 1 4096 10 1 improved_shellsort669399904
	sslittle-na-sstrix-gcc -Wall -O3 -funroll-loops -finline-functions  -DRANDOM_SIZE=2097152 -DOFFSET=1 -DSORT=improved_shellsort sorts/improved_shellsort341892059.c simpleMain.c -o improved_shellsort669399904
	sim-cache -cache:dl1 dl1:256:32:1:l -cache:dl2 dl2:131072:32:1:l -cache:il1 il1:256:32:1:l -cache:il2 dl2 improved_shellsort669399904
	sim-cache -cache:dl1 dl1:256:32:1:l -cache:dl2 dl2:65536:32:1:l -cache:il1 il1:256:32:1:l -cache:il2 dl2 improved_shellsort669399904
	sim-cache -cache:dl1 dl1:1:32:256:l -cache:dl2 dl2:1:32:131072:l -cache:il1 il1:1:32:256:l -cache:il2 dl2 improved_shellsort669399904
	sim-cache -cache:dl1 dl1:1:32:256:l -cache:dl2 dl2:1:32:65536:l -cache:il1 il1:1:32:256:l -cache:il2 dl2 improved_shellsort669399904
	sim-bpred -bpred bimod -bpred:bimod 512 improved_shellsort669399904
	sim-bpred -bpred bimod -bpred:bimod 1024 improved_shellsort669399904
	sim-bpred -bpred bimod -bpred:bimod 2048 improved_shellsort669399904
	sim-bpred -bpred 2lev -bpred:2lev 1 512 10 1 improved_shellsort669399904
	sim-bpred -bpred 2lev -bpred:2lev 1 1024 10 1 improved_shellsort669399904
	sim-bpred -bpred 2lev -bpred:2lev 1 2048 10 1 improved_shellsort669399904
	sim-bpred -bpred 2lev -bpred:2lev 1 4096 10 1 improved_shellsort669399904
	sslittle-na-sstrix-gcc -Wall -O3 -funroll-loops -finline-functions  -DRANDOM_SIZE=4194304 -DOFFSET=1 -DSORT=improved_shellsort sorts/improved_shellsort341892059.c simpleMain.c -o improved_shellsort669399904
	sim-cache -cache:dl1 dl1:256:32:1:l -cache:dl2 dl2:131072:32:1:l -cache:il1 il1:256:32:1:l -cache:il2 dl2 improved_shellsort669399904
	sim-cache -cache:dl1 dl1:256:32:1:l -cache:dl2 dl2:65536:32:1:l -cache:il1 il1:256:32:1:l -cache:il2 dl2 improved_shellsort669399904
	sim-cache -cache:dl1 dl1:1:32:256:l -cache:dl2 dl2:1:32:131072:l -cache:il1 il1:1:32:256:l -cache:il2 dl2 improved_shellsort669399904
	sim-cache -cache:dl1 dl1:1:32:256:l -cache:dl2 dl2:1:32:65536:l -cache:il1 il1:1:32:256:l -cache:il2 dl2 improved_shellsort669399904
	sim-bpred -bpred bimod -bpred:bimod 512 improved_shellsort669399904
	sim-bpred -bpred bimod -bpred:bimod 1024 improved_shellsort669399904
	sim-bpred -bpred bimod -bpred:bimod 2048 improved_shellsort669399904
	sim-bpred -bpred 2lev -bpred:2lev 1 512 10 1 improved_shellsort669399904
	sim-bpred -bpred 2lev -bpred:2lev 1 1024 10 1 improved_shellsort669399904
	sim-bpred -bpred 2lev -bpred:2lev 1 2048 10 1 improved_shellsort669399904
	sim-bpred -bpred 2lev -bpred:2lev 1 4096 10 1 improved_shellsort669399904
