Fri Jul 15 12:53:11 2005
Run as: "./do_simple -c random.org5 -o 5 -M 65536 improved_bubblesort"
-------------------------------------------------------------------------------------------------
sim-cache                                     4096 |         4096 |         4096 |         4096 |         8192 |         8192 |         8192 |         8192 |        16384 |        16384 |        16384 |        16384 |        32768 |        32768 |        32768 |        32768 |        65536 |        65536 |        65536 |        65536 |
-cache:dl1 dl1:256:32:1:l -cache:dl2 dl2:131072:32:1:l -cache:il1 il1:256:32:1:l -cache:il2 dl2
-cache:dl1 dl1:256:32:1:l -cache:dl2 dl2:65536:32:1:l -cache:il1 il1:256:32:1:l -cache:il2 dl2
-cache:dl1 dl1:1:32:256:l -cache:dl2 dl2:1:32:131072:l -cache:il1 il1:1:32:256:l -cache:il2 dl2
-cache:dl1 dl1:1:32:256:l -cache:dl2 dl2:1:32:65536:l -cache:il1 il1:1:32:256:l -cache:il2 dl2
-------------------------------------------------------------------------------------------------
sim_num_insn                              73373438 |     73373438 |     73373438 |     73373438 |    293362892 |    293362892 |    293362892 |    293362892 |   1174931157 |   1174931157 |   1174931157 |   1174931157 |   4698554626 |   4698554626 |   4698554626 |   4698554626 |  18788830319 |  18788830319 |  18788830319 |  18788830319 |
sim_num_refs                              29360361 |     29360361 |     29360361 |     29360361 |    117308667 |    117308667 |    117308667 |    117308667 |    470263717 |    470263717 |    470263717 |    470263717 |   1880041007 |   1880041007 |   1880041007 |   1880041007 |   7515817284 |   7515817284 |   7515817284 |   7515817284 |
sim_elapsed_time                                21 |           21 |           28 |           23 |           85 |           85 |           92 |           87 |          340 |          341 |          349 |          338 |         1353 |         1354 |         1361 |         1344 |         5403 |         5407 |         5390 |         5345 |
sim_inst_rate                         3493973.2381 | 3493973.2381 | 2620479.9286 | 3190149.4783 | 3451328.1412 | 3451328.1412 | 3188727.0870 | 3371987.2644 | 3455679.8735 | 3445545.9150 | 3366564.9198 | 3476127.6834 | 3472693.7369 | 3470128.9705 | 3452281.1359 | 3495948.3824 | 3477481.0881 | 3474908.5110 | 3485868.3338 | 3515216.1495 |
il1.accesses                              73373438 |     73373438 |     73373438 |     73373438 |    293362892 |    293362892 |    293362892 |    293362892 |   1174931157 |   1174931157 |   1174931157 |   1174931157 |   4698554626 |   4698554626 |   4698554626 |   4698554626 |  18788830319 |  18788830319 |  18788830319 |  18788830319 |
il1.hits                                  73373063 |     73373063 |     73373118 |     73373118 |    293362517 |    293362517 |    293362572 |    293362572 |   1174930772 |   1174930772 |   1174930831 |   1174930831 |   4698554249 |   4698554249 |   4698554304 |   4698554304 |  18788829942 |  18788829942 |  18788829997 |  18788829997 |
il1.misses                                     375 |          375 |          320 |          320 |          375 |          375 |          320 |          320 |          385 |          385 |          326 |          326 |          377 |          377 |          322 |          322 |          377 |          377 |          322 |          322 |
il1.replacements                               189 |          189 |           64 |           64 |          189 |          189 |           64 |           64 |          195 |          195 |           70 |           70 |          191 |          191 |           66 |           66 |          191 |          191 |           66 |           66 |
il1.writebacks                                   0 |            0 |            0 |            0 |            0 |            0 |            0 |            0 |            0 |            0 |            0 |            0 |            0 |            0 |            0 |            0 |            0 |            0 |            0 |            0 |
il1.invalidations                                0 |            0 |            0 |            0 |            0 |            0 |            0 |            0 |            0 |            0 |            0 |            0 |            0 |            0 |            0 |            0 |            0 |            0 |            0 |            0 |
il1.miss_rate                               0.0000 |       0.0000 |       0.0000 |       0.0000 |       0.0000 |       0.0000 |       0.0000 |       0.0000 |       0.0000 |       0.0000 |       0.0000 |       0.0000 |       0.0000 |       0.0000 |       0.0000 |       0.0000 |       0.0000 |       0.0000 |       0.0000 |       0.0000 |
il1.repl_rate                               0.0000 |       0.0000 |       0.0000 |       0.0000 |       0.0000 |       0.0000 |       0.0000 |       0.0000 |       0.0000 |       0.0000 |       0.0000 |       0.0000 |       0.0000 |       0.0000 |       0.0000 |       0.0000 |       0.0000 |       0.0000 |       0.0000 |       0.0000 |
il1.wb_rate                                 0.0000 |       0.0000 |       0.0000 |       0.0000 |       0.0000 |       0.0000 |       0.0000 |       0.0000 |       0.0000 |       0.0000 |       0.0000 |       0.0000 |       0.0000 |       0.0000 |       0.0000 |       0.0000 |       0.0000 |       0.0000 |       0.0000 |       0.0000 |
il1.inv_rate                                0.0000 |       0.0000 |       0.0000 |       0.0000 |       0.0000 |       0.0000 |       0.0000 |       0.0000 |       0.0000 |       0.0000 |       0.0000 |       0.0000 |       0.0000 |       0.0000 |       0.0000 |       0.0000 |       0.0000 |       0.0000 |       0.0000 |       0.0000 |
dl1.accesses                              29376827 |     29376827 |     29376827 |     29376827 |    117341517 |    117341517 |    117341517 |    117341517 |    470329335 |    470329335 |    470329335 |    470329335 |   1880172161 |   1880172161 |   1880172161 |   1880172161 |   7516079510 |   7516079510 |   7516079510 |   7516079510 |
dl1.hits                                  28848807 |     28848807 |     28587797 |     28587797 |    113665184 |    113665184 |    113404844 |    113404844 |    454068174 |    454068174 |    453807131 |    453807131 |   1813573391 |   1813573391 |   1813312392 |   1813312392 |   7248154411 |   7248154411 |   7247894418 |   7247894418 |
dl1.misses                                  528020 |       528020 |       789030 |       789030 |      3676333 |      3676333 |      3936673 |      3936673 |     16261161 |     16261161 |     16522204 |     16522204 |     66598770 |     66598770 |     66859769 |     66859769 |    267925099 |    267925099 |    268185092 |    268185092 |
dl1.replacements                            527764 |       527764 |       788774 |       788774 |      3676077 |      3676077 |      3936417 |      3936417 |     16260905 |     16260905 |     16521948 |     16521948 |     66598514 |     66598514 |     66859513 |     66859513 |    267924843 |    267924843 |    268184836 |    268184836 |
dl1.writebacks                              501669 |       501669 |       756720 |       756720 |      3435930 |      3435930 |      3656927 |      3656927 |     14941800 |     14941800 |     15101885 |     15101885 |     60321433 |     60321433 |     60423068 |     60423068 |    241443082 |    241443082 |    241503394 |    241503394 |
dl1.invalidations                                0 |            0 |            0 |            0 |            0 |            0 |            0 |            0 |            0 |            0 |            0 |            0 |            0 |            0 |            0 |            0 |            0 |            0 |            0 |            0 |
dl1.miss_rate                               0.0180 |       0.0180 |       0.0269 |       0.0269 |       0.0313 |       0.0313 |       0.0335 |       0.0335 |       0.0346 |       0.0346 |       0.0351 |       0.0351 |       0.0354 |       0.0354 |       0.0356 |       0.0356 |       0.0356 |       0.0356 |       0.0357 |       0.0357 |
dl1.repl_rate                               0.0180 |       0.0180 |       0.0269 |       0.0269 |       0.0313 |       0.0313 |       0.0335 |       0.0335 |       0.0346 |       0.0346 |       0.0351 |       0.0351 |       0.0354 |       0.0354 |       0.0356 |       0.0356 |       0.0356 |       0.0356 |       0.0357 |       0.0357 |
dl1.wb_rate                                 0.0171 |       0.0171 |       0.0258 |       0.0258 |       0.0293 |       0.0293 |       0.0312 |       0.0312 |       0.0318 |       0.0318 |       0.0321 |       0.0321 |       0.0321 |       0.0321 |       0.0321 |       0.0321 |       0.0321 |       0.0321 |       0.0321 |       0.0321 |
dl1.inv_rate                                0.0000 |       0.0000 |       0.0000 |       0.0000 |       0.0000 |       0.0000 |       0.0000 |       0.0000 |       0.0000 |       0.0000 |       0.0000 |       0.0000 |       0.0000 |       0.0000 |       0.0000 |       0.0000 |       0.0000 |       0.0000 |       0.0000 |       0.0000 |
dl2.accesses                               1030064 |      1030064 |      1546070 |      1546070 |      7112638 |      7112638 |      7593920 |      7593920 |     31203346 |     31203346 |     31624415 |     31624415 |    126920580 |    126920580 |    127283159 |    127283159 |    509368558 |    509368558 |    509688808 |    509688808 |
dl2.hits                                   1028819 |      1028819 |      1544827 |      1544827 |      7110881 |      7110881 |      7592165 |      7592165 |     31200560 |     31200560 |     31621629 |     31621629 |    126915749 |    126915749 |    127278330 |    127278330 |    509359631 |    509359631 |    509679883 |    509679883 |
dl2.misses                                    1245 |         1245 |         1243 |         1243 |         1757 |         1757 |         1755 |         1755 |         2786 |         2786 |         2786 |         2786 |         4831 |         4831 |         4829 |         4829 |         8927 |         8927 |         8925 |         8925 |
dl2.replacements                                62 |           62 |            0 |            0 |           63 |           63 |            0 |            0 |           60 |           60 |            0 |            0 |           63 |           63 |            0 |            0 |           63 |           63 |            0 |            0 |
dl2.writebacks                                   0 |            0 |            0 |            0 |            0 |            0 |            0 |            0 |            0 |            0 |            0 |            0 |            0 |            0 |            0 |            0 |            0 |            0 |            0 |            0 |
dl2.invalidations                                0 |            0 |            0 |            0 |            0 |            0 |            0 |            0 |            0 |            0 |            0 |            0 |            0 |            0 |            0 |            0 |            0 |            0 |            0 |            0 |
dl2.miss_rate                               0.0012 |       0.0012 |       0.0008 |       0.0008 |       0.0002 |       0.0002 |       0.0002 |       0.0002 |       0.0001 |       0.0001 |       0.0001 |       0.0001 |       0.0000 |       0.0000 |       0.0000 |       0.0000 |       0.0000 |       0.0000 |       0.0000 |       0.0000 |
dl2.repl_rate                               0.0001 |       0.0001 |       0.0000 |       0.0000 |       0.0000 |       0.0000 |       0.0000 |       0.0000 |       0.0000 |       0.0000 |       0.0000 |       0.0000 |       0.0000 |       0.0000 |       0.0000 |       0.0000 |       0.0000 |       0.0000 |       0.0000 |       0.0000 |
dl2.wb_rate                                 0.0000 |       0.0000 |       0.0000 |       0.0000 |       0.0000 |       0.0000 |       0.0000 |       0.0000 |       0.0000 |       0.0000 |       0.0000 |       0.0000 |       0.0000 |       0.0000 |       0.0000 |       0.0000 |       0.0000 |       0.0000 |       0.0000 |       0.0000 |
dl2.inv_rate                                0.0000 |       0.0000 |       0.0000 |       0.0000 |       0.0000 |       0.0000 |       0.0000 |       0.0000 |       0.0000 |       0.0000 |       0.0000 |       0.0000 |       0.0000 |       0.0000 |       0.0000 |       0.0000 |       0.0000 |       0.0000 |       0.0000 |       0.0000 |
itlb.accesses                             73373438 |     73373438 |     73373438 |     73373438 |    293362892 |    293362892 |    293362892 |    293362892 |   1174931157 |   1174931157 |   1174931157 |   1174931157 |   4698554626 |   4698554626 |   4698554626 |   4698554626 |  18788830319 |  18788830319 |  18788830319 |  18788830319 |
itlb.hits                                 73373428 |     73373428 |     73373428 |     73373428 |    293362882 |    293362882 |    293362882 |    293362882 |   1174931147 |   1174931147 |   1174931147 |   1174931147 |   4698554616 |   4698554616 |   4698554616 |   4698554616 |  18788830309 |  18788830309 |  18788830309 |  18788830309 |
itlb.misses                                     10 |           10 |           10 |           10 |           10 |           10 |           10 |           10 |           10 |           10 |           10 |           10 |           10 |           10 |           10 |           10 |           10 |           10 |           10 |           10 |
itlb.replacements                                0 |            0 |            0 |            0 |            0 |            0 |            0 |            0 |            0 |            0 |            0 |            0 |            0 |            0 |            0 |            0 |            0 |            0 |            0 |            0 |
itlb.writebacks                                  0 |            0 |            0 |            0 |            0 |            0 |            0 |            0 |            0 |            0 |            0 |            0 |            0 |            0 |            0 |            0 |            0 |            0 |            0 |            0 |
itlb.invalidations                               0 |            0 |            0 |            0 |            0 |            0 |            0 |            0 |            0 |            0 |            0 |            0 |            0 |            0 |            0 |            0 |            0 |            0 |            0 |            0 |
itlb.miss_rate                              0.0000 |       0.0000 |       0.0000 |       0.0000 |       0.0000 |       0.0000 |       0.0000 |       0.0000 |       0.0000 |       0.0000 |       0.0000 |       0.0000 |       0.0000 |       0.0000 |       0.0000 |       0.0000 |       0.0000 |       0.0000 |       0.0000 |       0.0000 |
itlb.repl_rate                              0.0000 |       0.0000 |       0.0000 |       0.0000 |       0.0000 |       0.0000 |       0.0000 |       0.0000 |       0.0000 |       0.0000 |       0.0000 |       0.0000 |       0.0000 |       0.0000 |       0.0000 |       0.0000 |       0.0000 |       0.0000 |       0.0000 |       0.0000 |
itlb.wb_rate                                0.0000 |       0.0000 |       0.0000 |       0.0000 |       0.0000 |       0.0000 |       0.0000 |       0.0000 |       0.0000 |       0.0000 |       0.0000 |       0.0000 |       0.0000 |       0.0000 |       0.0000 |       0.0000 |       0.0000 |       0.0000 |       0.0000 |       0.0000 |
itlb.inv_rate                               0.0000 |       0.0000 |       0.0000 |       0.0000 |       0.0000 |       0.0000 |       0.0000 |       0.0000 |       0.0000 |       0.0000 |       0.0000 |       0.0000 |       0.0000 |       0.0000 |       0.0000 |       0.0000 |       0.0000 |       0.0000 |       0.0000 |       0.0000 |
dtlb.accesses                             29376827 |     29376827 |     29376827 |     29376827 |    117341517 |    117341517 |    117341517 |    117341517 |    470329335 |    470329335 |    470329335 |    470329335 |   1880172161 |   1880172161 |   1880172161 |   1880172161 |   7516079510 |   7516079510 |   7516079510 |   7516079510 |
dtlb.hits                                 29376816 |     29376816 |     29376816 |     29376816 |    117341502 |    117341502 |    117341502 |    117341502 |    470329312 |    470329312 |    470329312 |    470329312 |   1880172122 |   1880172122 |   1880172122 |   1880172122 |   7516079439 |   7516079439 |   7516079439 |   7516079439 |
dtlb.misses                                     11 |           11 |           11 |           11 |           15 |           15 |           15 |           15 |           23 |           23 |           23 |           23 |           39 |           39 |           39 |           39 |           71 |           71 |           71 |           71 |
dtlb.replacements                                0 |            0 |            0 |            0 |            0 |            0 |            0 |            0 |            0 |            0 |            0 |            0 |            0 |            0 |            0 |            0 |            0 |            0 |            0 |            0 |
dtlb.writebacks                                  0 |            0 |            0 |            0 |            0 |            0 |            0 |            0 |            0 |            0 |            0 |            0 |            0 |            0 |            0 |            0 |            0 |            0 |            0 |            0 |
dtlb.invalidations                               0 |            0 |            0 |            0 |            0 |            0 |            0 |            0 |            0 |            0 |            0 |            0 |            0 |            0 |            0 |            0 |            0 |            0 |            0 |            0 |
dtlb.miss_rate                              0.0000 |       0.0000 |       0.0000 |       0.0000 |       0.0000 |       0.0000 |       0.0000 |       0.0000 |       0.0000 |       0.0000 |       0.0000 |       0.0000 |       0.0000 |       0.0000 |       0.0000 |       0.0000 |       0.0000 |       0.0000 |       0.0000 |       0.0000 |
dtlb.repl_rate                              0.0000 |       0.0000 |       0.0000 |       0.0000 |       0.0000 |       0.0000 |       0.0000 |       0.0000 |       0.0000 |       0.0000 |       0.0000 |       0.0000 |       0.0000 |       0.0000 |       0.0000 |       0.0000 |       0.0000 |       0.0000 |       0.0000 |       0.0000 |
dtlb.wb_rate                                0.0000 |       0.0000 |       0.0000 |       0.0000 |       0.0000 |       0.0000 |       0.0000 |       0.0000 |       0.0000 |       0.0000 |       0.0000 |       0.0000 |       0.0000 |       0.0000 |       0.0000 |       0.0000 |       0.0000 |       0.0000 |       0.0000 |       0.0000 |
dtlb.inv_rate                               0.0000 |       0.0000 |       0.0000 |       0.0000 |       0.0000 |       0.0000 |       0.0000 |       0.0000 |       0.0000 |       0.0000 |       0.0000 |       0.0000 |       0.0000 |       0.0000 |       0.0000 |       0.0000 |       0.0000 |       0.0000 |       0.0000 |       0.0000 |
ld_text_base                            0x00400000 |   0x00400000 |   0x00400000 |   0x00400000 |   0x00400000 |   0x00400000 |   0x00400000 |   0x00400000 |   0x00400000 |   0x00400000 |   0x00400000 |   0x00400000 |   0x00400000 |   0x00400000 |   0x00400000 |   0x00400000 |   0x00400000 |   0x00400000 |   0x00400000 |   0x00400000 |
ld_text_size                                 71456 |        71456 |        71456 |        71456 |        71488 |        71488 |        71488 |        71488 |        71504 |        71504 |        71504 |        71504 |        71520 |        71520 |        71520 |        71520 |        71520 |        71520 |        71520 |        71520 |
ld_data_base                            0x10000000 |   0x10000000 |   0x10000000 |   0x10000000 |   0x10000000 |   0x10000000 |   0x10000000 |   0x10000000 |   0x10000000 |   0x10000000 |   0x10000000 |   0x10000000 |   0x10000000 |   0x10000000 |   0x10000000 |   0x10000000 |   0x10000000 |   0x10000000 |   0x10000000 |   0x10000000 |
ld_data_size                                  8192 |         8192 |         8192 |         8192 |         8192 |         8192 |         8192 |         8192 |         8192 |         8192 |         8192 |         8192 |         8192 |         8192 |         8192 |         8192 |         8192 |         8192 |         8192 |         8192 |
ld_stack_base                           0x7fffc000 |   0x7fffc000 |   0x7fffc000 |   0x7fffc000 |   0x7fffc000 |   0x7fffc000 |   0x7fffc000 |   0x7fffc000 |   0x7fffc000 |   0x7fffc000 |   0x7fffc000 |   0x7fffc000 |   0x7fffc000 |   0x7fffc000 |   0x7fffc000 |   0x7fffc000 |   0x7fffc000 |   0x7fffc000 |   0x7fffc000 |   0x7fffc000 |
ld_stack_size                                16384 |        16384 |        16384 |        16384 |        16384 |        16384 |        16384 |        16384 |        16384 |        16384 |        16384 |        16384 |        16384 |        16384 |        16384 |        16384 |        16384 |        16384 |        16384 |        16384 |
ld_prog_entry                           0x00400140 |   0x00400140 |   0x00400140 |   0x00400140 |   0x00400140 |   0x00400140 |   0x00400140 |   0x00400140 |   0x00400140 |   0x00400140 |   0x00400140 |   0x00400140 |   0x00400140 |   0x00400140 |   0x00400140 |   0x00400140 |   0x00400140 |   0x00400140 |   0x00400140 |   0x00400140 |
ld_environ_base                         0x7fff8000 |   0x7fff8000 |   0x7fff8000 |   0x7fff8000 |   0x7fff8000 |   0x7fff8000 |   0x7fff8000 |   0x7fff8000 |   0x7fff8000 |   0x7fff8000 |   0x7fff8000 |   0x7fff8000 |   0x7fff8000 |   0x7fff8000 |   0x7fff8000 |   0x7fff8000 |   0x7fff8000 |   0x7fff8000 |   0x7fff8000 |   0x7fff8000 |
ld_target_big_endian                             0 |            0 |            0 |            0 |            0 |            0 |            0 |            0 |            0 |            0 |            0 |            0 |            0 |            0 |            0 |            0 |            0 |            0 |            0 |            0 |
mem.page_count                                  29 |           29 |           29 |           29 |           33 |           33 |           33 |           33 |           41 |           41 |           41 |           41 |           57 |           57 |           57 |           57 |           89 |           89 |           89 |           89 |
mem.page_mem                                  116k |         116k |         116k |         116k |         132k |         132k |         132k |         132k |         164k |         164k |         164k |         164k |         228k |         228k |         228k |         228k |         356k |         356k |         356k |         356k |
mem.ptab_misses                                 29 |           29 |           29 |           29 |           33 |           33 |           33 |           33 |           41 |           41 |           41 |           41 |           57 |           57 |           57 |           57 |           89 |           89 |           89 |           89 |
mem.ptab_accesses                        352690728 |    352690728 |    352690728 |    352690728 |   1408578116 |   1408578116 |   1408578116 |   1408578116 |   5640826908 |   5640826908 |   5640826908 |   5640826908 |  22555006532 |  22555006532 |  22555006532 |  22555006532 |  90187924002 |  90187924002 |  90187924002 |  90187924002 |
mem.ptab_miss_rate                          0.0000 |       0.0000 |       0.0000 |       0.0000 |       0.0000 |       0.0000 |       0.0000 |       0.0000 |       0.0000 |       0.0000 |       0.0000 |       0.0000 |       0.0000 |       0.0000 |       0.0000 |       0.0000 |       0.0000 |       0.0000 |       0.0000 |       0.0000 |
-------------------------------------------------------------------------------------------------
sim-bpred                                     4096 |         4096 |         4096 |         4096 |         4096 |         4096 |         4096 |         8192 |         8192 |         8192 |         8192 |         8192 |         8192 |         8192 |        16384 |        16384 |        16384 |        16384 |        16384 |        16384 |        16384 |        32768 |        32768 |        32768 |        32768 |        32768 |        32768 |        32768 |        65536 |        65536 |        65536 |        65536 |        65536 |        65536 |        65536 |
-bpred bimod -bpred:bimod 512
-bpred bimod -bpred:bimod 1024
-bpred bimod -bpred:bimod 2048
-bpred 2lev -bpred:2lev 1 512 10 1
-bpred 2lev -bpred:2lev 1 1024 10 1
-bpred 2lev -bpred:2lev 1 2048 10 1
-bpred 2lev -bpred:2lev 1 4096 10 1
-------------------------------------------------------------------------------------------------
sim_num_insn                              73373438 |     73373438 |     73373438 |     73373438 |     73373438 |     73373438 |     73373438 |    293362892 |    293362892 |    293362892 |    293362892 |    293362892 |    293362892 |    293362892 |   1174931157 |   1174931157 |   1174931157 |   1174931157 |   1174931157 |   1174931157 |   1174931157 |   4698554626 |   4698554626 |   4698554626 |   4698554626 |   4698554626 |   4698554626 |   4698554626 |  18788830319 |  18788830319 |  18788830319 |  18788830319 |  18788830319 |  18788830319 |  18788830319 |
sim_num_refs                              29360361 |     29360361 |     29360361 |     29360361 |     29360361 |     29360361 |     29360361 |    117308667 |    117308667 |    117308667 |    117308667 |    117308667 |    117308667 |    117308667 |    470263717 |    470263717 |    470263717 |    470263717 |    470263717 |    470263717 |    470263717 |   1880041007 |   1880041007 |   1880041007 |   1880041007 |   1880041007 |   1880041007 |   1880041007 |   7515817284 |   7515817284 |   7515817284 |   7515817284 |   7515817284 |   7515817284 |   7515817284 |
sim_elapsed_time                                 9 |            8 |            9 |            8 |            9 |            8 |            9 |           35 |           33 |           34 |           35 |           34 |           34 |           34 |          138 |          134 |          134 |          139 |          137 |          136 |          137 |          550 |          537 |          536 |          568 |          547 |          547 |          546 |         2202 |         2151 |         2151 |         2269 |         2192 |         2189 |         2190 |
sim_inst_rate                         8152604.2222 | 9171679.7500 | 8152604.2222 | 9171679.7500 | 8152604.2222 | 9171679.7500 | 8152604.2222 | 8381796.9143 | 8889784.6061 | 8628320.3529 | 8381796.9143 | 8628320.3529 | 8628320.3529 | 8628320.3529 | 8513993.8913 | 8768142.9627 | 8768142.9627 | 8452742.1367 | 8576139.8321 | 8639199.6838 | 8576139.8321 | 8542826.5927 | 8749636.1750 | 8765960.1231 | 8272103.2148 | 8589679.3894 | 8589679.3894 | 8605411.4029 | 8532620.4900 | 8734928.0888 | 8734928.0888 | 8280665.6320 | 8571546.6784 | 8583293.8872 | 8579374.5749 |
sim_num_branches                          10473153 |     10473153 |     10473153 |     10473153 |     10473153 |     10473153 |     10473153 |     41914911 |     41914911 |     41914911 |     41914911 |     41914911 |     41914911 |     41914911 |    167710107 |    167710107 |    167710107 |    167710107 |    167710107 |    167710107 |    167710107 |    670932342 |    670932342 |    670932342 |    670932342 |    670932342 |    670932342 |    670932342 |   2683927504 |   2683927504 |   2683927504 |   2683927504 |   2683927504 |   2683927504 |   2683927504 |
sim_IPB                                     7.0059 |       7.0059 |       7.0059 |       7.0059 |       7.0059 |       7.0059 |       7.0059 |       6.9990 |       6.9990 |       6.9990 |       6.9990 |       6.9990 |       6.9990 |       6.9990 |       7.0057 |       7.0057 |       7.0057 |       7.0057 |       7.0057 |       7.0057 |       7.0057 |       7.0030 |       7.0030 |       7.0030 |       7.0030 |       7.0030 |       7.0030 |       7.0030 |       7.0005 |       7.0005 |       7.0005 |       7.0005 |       7.0005 |       7.0005 |       7.0005 |
bpred_bimod.lookups                       10473153 |     10473153 |     10473153 |xxxxxxxxxxxxx |xxxxxxxxxxxxx |xxxxxxxxxxxxx |xxxxxxxxxxxxx |     41914911 |     41914911 |     41914911 |xxxxxxxxxxxxx |xxxxxxxxxxxxx |xxxxxxxxxxxxx |xxxxxxxxxxxxx |    167710107 |    167710107 |    167710107 |xxxxxxxxxxxxx |xxxxxxxxxxxxx |xxxxxxxxxxxxx |xxxxxxxxxxxxx |    670932342 |    670932342 |    670932342 |xxxxxxxxxxxxx |xxxxxxxxxxxxx |xxxxxxxxxxxxx |xxxxxxxxxxxxx |   2683927504 |   2683927504 |   2683927504 |
bpred_bimod.updates                       10473153 |     10473153 |     10473153 |xxxxxxxxxxxxx |xxxxxxxxxxxxx |xxxxxxxxxxxxx |xxxxxxxxxxxxx |     41914911 |     41914911 |     41914911 |xxxxxxxxxxxxx |xxxxxxxxxxxxx |xxxxxxxxxxxxx |xxxxxxxxxxxxx |    167710107 |    167710107 |    167710107 |xxxxxxxxxxxxx |xxxxxxxxxxxxx |xxxxxxxxxxxxx |xxxxxxxxxxxxx |    670932342 |    670932342 |    670932342 |xxxxxxxxxxxxx |xxxxxxxxxxxxx |xxxxxxxxxxxxx |xxxxxxxxxxxxx |   2683927504 |   2683927504 |   2683927504 |
bpred_bimod.addr_hits                      8047594 |      8047597 |      8047596 |xxxxxxxxxxxxx |xxxxxxxxxxxxx |xxxxxxxxxxxxx |xxxxxxxxxxxxx |     32229348 |     32229350 |     32229350 |xxxxxxxxxxxxx |xxxxxxxxxxxxx |xxxxxxxxxxxxx |xxxxxxxxxxxxx |    128810114 |    128810116 |    128810117 |xxxxxxxxxxxxx |xxxxxxxxxxxxx |xxxxxxxxxxxxx |xxxxxxxxxxxxx |    516625647 |    516625649 |    516625649 |xxxxxxxxxxxxx |xxxxxxxxxxxxx |xxxxxxxxxxxxx |xxxxxxxxxxxxx |   2071063173 |   2071063175 |   2071063176 |
bpred_bimod.dir_hits                       8047688 |      8047689 |      8047687 |xxxxxxxxxxxxx |xxxxxxxxxxxxx |xxxxxxxxxxxxx |xxxxxxxxxxxxx |     32229443 |     32229444 |     32229442 |xxxxxxxxxxxxx |xxxxxxxxxxxxx |xxxxxxxxxxxxx |xxxxxxxxxxxxx |    128810207 |    128810208 |    128810208 |xxxxxxxxxxxxx |xxxxxxxxxxxxx |xxxxxxxxxxxxx |xxxxxxxxxxxxx |    516625743 |    516625744 |    516625741 |xxxxxxxxxxxxx |xxxxxxxxxxxxx |xxxxxxxxxxxxx |xxxxxxxxxxxxx |   2071063267 |   2071063268 |   2071063267 |
bpred_bimod.misses                         2425465 |      2425464 |      2425466 |xxxxxxxxxxxxx |xxxxxxxxxxxxx |xxxxxxxxxxxxx |xxxxxxxxxxxxx |      9685468 |      9685467 |      9685469 |xxxxxxxxxxxxx |xxxxxxxxxxxxx |xxxxxxxxxxxxx |xxxxxxxxxxxxx |     38899900 |     38899899 |     38899899 |xxxxxxxxxxxxx |xxxxxxxxxxxxx |xxxxxxxxxxxxx |xxxxxxxxxxxxx |    154306599 |    154306598 |    154306601 |xxxxxxxxxxxxx |xxxxxxxxxxxxx |xxxxxxxxxxxxx |xxxxxxxxxxxxx |    612864237 |    612864236 |    612864237 |
bpred_bimod.jr_hits                             57 |           57 |           57 |xxxxxxxxxxxxx |xxxxxxxxxxxxx |xxxxxxxxxxxxx |xxxxxxxxxxxxx |           57 |           57 |           57 |xxxxxxxxxxxxx |xxxxxxxxxxxxx |xxxxxxxxxxxxx |xxxxxxxxxxxxx |           57 |           57 |           57 |xxxxxxxxxxxxx |xxxxxxxxxxxxx |xxxxxxxxxxxxx |xxxxxxxxxxxxx |           57 |           57 |           57 |xxxxxxxxxxxxx |xxxxxxxxxxxxx |xxxxxxxxxxxxx |xxxxxxxxxxxxx |           57 |           57 |           57 |
bpred_bimod.jr_seen                             58 |           58 |           58 |xxxxxxxxxxxxx |xxxxxxxxxxxxx |xxxxxxxxxxxxx |xxxxxxxxxxxxx |           58 |           58 |           58 |xxxxxxxxxxxxx |xxxxxxxxxxxxx |xxxxxxxxxxxxx |xxxxxxxxxxxxx |           58 |           58 |           58 |xxxxxxxxxxxxx |xxxxxxxxxxxxx |xxxxxxxxxxxxx |xxxxxxxxxxxxx |           58 |           58 |           58 |xxxxxxxxxxxxx |xxxxxxxxxxxxx |xxxxxxxxxxxxx |xxxxxxxxxxxxx |           58 |           58 |           58 |
bpred_bimod.jr_non_ras_hits.PP                   0 |            0 |            0 |xxxxxxxxxxxxx |xxxxxxxxxxxxx |xxxxxxxxxxxxx |xxxxxxxxxxxxx |            0 |            0 |            0 |xxxxxxxxxxxxx |xxxxxxxxxxxxx |xxxxxxxxxxxxx |xxxxxxxxxxxxx |            0 |            0 |            0 |xxxxxxxxxxxxx |xxxxxxxxxxxxx |xxxxxxxxxxxxx |xxxxxxxxxxxxx |            0 |            0 |            0 |xxxxxxxxxxxxx |xxxxxxxxxxxxx |xxxxxxxxxxxxx |xxxxxxxxxxxxx |            0 |            0 |            0 |
bpred_bimod.jr_non_ras_seen.PP                   0 |            0 |            0 |xxxxxxxxxxxxx |xxxxxxxxxxxxx |xxxxxxxxxxxxx |xxxxxxxxxxxxx |            0 |            0 |            0 |xxxxxxxxxxxxx |xxxxxxxxxxxxx |xxxxxxxxxxxxx |xxxxxxxxxxxxx |            0 |            0 |            0 |xxxxxxxxxxxxx |xxxxxxxxxxxxx |xxxxxxxxxxxxx |xxxxxxxxxxxxx |            0 |            0 |            0 |xxxxxxxxxxxxx |xxxxxxxxxxxxx |xxxxxxxxxxxxx |xxxxxxxxxxxxx |            0 |            0 |            0 |
bpred_bimod.bpred_addr_rate                 0.7684 |       0.7684 |       0.7684 |xxxxxxxxxxxxx |xxxxxxxxxxxxx |xxxxxxxxxxxxx |xxxxxxxxxxxxx |       0.7689 |       0.7689 |       0.7689 |xxxxxxxxxxxxx |xxxxxxxxxxxxx |xxxxxxxxxxxxx |xxxxxxxxxxxxx |       0.7681 |       0.7681 |       0.7681 |xxxxxxxxxxxxx |xxxxxxxxxxxxx |xxxxxxxxxxxxx |xxxxxxxxxxxxx |       0.7700 |       0.7700 |       0.7700 |xxxxxxxxxxxxx |xxxxxxxxxxxxx |xxxxxxxxxxxxx |xxxxxxxxxxxxx |       0.7717 |       0.7717 |       0.7717 |
bpred_bimod.bpred_dir_rate                  0.7684 |       0.7684 |       0.7684 |xxxxxxxxxxxxx |xxxxxxxxxxxxx |xxxxxxxxxxxxx |xxxxxxxxxxxxx |       0.7689 |       0.7689 |       0.7689 |xxxxxxxxxxxxx |xxxxxxxxxxxxx |xxxxxxxxxxxxx |xxxxxxxxxxxxx |       0.7681 |       0.7681 |       0.7681 |xxxxxxxxxxxxx |xxxxxxxxxxxxx |xxxxxxxxxxxxx |xxxxxxxxxxxxx |       0.7700 |       0.7700 |       0.7700 |xxxxxxxxxxxxx |xxxxxxxxxxxxx |xxxxxxxxxxxxx |xxxxxxxxxxxxx |       0.7717 |       0.7717 |       0.7717 |
bpred_bimod.bpred_jr_rate                   0.9828 |       0.9828 |       0.9828 |xxxxxxxxxxxxx |xxxxxxxxxxxxx |xxxxxxxxxxxxx |xxxxxxxxxxxxx |       0.9828 |       0.9828 |       0.9828 |xxxxxxxxxxxxx |xxxxxxxxxxxxx |xxxxxxxxxxxxx |xxxxxxxxxxxxx |       0.9828 |       0.9828 |       0.9828 |xxxxxxxxxxxxx |xxxxxxxxxxxxx |xxxxxxxxxxxxx |xxxxxxxxxxxxx |       0.9828 |       0.9828 |       0.9828 |xxxxxxxxxxxxx |xxxxxxxxxxxxx |xxxxxxxxxxxxx |xxxxxxxxxxxxx |       0.9828 |       0.9828 |       0.9828 |
bpred_bimod.bpred_jr_non_ras_rate.PP       <error: |      <error: |      <error: |xxxxxxxxxxxxx |xxxxxxxxxxxxx |xxxxxxxxxxxxx |xxxxxxxxxxxxx |      <error: |      <error: |      <error: |xxxxxxxxxxxxx |xxxxxxxxxxxxx |xxxxxxxxxxxxx |xxxxxxxxxxxxx |      <error: |      <error: |      <error: |xxxxxxxxxxxxx |xxxxxxxxxxxxx |xxxxxxxxxxxxx |xxxxxxxxxxxxx |      <error: |      <error: |      <error: |xxxxxxxxxxxxx |xxxxxxxxxxxxx |xxxxxxxxxxxxx |xxxxxxxxxxxxx |      <error: |      <error: |      <error: |
bpred_bimod.retstack_pushes                     60 |           60 |           60 |xxxxxxxxxxxxx |xxxxxxxxxxxxx |xxxxxxxxxxxxx |xxxxxxxxxxxxx |           60 |           60 |           60 |xxxxxxxxxxxxx |xxxxxxxxxxxxx |xxxxxxxxxxxxx |xxxxxxxxxxxxx |           60 |           60 |           60 |xxxxxxxxxxxxx |xxxxxxxxxxxxx |xxxxxxxxxxxxx |xxxxxxxxxxxxx |           60 |           60 |           60 |xxxxxxxxxxxxx |xxxxxxxxxxxxx |xxxxxxxxxxxxx |xxxxxxxxxxxxx |           60 |           60 |           60 |
bpred_bimod.retstack_pops                       58 |           58 |           58 |xxxxxxxxxxxxx |xxxxxxxxxxxxx |xxxxxxxxxxxxx |xxxxxxxxxxxxx |           58 |           58 |           58 |xxxxxxxxxxxxx |xxxxxxxxxxxxx |xxxxxxxxxxxxx |xxxxxxxxxxxxx |           58 |           58 |           58 |xxxxxxxxxxxxx |xxxxxxxxxxxxx |xxxxxxxxxxxxx |xxxxxxxxxxxxx |           58 |           58 |           58 |xxxxxxxxxxxxx |xxxxxxxxxxxxx |xxxxxxxxxxxxx |xxxxxxxxxxxxx |           58 |           58 |           58 |
bpred_bimod.used_ras.PP                         58 |           58 |           58 |xxxxxxxxxxxxx |xxxxxxxxxxxxx |xxxxxxxxxxxxx |xxxxxxxxxxxxx |           58 |           58 |           58 |xxxxxxxxxxxxx |xxxxxxxxxxxxx |xxxxxxxxxxxxx |xxxxxxxxxxxxx |           58 |           58 |           58 |xxxxxxxxxxxxx |xxxxxxxxxxxxx |xxxxxxxxxxxxx |xxxxxxxxxxxxx |           58 |           58 |           58 |xxxxxxxxxxxxx |xxxxxxxxxxxxx |xxxxxxxxxxxxx |xxxxxxxxxxxxx |           58 |           58 |           58 |
bpred_bimod.ras_hits.PP                         57 |           57 |           57 |xxxxxxxxxxxxx |xxxxxxxxxxxxx |xxxxxxxxxxxxx |xxxxxxxxxxxxx |           57 |           57 |           57 |xxxxxxxxxxxxx |xxxxxxxxxxxxx |xxxxxxxxxxxxx |xxxxxxxxxxxxx |           57 |           57 |           57 |xxxxxxxxxxxxx |xxxxxxxxxxxxx |xxxxxxxxxxxxx |xxxxxxxxxxxxx |           57 |           57 |           57 |xxxxxxxxxxxxx |xxxxxxxxxxxxx |xxxxxxxxxxxxx |xxxxxxxxxxxxx |           57 |           57 |           57 |
bpred_bimod.ras_rate.PP                     0.9828 |       0.9828 |       0.9828 |xxxxxxxxxxxxx |xxxxxxxxxxxxx |xxxxxxxxxxxxx |xxxxxxxxxxxxx |       0.9828 |       0.9828 |       0.9828 |xxxxxxxxxxxxx |xxxxxxxxxxxxx |xxxxxxxxxxxxx |xxxxxxxxxxxxx |       0.9828 |       0.9828 |       0.9828 |xxxxxxxxxxxxx |xxxxxxxxxxxxx |xxxxxxxxxxxxx |xxxxxxxxxxxxx |       0.9828 |       0.9828 |       0.9828 |xxxxxxxxxxxxx |xxxxxxxxxxxxx |xxxxxxxxxxxxx |xxxxxxxxxxxxx |       0.9828 |       0.9828 |       0.9828 |
bpred_2lev.lookups                   xxxxxxxxxxxxx |xxxxxxxxxxxxx |xxxxxxxxxxxxx |     10473153 |     10473153 |     10473153 |     10473153 |xxxxxxxxxxxxx |xxxxxxxxxxxxx |xxxxxxxxxxxxx |     41914911 |     41914911 |     41914911 |     41914911 |xxxxxxxxxxxxx |xxxxxxxxxxxxx |xxxxxxxxxxxxx |    167710107 |    167710107 |    167710107 |    167710107 |xxxxxxxxxxxxx |xxxxxxxxxxxxx |xxxxxxxxxxxxx |    670932342 |    670932342 |    670932342 |    670932342 |xxxxxxxxxxxxx |xxxxxxxxxxxxx |xxxxxxxxxxxxx |   2683927504 |   2683927504 |   2683927504 |   2683927504 |
bpred_2lev.updates                   xxxxxxxxxxxxx |xxxxxxxxxxxxx |xxxxxxxxxxxxx |     10473153 |     10473153 |     10473153 |     10473153 |xxxxxxxxxxxxx |xxxxxxxxxxxxx |xxxxxxxxxxxxx |     41914911 |     41914911 |     41914911 |     41914911 |xxxxxxxxxxxxx |xxxxxxxxxxxxx |xxxxxxxxxxxxx |    167710107 |    167710107 |    167710107 |    167710107 |xxxxxxxxxxxxx |xxxxxxxxxxxxx |xxxxxxxxxxxxx |    670932342 |    670932342 |    670932342 |    670932342 |xxxxxxxxxxxxx |xxxxxxxxxxxxx |xxxxxxxxxxxxx |   2683927504 |   2683927504 |   2683927504 |   2683927504 |
bpred_2lev.addr_hits                 xxxxxxxxxxxxx |xxxxxxxxxxxxx |xxxxxxxxxxxxx |      7853481 |      8301456 |      8515070 |      8616056 |xxxxxxxxxxxxx |xxxxxxxxxxxxx |xxxxxxxxxxxxx |     30914263 |     32108473 |     32786245 |     33086267 |xxxxxxxxxxxxx |xxxxxxxxxxxxx |xxxxxxxxxxxxx |    123412881 |    126235447 |    127919597 |    128521400 |xxxxxxxxxxxxx |xxxxxxxxxxxxx |xxxxxxxxxxxxx |    496290374 |    504637106 |    508885725 |    509400675 |xxxxxxxxxxxxx |xxxxxxxxxxxxx |xxxxxxxxxxxxx |   1994591128 |   2026890572 |   2041915697 |   2041700876 |
bpred_2lev.dir_hits                  xxxxxxxxxxxxx |xxxxxxxxxxxxx |xxxxxxxxxxxxx |      7853597 |      8301569 |      8515174 |      8616155 |xxxxxxxxxxxxx |xxxxxxxxxxxxx |xxxxxxxxxxxxx |     30914383 |     32108589 |     32786353 |     33086367 |xxxxxxxxxxxxx |xxxxxxxxxxxxx |xxxxxxxxxxxxx |    123412996 |    126235560 |    127919706 |    128521503 |xxxxxxxxxxxxx |xxxxxxxxxxxxx |xxxxxxxxxxxxx |    496290491 |    504637222 |    508885835 |    509400778 |xxxxxxxxxxxxx |xxxxxxxxxxxxx |xxxxxxxxxxxxx |   1994591246 |   2026890687 |   2041915807 |   2041700978 |
bpred_2lev.misses                    xxxxxxxxxxxxx |xxxxxxxxxxxxx |xxxxxxxxxxxxx |      2619556 |      2171584 |      1957979 |      1856998 |xxxxxxxxxxxxx |xxxxxxxxxxxxx |xxxxxxxxxxxxx |     11000528 |      9806322 |      9128558 |      8828544 |xxxxxxxxxxxxx |xxxxxxxxxxxxx |xxxxxxxxxxxxx |     44297111 |     41474547 |     39790401 |     39188604 |xxxxxxxxxxxxx |xxxxxxxxxxxxx |xxxxxxxxxxxxx |    174641851 |    166295120 |    162046507 |    161531564 |xxxxxxxxxxxxx |xxxxxxxxxxxxx |xxxxxxxxxxxxx |    689336258 |    657036817 |    642011697 |    642226526 |
bpred_2lev.jr_hits                   xxxxxxxxxxxxx |xxxxxxxxxxxxx |xxxxxxxxxxxxx |           57 |           57 |           57 |           57 |xxxxxxxxxxxxx |xxxxxxxxxxxxx |xxxxxxxxxxxxx |           57 |           57 |           57 |           57 |xxxxxxxxxxxxx |xxxxxxxxxxxxx |xxxxxxxxxxxxx |           57 |           57 |           57 |           57 |xxxxxxxxxxxxx |xxxxxxxxxxxxx |xxxxxxxxxxxxx |           57 |           57 |           57 |           57 |xxxxxxxxxxxxx |xxxxxxxxxxxxx |xxxxxxxxxxxxx |           57 |           57 |           57 |           57 |
bpred_2lev.jr_seen                   xxxxxxxxxxxxx |xxxxxxxxxxxxx |xxxxxxxxxxxxx |           58 |           58 |           58 |           58 |xxxxxxxxxxxxx |xxxxxxxxxxxxx |xxxxxxxxxxxxx |           58 |           58 |           58 |           58 |xxxxxxxxxxxxx |xxxxxxxxxxxxx |xxxxxxxxxxxxx |           58 |           58 |           58 |           58 |xxxxxxxxxxxxx |xxxxxxxxxxxxx |xxxxxxxxxxxxx |           58 |           58 |           58 |           58 |xxxxxxxxxxxxx |xxxxxxxxxxxxx |xxxxxxxxxxxxx |           58 |           58 |           58 |           58 |
bpred_2lev.jr_non_ras_hits.PP        xxxxxxxxxxxxx |xxxxxxxxxxxxx |xxxxxxxxxxxxx |            0 |            0 |            0 |            0 |xxxxxxxxxxxxx |xxxxxxxxxxxxx |xxxxxxxxxxxxx |            0 |            0 |            0 |            0 |xxxxxxxxxxxxx |xxxxxxxxxxxxx |xxxxxxxxxxxxx |            0 |            0 |            0 |            0 |xxxxxxxxxxxxx |xxxxxxxxxxxxx |xxxxxxxxxxxxx |            0 |            0 |            0 |            0 |xxxxxxxxxxxxx |xxxxxxxxxxxxx |xxxxxxxxxxxxx |            0 |            0 |            0 |            0 |
bpred_2lev.jr_non_ras_seen.PP        xxxxxxxxxxxxx |xxxxxxxxxxxxx |xxxxxxxxxxxxx |            0 |            0 |            0 |            0 |xxxxxxxxxxxxx |xxxxxxxxxxxxx |xxxxxxxxxxxxx |            0 |            0 |            0 |            0 |xxxxxxxxxxxxx |xxxxxxxxxxxxx |xxxxxxxxxxxxx |            0 |            0 |            0 |            0 |xxxxxxxxxxxxx |xxxxxxxxxxxxx |xxxxxxxxxxxxx |            0 |            0 |            0 |            0 |xxxxxxxxxxxxx |xxxxxxxxxxxxx |xxxxxxxxxxxxx |            0 |            0 |            0 |            0 |
bpred_2lev.bpred_addr_rate           xxxxxxxxxxxxx |xxxxxxxxxxxxx |xxxxxxxxxxxxx |       0.7499 |       0.7926 |       0.8130 |       0.8227 |xxxxxxxxxxxxx |xxxxxxxxxxxxx |xxxxxxxxxxxxx |       0.7375 |       0.7660 |       0.7822 |       0.7894 |xxxxxxxxxxxxx |xxxxxxxxxxxxx |xxxxxxxxxxxxx |       0.7359 |       0.7527 |       0.7627 |       0.7663 |xxxxxxxxxxxxx |xxxxxxxxxxxxx |xxxxxxxxxxxxx |       0.7397 |       0.7521 |       0.7585 |       0.7592 |xxxxxxxxxxxxx |xxxxxxxxxxxxx |xxxxxxxxxxxxx |       0.7432 |       0.7552 |       0.7608 |       0.7607 |
bpred_2lev.bpred_dir_rate            xxxxxxxxxxxxx |xxxxxxxxxxxxx |xxxxxxxxxxxxx |       0.7499 |       0.7927 |       0.8130 |       0.8227 |xxxxxxxxxxxxx |xxxxxxxxxxxxx |xxxxxxxxxxxxx |       0.7376 |       0.7660 |       0.7822 |       0.7894 |xxxxxxxxxxxxx |xxxxxxxxxxxxx |xxxxxxxxxxxxx |       0.7359 |       0.7527 |       0.7627 |       0.7663 |xxxxxxxxxxxxx |xxxxxxxxxxxxx |xxxxxxxxxxxxx |       0.7397 |       0.7521 |       0.7585 |       0.7592 |xxxxxxxxxxxxx |xxxxxxxxxxxxx |xxxxxxxxxxxxx |       0.7432 |       0.7552 |       0.7608 |       0.7607 |
bpred_2lev.bpred_jr_rate             xxxxxxxxxxxxx |xxxxxxxxxxxxx |xxxxxxxxxxxxx |       0.9828 |       0.9828 |       0.9828 |       0.9828 |xxxxxxxxxxxxx |xxxxxxxxxxxxx |xxxxxxxxxxxxx |       0.9828 |       0.9828 |       0.9828 |       0.9828 |xxxxxxxxxxxxx |xxxxxxxxxxxxx |xxxxxxxxxxxxx |       0.9828 |       0.9828 |       0.9828 |       0.9828 |xxxxxxxxxxxxx |xxxxxxxxxxxxx |xxxxxxxxxxxxx |       0.9828 |       0.9828 |       0.9828 |       0.9828 |xxxxxxxxxxxxx |xxxxxxxxxxxxx |xxxxxxxxxxxxx |       0.9828 |       0.9828 |       0.9828 |       0.9828 |
bpred_2lev.bpred_jr_non_ras_rate.PP  xxxxxxxxxxxxx |xxxxxxxxxxxxx |xxxxxxxxxxxxx |      <error: |      <error: |      <error: |      <error: |xxxxxxxxxxxxx |xxxxxxxxxxxxx |xxxxxxxxxxxxx |      <error: |      <error: |      <error: |      <error: |xxxxxxxxxxxxx |xxxxxxxxxxxxx |xxxxxxxxxxxxx |      <error: |      <error: |      <error: |      <error: |xxxxxxxxxxxxx |xxxxxxxxxxxxx |xxxxxxxxxxxxx |      <error: |      <error: |      <error: |      <error: |xxxxxxxxxxxxx |xxxxxxxxxxxxx |xxxxxxxxxxxxx |      <error: |      <error: |      <error: |      <error: |
bpred_2lev.retstack_pushes           xxxxxxxxxxxxx |xxxxxxxxxxxxx |xxxxxxxxxxxxx |           60 |           60 |           60 |           60 |xxxxxxxxxxxxx |xxxxxxxxxxxxx |xxxxxxxxxxxxx |           60 |           60 |           60 |           60 |xxxxxxxxxxxxx |xxxxxxxxxxxxx |xxxxxxxxxxxxx |           60 |           60 |           60 |           60 |xxxxxxxxxxxxx |xxxxxxxxxxxxx |xxxxxxxxxxxxx |           60 |           60 |           60 |           60 |xxxxxxxxxxxxx |xxxxxxxxxxxxx |xxxxxxxxxxxxx |           60 |           60 |           60 |           60 |
bpred_2lev.retstack_pops             xxxxxxxxxxxxx |xxxxxxxxxxxxx |xxxxxxxxxxxxx |           58 |           58 |           58 |           58 |xxxxxxxxxxxxx |xxxxxxxxxxxxx |xxxxxxxxxxxxx |           58 |           58 |           58 |           58 |xxxxxxxxxxxxx |xxxxxxxxxxxxx |xxxxxxxxxxxxx |           58 |           58 |           58 |           58 |xxxxxxxxxxxxx |xxxxxxxxxxxxx |xxxxxxxxxxxxx |           58 |           58 |           58 |           58 |xxxxxxxxxxxxx |xxxxxxxxxxxxx |xxxxxxxxxxxxx |           58 |           58 |           58 |           58 |
bpred_2lev.used_ras.PP               xxxxxxxxxxxxx |xxxxxxxxxxxxx |xxxxxxxxxxxxx |           58 |           58 |           58 |           58 |xxxxxxxxxxxxx |xxxxxxxxxxxxx |xxxxxxxxxxxxx |           58 |           58 |           58 |           58 |xxxxxxxxxxxxx |xxxxxxxxxxxxx |xxxxxxxxxxxxx |           58 |           58 |           58 |           58 |xxxxxxxxxxxxx |xxxxxxxxxxxxx |xxxxxxxxxxxxx |           58 |           58 |           58 |           58 |xxxxxxxxxxxxx |xxxxxxxxxxxxx |xxxxxxxxxxxxx |           58 |           58 |           58 |           58 |
bpred_2lev.ras_hits.PP               xxxxxxxxxxxxx |xxxxxxxxxxxxx |xxxxxxxxxxxxx |           57 |           57 |           57 |           57 |xxxxxxxxxxxxx |xxxxxxxxxxxxx |xxxxxxxxxxxxx |           57 |           57 |           57 |           57 |xxxxxxxxxxxxx |xxxxxxxxxxxxx |xxxxxxxxxxxxx |           57 |           57 |           57 |           57 |xxxxxxxxxxxxx |xxxxxxxxxxxxx |xxxxxxxxxxxxx |           57 |           57 |           57 |           57 |xxxxxxxxxxxxx |xxxxxxxxxxxxx |xxxxxxxxxxxxx |           57 |           57 |           57 |           57 |
bpred_2lev.ras_rate.PP               xxxxxxxxxxxxx |xxxxxxxxxxxxx |xxxxxxxxxxxxx |       0.9828 |       0.9828 |       0.9828 |       0.9828 |xxxxxxxxxxxxx |xxxxxxxxxxxxx |xxxxxxxxxxxxx |       0.9828 |       0.9828 |       0.9828 |       0.9828 |xxxxxxxxxxxxx |xxxxxxxxxxxxx |xxxxxxxxxxxxx |       0.9828 |       0.9828 |       0.9828 |       0.9828 |xxxxxxxxxxxxx |xxxxxxxxxxxxx |xxxxxxxxxxxxx |       0.9828 |       0.9828 |       0.9828 |       0.9828 |xxxxxxxxxxxxx |xxxxxxxxxxxxx |xxxxxxxxxxxxx |       0.9828 |       0.9828 |       0.9828 |       0.9828 |

Command list: 
	sslittle-na-sstrix-gcc -Wall -O3 -funroll-loops -finline-functions  -DRANDOM_SIZE=4096 -DOFFSET=5 -DSORT=improved_bubblesort sorts/improved_bubblesort687491456.c simpleMain.c -o improved_bubblesort6403434
	sim-cache -cache:dl1 dl1:256:32:1:l -cache:dl2 dl2:131072:32:1:l -cache:il1 il1:256:32:1:l -cache:il2 dl2 improved_bubblesort6403434
	sim-cache -cache:dl1 dl1:256:32:1:l -cache:dl2 dl2:65536:32:1:l -cache:il1 il1:256:32:1:l -cache:il2 dl2 improved_bubblesort6403434
	sim-cache -cache:dl1 dl1:1:32:256:l -cache:dl2 dl2:1:32:131072:l -cache:il1 il1:1:32:256:l -cache:il2 dl2 improved_bubblesort6403434
	sim-cache -cache:dl1 dl1:1:32:256:l -cache:dl2 dl2:1:32:65536:l -cache:il1 il1:1:32:256:l -cache:il2 dl2 improved_bubblesort6403434
	sim-bpred -bpred bimod -bpred:bimod 512 improved_bubblesort6403434
	sim-bpred -bpred bimod -bpred:bimod 1024 improved_bubblesort6403434
	sim-bpred -bpred bimod -bpred:bimod 2048 improved_bubblesort6403434
	sim-bpred -bpred 2lev -bpred:2lev 1 512 10 1 improved_bubblesort6403434
	sim-bpred -bpred 2lev -bpred:2lev 1 1024 10 1 improved_bubblesort6403434
	sim-bpred -bpred 2lev -bpred:2lev 1 2048 10 1 improved_bubblesort6403434
	sim-bpred -bpred 2lev -bpred:2lev 1 4096 10 1 improved_bubblesort6403434
	sslittle-na-sstrix-gcc -Wall -O3 -funroll-loops -finline-functions  -DRANDOM_SIZE=8192 -DOFFSET=5 -DSORT=improved_bubblesort sorts/improved_bubblesort687491456.c simpleMain.c -o improved_bubblesort6403434
	sim-cache -cache:dl1 dl1:256:32:1:l -cache:dl2 dl2:131072:32:1:l -cache:il1 il1:256:32:1:l -cache:il2 dl2 improved_bubblesort6403434
	sim-cache -cache:dl1 dl1:256:32:1:l -cache:dl2 dl2:65536:32:1:l -cache:il1 il1:256:32:1:l -cache:il2 dl2 improved_bubblesort6403434
	sim-cache -cache:dl1 dl1:1:32:256:l -cache:dl2 dl2:1:32:131072:l -cache:il1 il1:1:32:256:l -cache:il2 dl2 improved_bubblesort6403434
	sim-cache -cache:dl1 dl1:1:32:256:l -cache:dl2 dl2:1:32:65536:l -cache:il1 il1:1:32:256:l -cache:il2 dl2 improved_bubblesort6403434
	sim-bpred -bpred bimod -bpred:bimod 512 improved_bubblesort6403434
	sim-bpred -bpred bimod -bpred:bimod 1024 improved_bubblesort6403434
	sim-bpred -bpred bimod -bpred:bimod 2048 improved_bubblesort6403434
	sim-bpred -bpred 2lev -bpred:2lev 1 512 10 1 improved_bubblesort6403434
	sim-bpred -bpred 2lev -bpred:2lev 1 1024 10 1 improved_bubblesort6403434
	sim-bpred -bpred 2lev -bpred:2lev 1 2048 10 1 improved_bubblesort6403434
	sim-bpred -bpred 2lev -bpred:2lev 1 4096 10 1 improved_bubblesort6403434
	sslittle-na-sstrix-gcc -Wall -O3 -funroll-loops -finline-functions  -DRANDOM_SIZE=16384 -DOFFSET=5 -DSORT=improved_bubblesort sorts/improved_bubblesort687491456.c simpleMain.c -o improved_bubblesort6403434
	sim-cache -cache:dl1 dl1:256:32:1:l -cache:dl2 dl2:131072:32:1:l -cache:il1 il1:256:32:1:l -cache:il2 dl2 improved_bubblesort6403434
	sim-cache -cache:dl1 dl1:256:32:1:l -cache:dl2 dl2:65536:32:1:l -cache:il1 il1:256:32:1:l -cache:il2 dl2 improved_bubblesort6403434
	sim-cache -cache:dl1 dl1:1:32:256:l -cache:dl2 dl2:1:32:131072:l -cache:il1 il1:1:32:256:l -cache:il2 dl2 improved_bubblesort6403434
	sim-cache -cache:dl1 dl1:1:32:256:l -cache:dl2 dl2:1:32:65536:l -cache:il1 il1:1:32:256:l -cache:il2 dl2 improved_bubblesort6403434
	sim-bpred -bpred bimod -bpred:bimod 512 improved_bubblesort6403434
	sim-bpred -bpred bimod -bpred:bimod 1024 improved_bubblesort6403434
	sim-bpred -bpred bimod -bpred:bimod 2048 improved_bubblesort6403434
	sim-bpred -bpred 2lev -bpred:2lev 1 512 10 1 improved_bubblesort6403434
	sim-bpred -bpred 2lev -bpred:2lev 1 1024 10 1 improved_bubblesort6403434
	sim-bpred -bpred 2lev -bpred:2lev 1 2048 10 1 improved_bubblesort6403434
	sim-bpred -bpred 2lev -bpred:2lev 1 4096 10 1 improved_bubblesort6403434
	sslittle-na-sstrix-gcc -Wall -O3 -funroll-loops -finline-functions  -DRANDOM_SIZE=32768 -DOFFSET=5 -DSORT=improved_bubblesort sorts/improved_bubblesort687491456.c simpleMain.c -o improved_bubblesort6403434
	sim-cache -cache:dl1 dl1:256:32:1:l -cache:dl2 dl2:131072:32:1:l -cache:il1 il1:256:32:1:l -cache:il2 dl2 improved_bubblesort6403434
	sim-cache -cache:dl1 dl1:256:32:1:l -cache:dl2 dl2:65536:32:1:l -cache:il1 il1:256:32:1:l -cache:il2 dl2 improved_bubblesort6403434
	sim-cache -cache:dl1 dl1:1:32:256:l -cache:dl2 dl2:1:32:131072:l -cache:il1 il1:1:32:256:l -cache:il2 dl2 improved_bubblesort6403434
	sim-cache -cache:dl1 dl1:1:32:256:l -cache:dl2 dl2:1:32:65536:l -cache:il1 il1:1:32:256:l -cache:il2 dl2 improved_bubblesort6403434
	sim-bpred -bpred bimod -bpred:bimod 512 improved_bubblesort6403434
	sim-bpred -bpred bimod -bpred:bimod 1024 improved_bubblesort6403434
	sim-bpred -bpred bimod -bpred:bimod 2048 improved_bubblesort6403434
	sim-bpred -bpred 2lev -bpred:2lev 1 512 10 1 improved_bubblesort6403434
	sim-bpred -bpred 2lev -bpred:2lev 1 1024 10 1 improved_bubblesort6403434
	sim-bpred -bpred 2lev -bpred:2lev 1 2048 10 1 improved_bubblesort6403434
	sim-bpred -bpred 2lev -bpred:2lev 1 4096 10 1 improved_bubblesort6403434
	sslittle-na-sstrix-gcc -Wall -O3 -funroll-loops -finline-functions  -DRANDOM_SIZE=65536 -DOFFSET=5 -DSORT=improved_bubblesort sorts/improved_bubblesort687491456.c simpleMain.c -o improved_bubblesort6403434
	sim-cache -cache:dl1 dl1:256:32:1:l -cache:dl2 dl2:131072:32:1:l -cache:il1 il1:256:32:1:l -cache:il2 dl2 improved_bubblesort6403434
	sim-cache -cache:dl1 dl1:256:32:1:l -cache:dl2 dl2:65536:32:1:l -cache:il1 il1:256:32:1:l -cache:il2 dl2 improved_bubblesort6403434
	sim-cache -cache:dl1 dl1:1:32:256:l -cache:dl2 dl2:1:32:131072:l -cache:il1 il1:1:32:256:l -cache:il2 dl2 improved_bubblesort6403434
	sim-cache -cache:dl1 dl1:1:32:256:l -cache:dl2 dl2:1:32:65536:l -cache:il1 il1:1:32:256:l -cache:il2 dl2 improved_bubblesort6403434
	sim-bpred -bpred bimod -bpred:bimod 512 improved_bubblesort6403434
	sim-bpred -bpred bimod -bpred:bimod 1024 improved_bubblesort6403434
	sim-bpred -bpred bimod -bpred:bimod 2048 improved_bubblesort6403434
	sim-bpred -bpred 2lev -bpred:2lev 1 512 10 1 improved_bubblesort6403434
	sim-bpred -bpred 2lev -bpred:2lev 1 1024 10 1 improved_bubblesort6403434
	sim-bpred -bpred 2lev -bpred:2lev 1 2048 10 1 improved_bubblesort6403434
	sim-bpred -bpred 2lev -bpred:2lev 1 4096 10 1 improved_bubblesort6403434
