Fri Jul  8 01:20:32 2005
Run as: "./do_simple -c random.org4 -o 4 improved_shellsort"
-------------------------------------------------------------------------------------------------
sim-cache                                     4096 |         4096 |         4096 |         4096 |         8192 |         8192 |         8192 |         8192 |        16384 |        16384 |        16384 |        16384 |        32768 |        32768 |        32768 |        32768 |        65536 |        65536 |        65536 |        65536 |       131072 |       131072 |       131072 |       131072 |       262144 |       262144 |       262144 |       262144 |       524288 |       524288 |       524288 |       524288 |      1048576 |      1048576 |      1048576 |      1048576 |      2097152 |      2097152 |      2097152 |      2097152 |      4194304 |      4194304 |      4194304 |      4194304 |
-cache:dl1 dl1:256:32:1:l -cache:dl2 dl2:131072:32:1:l -cache:il1 il1:256:32:1:l -cache:il2 dl2
-cache:dl1 dl1:256:32:1:l -cache:dl2 dl2:65536:32:1:l -cache:il1 il1:256:32:1:l -cache:il2 dl2
-cache:dl1 dl1:1:32:256:l -cache:dl2 dl2:1:32:131072:l -cache:il1 il1:1:32:256:l -cache:il2 dl2
-cache:dl1 dl1:1:32:256:l -cache:dl2 dl2:1:32:65536:l -cache:il1 il1:1:32:256:l -cache:il2 dl2
-------------------------------------------------------------------------------------------------
sim_num_insn                                900949 |       900949 |       900949 |       900949 |      2012385 |      2012385 |      2012385 |      2012385 |      4578453 |      4578453 |      4578453 |      4578453 |      9978216 |      9978216 |      9978216 |      9978216 |     21220050 |     21220050 |     21220050 |     21220050 |     47301303 |     47301303 |     47301303 |     47301303 |     97544410 |     97544410 |     97544410 |     97544410 |    209246696 |    209246696 |    209246696 |    209246696 |    444324701 |    444324701 |    444324701 |    444324701 |    953999269 |    953999269 |    953999269 |    953999269 |   1993670382 |   1993670382 |   1993670382 |   1993670382 |
sim_num_refs                                192935 |       192935 |       192935 |       192935 |       421933 |       421933 |       421933 |       421933 |       922672 |       922672 |       922672 |       922672 |      1992609 |      1992609 |      1992609 |      1992609 |      4614815 |      4614815 |      4614815 |      4614815 |     10105692 |     10105692 |     10105692 |     10105692 |     20104255 |     20104255 |     20104255 |     20104255 |     42503024 |     42503024 |     42503024 |     42503024 |     88469364 |     88469364 |     88469364 |     88469364 |    190913780 |    190913780 |    190913780 |    190913780 |    386203110 |    386203110 |    386203110 |    386203110 |
sim_elapsed_time                                 1 |            1 |            7 |            4 |            1 |            1 |           10 |            5 |            1 |            1 |           16 |            9 |            3 |            3 |           28 |           15 |            6 |            6 |           52 |           28 |           13 |           13 |           99 |           53 |           26 |           26 |          183 |           93 |           56 |           55 |          321 |          145 |          116 |          116 |          473 |          216 |          250 |          252 |          628 |          368 |          522 |          522 |          934 |          671 |
sim_inst_rate                          900949.0000 |  900949.0000 |  128707.0000 |  225237.2500 | 2012385.0000 | 2012385.0000 |  201238.5000 |  402477.0000 | 4578453.0000 | 4578453.0000 |  286153.3125 |  508717.0000 | 3326072.0000 | 3326072.0000 |  356364.8571 |  665214.4000 | 3536675.0000 | 3536675.0000 |  408077.8846 |  757858.9286 | 3638561.7692 | 3638561.7692 |  477790.9394 |  892477.4151 | 3751708.0769 | 3751708.0769 |  533029.5628 | 1048864.6237 | 3736548.1429 | 3804485.3818 |  651858.8660 | 1443080.6621 | 3830385.3534 | 3830385.3534 |  939375.6892 | 2057058.8009 | 3815997.0760 | 3785711.3849 | 1519107.1162 | 2592389.3179 | 3819291.9195 | 3819291.9195 | 2134550.7302 | 2971192.8197 |
il1.accesses                                900949 |       900949 |       900949 |       900949 |      2012385 |      2012385 |      2012385 |      2012385 |      4578453 |      4578453 |      4578453 |      4578453 |      9978216 |      9978216 |      9978216 |      9978216 |     21220050 |     21220050 |     21220050 |     21220050 |     47301303 |     47301303 |     47301303 |     47301303 |     97544410 |     97544410 |     97544410 |     97544410 |    209246696 |    209246696 |    209246696 |    209246696 |    444324701 |    444324701 |    444324701 |    444324701 |    953999269 |    953999269 |    953999269 |    953999269 |   1993670382 |   1993670382 |   1993670382 |   1993670382 |
il1.hits                                    900525 |       900525 |       900585 |       900585 |      2011959 |      2011959 |      2012019 |      2012019 |      4578036 |      4578036 |      4578090 |      4578090 |      9977789 |      9977789 |      9977849 |      9977849 |     21219623 |     21219623 |     21219683 |     21219683 |     47300877 |     47300877 |     47300937 |     47300937 |     97543984 |     97543984 |     97544044 |     97544044 |    209246270 |    209246270 |    209246330 |    209246330 |    444324275 |    444324275 |    444324335 |    444324335 |    953998843 |    953998843 |    953998903 |    953998903 |   1993669956 |   1993669956 |   1993670016 |   1993670016 |
il1.misses                                     424 |          424 |          364 |          364 |          426 |          426 |          366 |          366 |          417 |          417 |          363 |          363 |          427 |          427 |          367 |          367 |          427 |          427 |          367 |          367 |          426 |          426 |          366 |          366 |          426 |          426 |          366 |          366 |          426 |          426 |          366 |          366 |          426 |          426 |          366 |          366 |          426 |          426 |          366 |          366 |          426 |          426 |          366 |          366 |
il1.replacements                               213 |          213 |          108 |          108 |          213 |          213 |          110 |          110 |          207 |          207 |          107 |          107 |          213 |          213 |          111 |          111 |          213 |          213 |          111 |          111 |          212 |          212 |          110 |          110 |          212 |          212 |          110 |          110 |          212 |          212 |          110 |          110 |          212 |          212 |          110 |          110 |          212 |          212 |          110 |          110 |          212 |          212 |          110 |          110 |
il1.writebacks                                   0 |            0 |            0 |            0 |            0 |            0 |            0 |            0 |            0 |            0 |            0 |            0 |            0 |            0 |            0 |            0 |            0 |            0 |            0 |            0 |            0 |            0 |            0 |            0 |            0 |            0 |            0 |            0 |            0 |            0 |            0 |            0 |            0 |            0 |            0 |            0 |            0 |            0 |            0 |            0 |            0 |            0 |            0 |            0 |
il1.invalidations                                0 |            0 |            0 |            0 |            0 |            0 |            0 |            0 |            0 |            0 |            0 |            0 |            0 |            0 |            0 |            0 |            0 |            0 |            0 |            0 |            0 |            0 |            0 |            0 |            0 |            0 |            0 |            0 |            0 |            0 |            0 |            0 |            0 |            0 |            0 |            0 |            0 |            0 |            0 |            0 |            0 |            0 |            0 |            0 |
il1.miss_rate                               0.0005 |       0.0005 |       0.0004 |       0.0004 |       0.0002 |       0.0002 |       0.0002 |       0.0002 |       0.0001 |       0.0001 |       0.0001 |       0.0001 |       0.0000 |       0.0000 |       0.0000 |       0.0000 |       0.0000 |       0.0000 |       0.0000 |       0.0000 |       0.0000 |       0.0000 |       0.0000 |       0.0000 |       0.0000 |       0.0000 |       0.0000 |       0.0000 |       0.0000 |       0.0000 |       0.0000 |       0.0000 |       0.0000 |       0.0000 |       0.0000 |       0.0000 |       0.0000 |       0.0000 |       0.0000 |       0.0000 |       0.0000 |       0.0000 |       0.0000 |       0.0000 |
il1.repl_rate                               0.0002 |       0.0002 |       0.0001 |       0.0001 |       0.0001 |       0.0001 |       0.0001 |       0.0001 |       0.0000 |       0.0000 |       0.0000 |       0.0000 |       0.0000 |       0.0000 |       0.0000 |       0.0000 |       0.0000 |       0.0000 |       0.0000 |       0.0000 |       0.0000 |       0.0000 |       0.0000 |       0.0000 |       0.0000 |       0.0000 |       0.0000 |       0.0000 |       0.0000 |       0.0000 |       0.0000 |       0.0000 |       0.0000 |       0.0000 |       0.0000 |       0.0000 |       0.0000 |       0.0000 |       0.0000 |       0.0000 |       0.0000 |       0.0000 |       0.0000 |       0.0000 |
il1.wb_rate                                 0.0000 |       0.0000 |       0.0000 |       0.0000 |       0.0000 |       0.0000 |       0.0000 |       0.0000 |       0.0000 |       0.0000 |       0.0000 |       0.0000 |       0.0000 |       0.0000 |       0.0000 |       0.0000 |       0.0000 |       0.0000 |       0.0000 |       0.0000 |       0.0000 |       0.0000 |       0.0000 |       0.0000 |       0.0000 |       0.0000 |       0.0000 |       0.0000 |       0.0000 |       0.0000 |       0.0000 |       0.0000 |       0.0000 |       0.0000 |       0.0000 |       0.0000 |       0.0000 |       0.0000 |       0.0000 |       0.0000 |       0.0000 |       0.0000 |       0.0000 |       0.0000 |
il1.inv_rate                                0.0000 |       0.0000 |       0.0000 |       0.0000 |       0.0000 |       0.0000 |       0.0000 |       0.0000 |       0.0000 |       0.0000 |       0.0000 |       0.0000 |       0.0000 |       0.0000 |       0.0000 |       0.0000 |       0.0000 |       0.0000 |       0.0000 |       0.0000 |       0.0000 |       0.0000 |       0.0000 |       0.0000 |       0.0000 |       0.0000 |       0.0000 |       0.0000 |       0.0000 |       0.0000 |       0.0000 |       0.0000 |       0.0000 |       0.0000 |       0.0000 |       0.0000 |       0.0000 |       0.0000 |       0.0000 |       0.0000 |       0.0000 |       0.0000 |       0.0000 |       0.0000 |
dl1.accesses                                209401 |       209401 |       209401 |       209401 |       454783 |       454783 |       454783 |       454783 |       988290 |       988290 |       988290 |       988290 |      2123763 |      2123763 |      2123763 |      2123763 |      4877041 |      4877041 |      4877041 |      4877041 |     10630062 |     10630062 |     10630062 |     10630062 |     21152913 |     21152913 |     21152913 |     21152913 |     44600258 |     44600258 |     44600258 |     44600258 |     92663750 |     92663750 |     92663750 |     92663750 |    199302470 |    199302470 |    199302470 |    199302470 |    402980408 |    402980408 |    402980408 |    402980408 |
dl1.hits                                    203450 |       203450 |       203047 |       203047 |       439066 |       439066 |       438429 |       438429 |       947522 |       947522 |       946222 |       946222 |      2026647 |      2026647 |      2019818 |      2019818 |      4647785 |      4647785 |      4635229 |      4635229 |     10084124 |     10084124 |     10059361 |     10059361 |     19917702 |     19917702 |     19825458 |     19825458 |     41779129 |     41779129 |     41583930 |     41583930 |     86394491 |     86394491 |     85888805 |     85888805 |    185262841 |    185262841 |    184795075 |    184795075 |    372229666 |    372229666 |    372046147 |    372046147 |
dl1.misses                                    5951 |         5951 |         6354 |         6354 |        15717 |        15717 |        16354 |        16354 |        40768 |        40768 |        42068 |        42068 |        97116 |        97116 |       103945 |       103945 |       229256 |       229256 |       241812 |       241812 |       545938 |       545938 |       570701 |       570701 |      1235211 |      1235211 |      1327455 |      1327455 |      2821129 |      2821129 |      3016328 |      3016328 |      6269259 |      6269259 |      6774945 |      6774945 |     14039629 |     14039629 |     14507395 |     14507395 |     30750742 |     30750742 |     30934261 |     30934261 |
dl1.replacements                              5695 |         5695 |         6098 |         6098 |        15461 |        15461 |        16098 |        16098 |        40512 |        40512 |        41812 |        41812 |        96860 |        96860 |       103689 |       103689 |       229000 |       229000 |       241556 |       241556 |       545682 |       545682 |       570445 |       570445 |      1234955 |      1234955 |      1327199 |      1327199 |      2820873 |      2820873 |      3016072 |      3016072 |      6269003 |      6269003 |      6774689 |      6774689 |     14039373 |     14039373 |     14507139 |     14507139 |     30750486 |     30750486 |     30934005 |     30934005 |
dl1.writebacks                                5594 |         5594 |         5900 |         5900 |        14388 |        14388 |        14910 |        14910 |        36537 |        36537 |        37564 |        37564 |        85867 |        85867 |        91350 |        91350 |       198996 |       198996 |       209614 |       209614 |       469546 |       469546 |       490585 |       490585 |      1059819 |      1059819 |      1136024 |      1136024 |      2404803 |      2404803 |      2568562 |      2568562 |      5338608 |      5338608 |      5750634 |      5750634 |     11914683 |     11914683 |     12304193 |     12304193 |     26058330 |     26058330 |     26182644 |     26182644 |
dl1.invalidations                                0 |            0 |            0 |            0 |            0 |            0 |            0 |            0 |            0 |            0 |            0 |            0 |            0 |            0 |            0 |            0 |            0 |            0 |            0 |            0 |            0 |            0 |            0 |            0 |            0 |            0 |            0 |            0 |            0 |            0 |            0 |            0 |            0 |            0 |            0 |            0 |            0 |            0 |            0 |            0 |            0 |            0 |            0 |            0 |
dl1.miss_rate                               0.0284 |       0.0284 |       0.0303 |       0.0303 |       0.0346 |       0.0346 |       0.0360 |       0.0360 |       0.0413 |       0.0413 |       0.0426 |       0.0426 |       0.0457 |       0.0457 |       0.0489 |       0.0489 |       0.0470 |       0.0470 |       0.0496 |       0.0496 |       0.0514 |       0.0514 |       0.0537 |       0.0537 |       0.0584 |       0.0584 |       0.0628 |       0.0628 |       0.0633 |       0.0633 |       0.0676 |       0.0676 |       0.0677 |       0.0677 |       0.0731 |       0.0731 |       0.0704 |       0.0704 |       0.0728 |       0.0728 |       0.0763 |       0.0763 |       0.0768 |       0.0768 |
dl1.repl_rate                               0.0272 |       0.0272 |       0.0291 |       0.0291 |       0.0340 |       0.0340 |       0.0354 |       0.0354 |       0.0410 |       0.0410 |       0.0423 |       0.0423 |       0.0456 |       0.0456 |       0.0488 |       0.0488 |       0.0470 |       0.0470 |       0.0495 |       0.0495 |       0.0513 |       0.0513 |       0.0537 |       0.0537 |       0.0584 |       0.0584 |       0.0627 |       0.0627 |       0.0632 |       0.0632 |       0.0676 |       0.0676 |       0.0677 |       0.0677 |       0.0731 |       0.0731 |       0.0704 |       0.0704 |       0.0728 |       0.0728 |       0.0763 |       0.0763 |       0.0768 |       0.0768 |
dl1.wb_rate                                 0.0267 |       0.0267 |       0.0282 |       0.0282 |       0.0316 |       0.0316 |       0.0328 |       0.0328 |       0.0370 |       0.0370 |       0.0380 |       0.0380 |       0.0404 |       0.0404 |       0.0430 |       0.0430 |       0.0408 |       0.0408 |       0.0430 |       0.0430 |       0.0442 |       0.0442 |       0.0462 |       0.0462 |       0.0501 |       0.0501 |       0.0537 |       0.0537 |       0.0539 |       0.0539 |       0.0576 |       0.0576 |       0.0576 |       0.0576 |       0.0621 |       0.0621 |       0.0598 |       0.0598 |       0.0617 |       0.0617 |       0.0647 |       0.0647 |       0.0650 |       0.0650 |
dl1.inv_rate                                0.0000 |       0.0000 |       0.0000 |       0.0000 |       0.0000 |       0.0000 |       0.0000 |       0.0000 |       0.0000 |       0.0000 |       0.0000 |       0.0000 |       0.0000 |       0.0000 |       0.0000 |       0.0000 |       0.0000 |       0.0000 |       0.0000 |       0.0000 |       0.0000 |       0.0000 |       0.0000 |       0.0000 |       0.0000 |       0.0000 |       0.0000 |       0.0000 |       0.0000 |       0.0000 |       0.0000 |       0.0000 |       0.0000 |       0.0000 |       0.0000 |       0.0000 |       0.0000 |       0.0000 |       0.0000 |       0.0000 |       0.0000 |       0.0000 |       0.0000 |       0.0000 |
dl2.accesses                                 11969 |        11969 |        12618 |        12618 |        30531 |        30531 |        31630 |        31630 |        77722 |        77722 |        79995 |        79995 |       183410 |       183410 |       195662 |       195662 |       428679 |       428679 |       451793 |       451793 |      1015910 |      1015910 |      1061652 |      1061652 |      2295456 |      2295456 |      2463845 |      2463845 |      5226358 |      5226358 |      5585256 |      5585256 |     11608293 |     11608293 |     12525945 |     12525945 |     25954738 |     25954738 |     26811954 |     26811954 |     56809498 |     56809498 |     57117271 |     57117271 |
dl2.hits                                     10678 |        10678 |        11331 |        11331 |        28726 |        28726 |        29829 |        29829 |        74897 |        74897 |        77176 |        77176 |       178532 |       178532 |       190788 |       190788 |       419705 |       419705 |       442823 |       442823 |       998745 |       998745 |      1044491 |      1044491 |      2261907 |      2261907 |      2430300 |      2430300 |      5160041 |      5159934 |      5518943 |      5285834 |     11476331 |      9281778 |     11914017 |     10096303 |     21039420 |     20217149 |     21691184 |     20912352 |     44805623 |     42893177 |     44791691 |     42850251 |
dl2.misses                                    1291 |         1291 |         1287 |         1287 |         1805 |         1805 |         1801 |         1801 |         2825 |         2825 |         2819 |         2819 |         4878 |         4878 |         4874 |         4874 |         8974 |         8974 |         8970 |         8970 |        17165 |        17165 |        17161 |        17161 |        33549 |        33549 |        33545 |        33545 |        66317 |        66424 |        66313 |       299422 |       131962 |      2326515 |       611928 |      2429642 |      4915318 |      5737589 |      5120770 |      5899602 |     12003875 |     13916321 |     12325580 |     14267020 |
dl2.replacements                                57 |           57 |            0 |            0 |           58 |           58 |            0 |            0 |           63 |           63 |            0 |            0 |           59 |           59 |            0 |            0 |           59 |           59 |            0 |            0 |           59 |           59 |            0 |            0 |           59 |           59 |            0 |            0 |           59 |          888 |            0 |       233886 |          890 |      2260979 |       480856 |      2364106 |      4784246 |      5672053 |      4989698 |      5834066 |     11872803 |     13850785 |     12194508 |     14201484 |
dl2.writebacks                                   2 |            2 |            0 |            0 |            2 |            2 |            0 |            0 |            2 |            2 |            0 |            0 |            2 |            2 |            0 |            0 |            2 |            2 |            0 |            0 |            2 |            2 |            0 |            0 |            2 |            2 |            0 |            0 |            2 |          696 |            0 |       233741 |          696 |      2235368 |       480709 |      2314077 |      4733083 |      5394113 |      4890017 |      5526187 |     11316785 |     12834956 |     11579346 |     13111329 |
dl2.invalidations                                0 |            0 |            0 |            0 |            0 |            0 |            0 |            0 |            0 |            0 |            0 |            0 |            0 |            0 |            0 |            0 |            0 |            0 |            0 |            0 |            0 |            0 |            0 |            0 |            0 |            0 |            0 |            0 |            0 |            0 |            0 |            0 |            0 |            0 |            0 |            0 |            0 |            0 |            0 |            0 |            0 |            0 |            0 |            0 |
dl2.miss_rate                               0.1079 |       0.1079 |       0.1020 |       0.1020 |       0.0591 |       0.0591 |       0.0569 |       0.0569 |       0.0363 |       0.0363 |       0.0352 |       0.0352 |       0.0266 |       0.0266 |       0.0249 |       0.0249 |       0.0209 |       0.0209 |       0.0199 |       0.0199 |       0.0169 |       0.0169 |       0.0162 |       0.0162 |       0.0146 |       0.0146 |       0.0136 |       0.0136 |       0.0127 |       0.0127 |       0.0119 |       0.0536 |       0.0114 |       0.2004 |       0.0489 |       0.1940 |       0.1894 |       0.2211 |       0.1910 |       0.2200 |       0.2113 |       0.2450 |       0.2158 |       0.2498 |
dl2.repl_rate                               0.0048 |       0.0048 |       0.0000 |       0.0000 |       0.0019 |       0.0019 |       0.0000 |       0.0000 |       0.0008 |       0.0008 |       0.0000 |       0.0000 |       0.0003 |       0.0003 |       0.0000 |       0.0000 |       0.0001 |       0.0001 |       0.0000 |       0.0000 |       0.0001 |       0.0001 |       0.0000 |       0.0000 |       0.0000 |       0.0000 |       0.0000 |       0.0000 |       0.0000 |       0.0002 |       0.0000 |       0.0419 |       0.0001 |       0.1948 |       0.0384 |       0.1887 |       0.1843 |       0.2185 |       0.1861 |       0.2176 |       0.2090 |       0.2438 |       0.2135 |       0.2486 |
dl2.wb_rate                                 0.0002 |       0.0002 |       0.0000 |       0.0000 |       0.0001 |       0.0001 |       0.0000 |       0.0000 |       0.0000 |       0.0000 |       0.0000 |       0.0000 |       0.0000 |       0.0000 |       0.0000 |       0.0000 |       0.0000 |       0.0000 |       0.0000 |       0.0000 |       0.0000 |       0.0000 |       0.0000 |       0.0000 |       0.0000 |       0.0000 |       0.0000 |       0.0000 |       0.0000 |       0.0001 |       0.0000 |       0.0418 |       0.0001 |       0.1926 |       0.0384 |       0.1847 |       0.1824 |       0.2078 |       0.1824 |       0.2061 |       0.1992 |       0.2259 |       0.2027 |       0.2296 |
dl2.inv_rate                                0.0000 |       0.0000 |       0.0000 |       0.0000 |       0.0000 |       0.0000 |       0.0000 |       0.0000 |       0.0000 |       0.0000 |       0.0000 |       0.0000 |       0.0000 |       0.0000 |       0.0000 |       0.0000 |       0.0000 |       0.0000 |       0.0000 |       0.0000 |       0.0000 |       0.0000 |       0.0000 |       0.0000 |       0.0000 |       0.0000 |       0.0000 |       0.0000 |       0.0000 |       0.0000 |       0.0000 |       0.0000 |       0.0000 |       0.0000 |       0.0000 |       0.0000 |       0.0000 |       0.0000 |       0.0000 |       0.0000 |       0.0000 |       0.0000 |       0.0000 |       0.0000 |
itlb.accesses                               900949 |       900949 |       900949 |       900949 |      2012385 |      2012385 |      2012385 |      2012385 |      4578453 |      4578453 |      4578453 |      4578453 |      9978216 |      9978216 |      9978216 |      9978216 |     21220050 |     21220050 |     21220050 |     21220050 |     47301303 |     47301303 |     47301303 |     47301303 |     97544410 |     97544410 |     97544410 |     97544410 |    209246696 |    209246696 |    209246696 |    209246696 |    444324701 |    444324701 |    444324701 |    444324701 |    953999269 |    953999269 |    953999269 |    953999269 |   1993670382 |   1993670382 |   1993670382 |   1993670382 |
itlb.hits                                   900940 |       900940 |       900940 |       900940 |      2012376 |      2012376 |      2012376 |      2012376 |      4578444 |      4578444 |      4578444 |      4578444 |      9978206 |      9978206 |      9978206 |      9978206 |     21220040 |     21220040 |     21220040 |     21220040 |     47301293 |     47301293 |     47301293 |     47301293 |     97544400 |     97544400 |     97544400 |     97544400 |    209246686 |    209246686 |    209246686 |    209246686 |    444324691 |    444324691 |    444324691 |    444324691 |    953999259 |    953999259 |    953999259 |    953999259 |   1993670372 |   1993670372 |   1993670372 |   1993670372 |
itlb.misses                                      9 |            9 |            9 |            9 |            9 |            9 |            9 |            9 |            9 |            9 |            9 |            9 |           10 |           10 |           10 |           10 |           10 |           10 |           10 |           10 |           10 |           10 |           10 |           10 |           10 |           10 |           10 |           10 |           10 |           10 |           10 |           10 |           10 |           10 |           10 |           10 |           10 |           10 |           10 |           10 |           10 |           10 |           10 |           10 |
itlb.replacements                                0 |            0 |            0 |            0 |            0 |            0 |            0 |            0 |            0 |            0 |            0 |            0 |            0 |            0 |            0 |            0 |            0 |            0 |            0 |            0 |            0 |            0 |            0 |            0 |            0 |            0 |            0 |            0 |            0 |            0 |            0 |            0 |            0 |            0 |            0 |            0 |            0 |            0 |            0 |            0 |            0 |            0 |            0 |            0 |
itlb.writebacks                                  0 |            0 |            0 |            0 |            0 |            0 |            0 |            0 |            0 |            0 |            0 |            0 |            0 |            0 |            0 |            0 |            0 |            0 |            0 |            0 |            0 |            0 |            0 |            0 |            0 |            0 |            0 |            0 |            0 |            0 |            0 |            0 |            0 |            0 |            0 |            0 |            0 |            0 |            0 |            0 |            0 |            0 |            0 |            0 |
itlb.invalidations                               0 |            0 |            0 |            0 |            0 |            0 |            0 |            0 |            0 |            0 |            0 |            0 |            0 |            0 |            0 |            0 |            0 |            0 |            0 |            0 |            0 |            0 |            0 |            0 |            0 |            0 |            0 |            0 |            0 |            0 |            0 |            0 |            0 |            0 |            0 |            0 |            0 |            0 |            0 |            0 |            0 |            0 |            0 |            0 |
itlb.miss_rate                              0.0000 |       0.0000 |       0.0000 |       0.0000 |       0.0000 |       0.0000 |       0.0000 |       0.0000 |       0.0000 |       0.0000 |       0.0000 |       0.0000 |       0.0000 |       0.0000 |       0.0000 |       0.0000 |       0.0000 |       0.0000 |       0.0000 |       0.0000 |       0.0000 |       0.0000 |       0.0000 |       0.0000 |       0.0000 |       0.0000 |       0.0000 |       0.0000 |       0.0000 |       0.0000 |       0.0000 |       0.0000 |       0.0000 |       0.0000 |       0.0000 |       0.0000 |       0.0000 |       0.0000 |       0.0000 |       0.0000 |       0.0000 |       0.0000 |       0.0000 |       0.0000 |
itlb.repl_rate                              0.0000 |       0.0000 |       0.0000 |       0.0000 |       0.0000 |       0.0000 |       0.0000 |       0.0000 |       0.0000 |       0.0000 |       0.0000 |       0.0000 |       0.0000 |       0.0000 |       0.0000 |       0.0000 |       0.0000 |       0.0000 |       0.0000 |       0.0000 |       0.0000 |       0.0000 |       0.0000 |       0.0000 |       0.0000 |       0.0000 |       0.0000 |       0.0000 |       0.0000 |       0.0000 |       0.0000 |       0.0000 |       0.0000 |       0.0000 |       0.0000 |       0.0000 |       0.0000 |       0.0000 |       0.0000 |       0.0000 |       0.0000 |       0.0000 |       0.0000 |       0.0000 |
itlb.wb_rate                                0.0000 |       0.0000 |       0.0000 |       0.0000 |       0.0000 |       0.0000 |       0.0000 |       0.0000 |       0.0000 |       0.0000 |       0.0000 |       0.0000 |       0.0000 |       0.0000 |       0.0000 |       0.0000 |       0.0000 |       0.0000 |       0.0000 |       0.0000 |       0.0000 |       0.0000 |       0.0000 |       0.0000 |       0.0000 |       0.0000 |       0.0000 |       0.0000 |       0.0000 |       0.0000 |       0.0000 |       0.0000 |       0.0000 |       0.0000 |       0.0000 |       0.0000 |       0.0000 |       0.0000 |       0.0000 |       0.0000 |       0.0000 |       0.0000 |       0.0000 |       0.0000 |
itlb.inv_rate                               0.0000 |       0.0000 |       0.0000 |       0.0000 |       0.0000 |       0.0000 |       0.0000 |       0.0000 |       0.0000 |       0.0000 |       0.0000 |       0.0000 |       0.0000 |       0.0000 |       0.0000 |       0.0000 |       0.0000 |       0.0000 |       0.0000 |       0.0000 |       0.0000 |       0.0000 |       0.0000 |       0.0000 |       0.0000 |       0.0000 |       0.0000 |       0.0000 |       0.0000 |       0.0000 |       0.0000 |       0.0000 |       0.0000 |       0.0000 |       0.0000 |       0.0000 |       0.0000 |       0.0000 |       0.0000 |       0.0000 |       0.0000 |       0.0000 |       0.0000 |       0.0000 |
dtlb.accesses                               209401 |       209401 |       209401 |       209401 |       454783 |       454783 |       454783 |       454783 |       988290 |       988290 |       988290 |       988290 |      2123763 |      2123763 |      2123763 |      2123763 |      4877041 |      4877041 |      4877041 |      4877041 |     10630062 |     10630062 |     10630062 |     10630062 |     21152913 |     21152913 |     21152913 |     21152913 |     44600258 |     44600258 |     44600258 |     44600258 |     92663750 |     92663750 |     92663750 |     92663750 |    199302470 |    199302470 |    199302470 |    199302470 |    402980408 |    402980408 |    402980408 |    402980408 |
dtlb.hits                                   209390 |       209390 |       209390 |       209390 |       454768 |       454768 |       454768 |       454768 |       988267 |       988267 |       988267 |       988267 |      2123724 |      2123724 |      2123724 |      2123724 |      4876970 |      4876970 |      4876970 |      4876970 |     10629864 |     10629864 |     10629864 |     10629864 |     21147903 |     21147903 |     21147903 |     21147903 |     44585825 |     44585825 |     44585825 |     44585825 |     92516630 |     92516630 |     92516630 |     92516630 |    199206489 |    199206489 |    199206489 |    199206489 |    402747411 |    402747411 |    402747411 |    402747411 |
dtlb.misses                                     11 |           11 |           11 |           11 |           15 |           15 |           15 |           15 |           23 |           23 |           23 |           23 |           39 |           39 |           39 |           39 |           71 |           71 |           71 |           71 |          198 |          198 |          198 |          198 |         5010 |         5010 |         5010 |         5010 |        14433 |        14433 |        14433 |        14433 |       147120 |       147120 |       147120 |       147120 |        95981 |        95981 |        95981 |        95981 |       232997 |       232997 |       232997 |       232997 |
dtlb.replacements                                0 |            0 |            0 |            0 |            0 |            0 |            0 |            0 |            0 |            0 |            0 |            0 |            0 |            0 |            0 |            0 |            0 |            0 |            0 |            0 |           70 |           70 |           70 |           70 |         4882 |         4882 |         4882 |         4882 |        14305 |        14305 |        14305 |        14305 |       146992 |       146992 |       146992 |       146992 |        95853 |        95853 |        95853 |        95853 |       232869 |       232869 |       232869 |       232869 |
dtlb.writebacks                                  0 |            0 |            0 |            0 |            0 |            0 |            0 |            0 |            0 |            0 |            0 |            0 |            0 |            0 |            0 |            0 |            0 |            0 |            0 |            0 |           68 |           68 |           68 |           68 |         4802 |         4802 |         4802 |         4802 |        13739 |        13739 |        13739 |        13739 |       125609 |       125609 |       125609 |       125609 |        90021 |        90021 |        90021 |        90021 |       217191 |       217191 |       217191 |       217191 |
dtlb.invalidations                               0 |            0 |            0 |            0 |            0 |            0 |            0 |            0 |            0 |            0 |            0 |            0 |            0 |            0 |            0 |            0 |            0 |            0 |            0 |            0 |            0 |            0 |            0 |            0 |            0 |            0 |            0 |            0 |            0 |            0 |            0 |            0 |            0 |            0 |            0 |            0 |            0 |            0 |            0 |            0 |            0 |            0 |            0 |            0 |
dtlb.miss_rate                              0.0001 |       0.0001 |       0.0001 |       0.0001 |       0.0000 |       0.0000 |       0.0000 |       0.0000 |       0.0000 |       0.0000 |       0.0000 |       0.0000 |       0.0000 |       0.0000 |       0.0000 |       0.0000 |       0.0000 |       0.0000 |       0.0000 |       0.0000 |       0.0000 |       0.0000 |       0.0000 |       0.0000 |       0.0002 |       0.0002 |       0.0002 |       0.0002 |       0.0003 |       0.0003 |       0.0003 |       0.0003 |       0.0016 |       0.0016 |       0.0016 |       0.0016 |       0.0005 |       0.0005 |       0.0005 |       0.0005 |       0.0006 |       0.0006 |       0.0006 |       0.0006 |
dtlb.repl_rate                              0.0000 |       0.0000 |       0.0000 |       0.0000 |       0.0000 |       0.0000 |       0.0000 |       0.0000 |       0.0000 |       0.0000 |       0.0000 |       0.0000 |       0.0000 |       0.0000 |       0.0000 |       0.0000 |       0.0000 |       0.0000 |       0.0000 |       0.0000 |       0.0000 |       0.0000 |       0.0000 |       0.0000 |       0.0002 |       0.0002 |       0.0002 |       0.0002 |       0.0003 |       0.0003 |       0.0003 |       0.0003 |       0.0016 |       0.0016 |       0.0016 |       0.0016 |       0.0005 |       0.0005 |       0.0005 |       0.0005 |       0.0006 |       0.0006 |       0.0006 |       0.0006 |
dtlb.wb_rate                                0.0000 |       0.0000 |       0.0000 |       0.0000 |       0.0000 |       0.0000 |       0.0000 |       0.0000 |       0.0000 |       0.0000 |       0.0000 |       0.0000 |       0.0000 |       0.0000 |       0.0000 |       0.0000 |       0.0000 |       0.0000 |       0.0000 |       0.0000 |       0.0000 |       0.0000 |       0.0000 |       0.0000 |       0.0002 |       0.0002 |       0.0002 |       0.0002 |       0.0003 |       0.0003 |       0.0003 |       0.0003 |       0.0014 |       0.0014 |       0.0014 |       0.0014 |       0.0005 |       0.0005 |       0.0005 |       0.0005 |       0.0005 |       0.0005 |       0.0005 |       0.0005 |
dtlb.inv_rate                               0.0000 |       0.0000 |       0.0000 |       0.0000 |       0.0000 |       0.0000 |       0.0000 |       0.0000 |       0.0000 |       0.0000 |       0.0000 |       0.0000 |       0.0000 |       0.0000 |       0.0000 |       0.0000 |       0.0000 |       0.0000 |       0.0000 |       0.0000 |       0.0000 |       0.0000 |       0.0000 |       0.0000 |       0.0000 |       0.0000 |       0.0000 |       0.0000 |       0.0000 |       0.0000 |       0.0000 |       0.0000 |       0.0000 |       0.0000 |       0.0000 |       0.0000 |       0.0000 |       0.0000 |       0.0000 |       0.0000 |       0.0000 |       0.0000 |       0.0000 |       0.0000 |
ld_text_base                            0x00400000 |   0x00400000 |   0x00400000 |   0x00400000 |   0x00400000 |   0x00400000 |   0x00400000 |   0x00400000 |   0x00400000 |   0x00400000 |   0x00400000 |   0x00400000 |   0x00400000 |   0x00400000 |   0x00400000 |   0x00400000 |   0x00400000 |   0x00400000 |   0x00400000 |   0x00400000 |   0x00400000 |   0x00400000 |   0x00400000 |   0x00400000 |   0x00400000 |   0x00400000 |   0x00400000 |   0x00400000 |   0x00400000 |   0x00400000 |   0x00400000 |   0x00400000 |   0x00400000 |   0x00400000 |   0x00400000 |   0x00400000 |   0x00400000 |   0x00400000 |   0x00400000 |   0x00400000 |   0x00400000 |   0x00400000 |   0x00400000 |   0x00400000 |
ld_text_size                                 72720 |        72720 |        72720 |        72720 |        72752 |        72752 |        72752 |        72752 |        72768 |        72768 |        72768 |        72768 |        72784 |        72784 |        72784 |        72784 |        72784 |        72784 |        72784 |        72784 |        72784 |        72784 |        72784 |        72784 |        72784 |        72784 |        72784 |        72784 |        72784 |        72784 |        72784 |        72784 |        72784 |        72784 |        72784 |        72784 |        72784 |        72784 |        72784 |        72784 |        72784 |        72784 |        72784 |        72784 |
ld_data_base                            0x10000000 |   0x10000000 |   0x10000000 |   0x10000000 |   0x10000000 |   0x10000000 |   0x10000000 |   0x10000000 |   0x10000000 |   0x10000000 |   0x10000000 |   0x10000000 |   0x10000000 |   0x10000000 |   0x10000000 |   0x10000000 |   0x10000000 |   0x10000000 |   0x10000000 |   0x10000000 |   0x10000000 |   0x10000000 |   0x10000000 |   0x10000000 |   0x10000000 |   0x10000000 |   0x10000000 |   0x10000000 |   0x10000000 |   0x10000000 |   0x10000000 |   0x10000000 |   0x10000000 |   0x10000000 |   0x10000000 |   0x10000000 |   0x10000000 |   0x10000000 |   0x10000000 |   0x10000000 |   0x10000000 |   0x10000000 |   0x10000000 |   0x10000000 |
ld_data_size                                  8192 |         8192 |         8192 |         8192 |         8192 |         8192 |         8192 |         8192 |         8192 |         8192 |         8192 |         8192 |         8192 |         8192 |         8192 |         8192 |         8192 |         8192 |         8192 |         8192 |         8192 |         8192 |         8192 |         8192 |         8192 |         8192 |         8192 |         8192 |         8192 |         8192 |         8192 |         8192 |         8192 |         8192 |         8192 |         8192 |         8192 |         8192 |         8192 |         8192 |         8192 |         8192 |         8192 |         8192 |
ld_stack_base                           0x7fffc000 |   0x7fffc000 |   0x7fffc000 |   0x7fffc000 |   0x7fffc000 |   0x7fffc000 |   0x7fffc000 |   0x7fffc000 |   0x7fffc000 |   0x7fffc000 |   0x7fffc000 |   0x7fffc000 |   0x7fffc000 |   0x7fffc000 |   0x7fffc000 |   0x7fffc000 |   0x7fffc000 |   0x7fffc000 |   0x7fffc000 |   0x7fffc000 |   0x7fffc000 |   0x7fffc000 |   0x7fffc000 |   0x7fffc000 |   0x7fffc000 |   0x7fffc000 |   0x7fffc000 |   0x7fffc000 |   0x7fffc000 |   0x7fffc000 |   0x7fffc000 |   0x7fffc000 |   0x7fffc000 |   0x7fffc000 |   0x7fffc000 |   0x7fffc000 |   0x7fffc000 |   0x7fffc000 |   0x7fffc000 |   0x7fffc000 |   0x7fffc000 |   0x7fffc000 |   0x7fffc000 |   0x7fffc000 |
ld_stack_size                                16384 |        16384 |        16384 |        16384 |        16384 |        16384 |        16384 |        16384 |        16384 |        16384 |        16384 |        16384 |        16384 |        16384 |        16384 |        16384 |        16384 |        16384 |        16384 |        16384 |        16384 |        16384 |        16384 |        16384 |        16384 |        16384 |        16384 |        16384 |        16384 |        16384 |        16384 |        16384 |        16384 |        16384 |        16384 |        16384 |        16384 |        16384 |        16384 |        16384 |        16384 |        16384 |        16384 |        16384 |
ld_prog_entry                           0x00400140 |   0x00400140 |   0x00400140 |   0x00400140 |   0x00400140 |   0x00400140 |   0x00400140 |   0x00400140 |   0x00400140 |   0x00400140 |   0x00400140 |   0x00400140 |   0x00400140 |   0x00400140 |   0x00400140 |   0x00400140 |   0x00400140 |   0x00400140 |   0x00400140 |   0x00400140 |   0x00400140 |   0x00400140 |   0x00400140 |   0x00400140 |   0x00400140 |   0x00400140 |   0x00400140 |   0x00400140 |   0x00400140 |   0x00400140 |   0x00400140 |   0x00400140 |   0x00400140 |   0x00400140 |   0x00400140 |   0x00400140 |   0x00400140 |   0x00400140 |   0x00400140 |   0x00400140 |   0x00400140 |   0x00400140 |   0x00400140 |   0x00400140 |
ld_environ_base                         0x7fff8000 |   0x7fff8000 |   0x7fff8000 |   0x7fff8000 |   0x7fff8000 |   0x7fff8000 |   0x7fff8000 |   0x7fff8000 |   0x7fff8000 |   0x7fff8000 |   0x7fff8000 |   0x7fff8000 |   0x7fff8000 |   0x7fff8000 |   0x7fff8000 |   0x7fff8000 |   0x7fff8000 |   0x7fff8000 |   0x7fff8000 |   0x7fff8000 |   0x7fff8000 |   0x7fff8000 |   0x7fff8000 |   0x7fff8000 |   0x7fff8000 |   0x7fff8000 |   0x7fff8000 |   0x7fff8000 |   0x7fff8000 |   0x7fff8000 |   0x7fff8000 |   0x7fff8000 |   0x7fff8000 |   0x7fff8000 |   0x7fff8000 |   0x7fff8000 |   0x7fff8000 |   0x7fff8000 |   0x7fff8000 |   0x7fff8000 |   0x7fff8000 |   0x7fff8000 |   0x7fff8000 |   0x7fff8000 |
ld_target_big_endian                             0 |            0 |            0 |            0 |            0 |            0 |            0 |            0 |            0 |            0 |            0 |            0 |            0 |            0 |            0 |            0 |            0 |            0 |            0 |            0 |            0 |            0 |            0 |            0 |            0 |            0 |            0 |            0 |            0 |            0 |            0 |            0 |            0 |            0 |            0 |            0 |            0 |            0 |            0 |            0 |            0 |            0 |            0 |            0 |
mem.page_count                                  29 |           29 |           29 |           29 |           33 |           33 |           33 |           33 |           41 |           41 |           41 |           41 |           57 |           57 |           57 |           57 |           89 |           89 |           89 |           89 |          153 |          153 |          153 |          153 |          281 |          281 |          281 |          281 |          537 |          537 |          537 |          537 |         1049 |         1049 |         1049 |         1049 |         2073 |         2073 |         2073 |         2073 |         4121 |         4121 |         4121 |         4121 |
mem.page_mem                                  116k |         116k |         116k |         116k |         132k |         132k |         132k |         132k |         164k |         164k |         164k |         164k |         228k |         228k |         228k |         228k |         356k |         356k |         356k |         356k |         612k |         612k |         612k |         612k |        1124k |        1124k |        1124k |        1124k |        2148k |        2148k |        2148k |        2148k |        4196k |        4196k |        4196k |        4196k |        8292k |        8292k |        8292k |        8292k |       16484k |       16484k |       16484k |       16484k |
mem.ptab_misses                                 29 |           29 |           29 |           29 |           33 |           33 |           33 |           33 |           41 |           41 |           41 |           41 |           57 |           57 |           57 |           57 |           89 |           89 |           89 |           89 |          153 |          153 |          153 |          153 |          281 |          281 |          281 |          281 |          537 |          537 |          537 |          537 |         1049 |         1049 |         1049 |         1049 |         2073 |         2073 |         2073 |         2073 |         4121 |         4121 |         4121 |         4121 |
mem.ptab_accesses                          4473514 |      4473514 |      4473514 |      4473514 |      9410214 |      9410214 |      9410214 |      9410214 |     20741596 |     20741596 |     20741596 |     20741596 |     44611690 |     44611690 |     44611690 |     44611690 |     95085582 |     95085582 |     95085582 |     95085582 |    210916636 |    210916636 |    210916636 |    210916636 |    432934766 |    432934766 |    432934766 |    432934766 |    926638600 |    926638600 |    926638600 |    926638600 |   1963077604 |   1963077604 |   1963077604 |   1963077604 |   4215053316 |   4215053316 |   4215053316 |   4215053316 |   8781093644 |   8781093644 |   8781093644 |   8781093644 |
mem.ptab_miss_rate                          0.0000 |       0.0000 |       0.0000 |       0.0000 |       0.0000 |       0.0000 |       0.0000 |       0.0000 |       0.0000 |       0.0000 |       0.0000 |       0.0000 |       0.0000 |       0.0000 |       0.0000 |       0.0000 |       0.0000 |       0.0000 |       0.0000 |       0.0000 |       0.0000 |       0.0000 |       0.0000 |       0.0000 |       0.0000 |       0.0000 |       0.0000 |       0.0000 |       0.0000 |       0.0000 |       0.0000 |       0.0000 |       0.0000 |       0.0000 |       0.0000 |       0.0000 |       0.0000 |       0.0000 |       0.0000 |       0.0000 |       0.0000 |       0.0000 |       0.0000 |       0.0000 |
-------------------------------------------------------------------------------------------------
sim-bpred                                     4096 |         4096 |         4096 |         4096 |         4096 |         4096 |         4096 |         8192 |         8192 |         8192 |         8192 |         8192 |         8192 |         8192 |        16384 |        16384 |        16384 |        16384 |        16384 |        16384 |        16384 |        32768 |        32768 |        32768 |        32768 |        32768 |        32768 |        32768 |        65536 |        65536 |        65536 |        65536 |        65536 |        65536 |        65536 |       131072 |       131072 |       131072 |       131072 |       131072 |       131072 |       131072 |       262144 |       262144 |       262144 |       262144 |       262144 |       262144 |       262144 |       524288 |       524288 |       524288 |       524288 |       524288 |       524288 |       524288 |      1048576 |      1048576 |      1048576 |      1048576 |      1048576 |      1048576 |      1048576 |      2097152 |      2097152 |      2097152 |      2097152 |      2097152 |      2097152 |      2097152 |      4194304 |      4194304 |      4194304 |      4194304 |      4194304 |      4194304 |      4194304 |
-bpred bimod -bpred:bimod 512
-bpred bimod -bpred:bimod 1024
-bpred bimod -bpred:bimod 2048
-bpred 2lev -bpred:2lev 1 512 10 1
-bpred 2lev -bpred:2lev 1 1024 10 1
-bpred 2lev -bpred:2lev 1 2048 10 1
-bpred 2lev -bpred:2lev 1 4096 10 1
-------------------------------------------------------------------------------------------------
sim_num_insn                                900949 |       900949 |       900949 |       900949 |       900949 |       900949 |       900949 |      2012385 |      2012385 |      2012385 |      2012385 |      2012385 |      2012385 |      2012385 |      4578453 |      4578453 |      4578453 |      4578453 |      4578453 |      4578453 |      4578453 |      9978216 |      9978216 |      9978216 |      9978216 |      9978216 |      9978216 |      9978216 |     21220050 |     21220050 |     21220050 |     21220050 |     21220050 |     21220050 |     21220050 |     47301303 |     47301303 |     47301303 |     47301303 |     47301303 |     47301303 |     47301303 |     97544410 |     97544410 |     97544410 |     97544410 |     97544410 |     97544410 |     97544410 |    209246696 |    209246696 |    209246696 |    209246696 |    209246696 |    209246696 |    209246696 |    444324701 |    444324701 |    444324701 |    444324701 |    444324701 |    444324701 |    444324701 |    953999269 |    953999269 |    953999269 |    953999269 |    953999269 |    953999269 |    953999269 |   1993670382 |   1993670382 |   1993670382 |   1993670382 |   1993670382 |   1993670382 |   1993670382 |
sim_num_refs                                192935 |       192935 |       192935 |       192935 |       192935 |       192935 |       192935 |       421933 |       421933 |       421933 |       421933 |       421933 |       421933 |       421933 |       922672 |       922672 |       922672 |       922672 |       922672 |       922672 |       922672 |      1992609 |      1992609 |      1992609 |      1992609 |      1992609 |      1992609 |      1992609 |      4614815 |      4614815 |      4614815 |      4614815 |      4614815 |      4614815 |      4614815 |     10105692 |     10105692 |     10105692 |     10105692 |     10105692 |     10105692 |     10105692 |     20104255 |     20104255 |     20104255 |     20104255 |     20104255 |     20104255 |     20104255 |     42503024 |     42503024 |     42503024 |     42503024 |     42503024 |     42503024 |     42503024 |     88469364 |     88469364 |     88469364 |     88469364 |     88469364 |     88469364 |     88469364 |    190913780 |    190913780 |    190913780 |    190913780 |    190913780 |    190913780 |    190913780 |    386203110 |    386203110 |    386203110 |    386203110 |    386203110 |    386203110 |    386203110 |
sim_elapsed_time                                 1 |            1 |            1 |            1 |            1 |            1 |            1 |            1 |            1 |            1 |            1 |            1 |            1 |            1 |            1 |            1 |            1 |            1 |            1 |            1 |            1 |            1 |            1 |            1 |            1 |            1 |            2 |            1 |            3 |            2 |            3 |            2 |            3 |            3 |            2 |            5 |            6 |            6 |            5 |            5 |            6 |            6 |           12 |           12 |           12 |           12 |           12 |           12 |           12 |           25 |           26 |           25 |           25 |           26 |           26 |           25 |           54 |           53 |           54 |           55 |           54 |           55 |           55 |          114 |          116 |          114 |          118 |          117 |          118 |          117 |          240 |          240 |          240 |          245 |          244 |          245 |          244 |
sim_inst_rate                          900949.0000 |  900949.0000 |  900949.0000 |  900949.0000 |  900949.0000 |  900949.0000 |  900949.0000 | 2012385.0000 | 2012385.0000 | 2012385.0000 | 2012385.0000 | 2012385.0000 | 2012385.0000 | 2012385.0000 | 4578453.0000 | 4578453.0000 | 4578453.0000 | 4578453.0000 | 4578453.0000 | 4578453.0000 | 4578453.0000 | 9978216.0000 | 9978216.0000 | 9978216.0000 | 9978216.0000 | 9978216.0000 | 4989108.0000 | 9978216.0000 | 7073350.0000 |10610025.0000 | 7073350.0000 |10610025.0000 | 7073350.0000 | 7073350.0000 |10610025.0000 | 9460260.6000 | 7883550.5000 | 7883550.5000 | 9460260.6000 | 9460260.6000 | 7883550.5000 | 7883550.5000 | 8128700.8333 | 8128700.8333 | 8128700.8333 | 8128700.8333 | 8128700.8333 | 8128700.8333 | 8128700.8333 | 8369867.8400 | 8047949.8462 | 8369867.8400 | 8369867.8400 | 8047949.8462 | 8047949.8462 | 8369867.8400 | 8228235.2037 | 8383484.9245 | 8228235.2037 | 8078630.9273 | 8228235.2037 | 8078630.9273 | 8078630.9273 | 8368414.6404 | 8224131.6293 | 8368414.6404 | 8084739.5678 | 8153839.9060 | 8084739.5678 | 8153839.9060 | 8306959.9250 | 8306959.9250 | 8306959.9250 | 8137430.1306 | 8170780.2541 | 8137430.1306 | 8170780.2541 |
sim_num_branches                            145497 |       145497 |       145497 |       145497 |       145497 |       145497 |       145497 |       326416 |       326416 |       326416 |       326416 |       326416 |       326416 |       326416 |       747138 |       747138 |       747138 |       747138 |       747138 |       747138 |       747138 |      1631771 |      1631771 |      1631771 |      1631771 |      1631771 |      1631771 |      1631771 |      3436117 |      3436117 |      3436117 |      3436117 |      3436117 |      3436117 |      3436117 |      7682466 |      7682466 |      7682466 |      7682466 |      7682466 |      7682466 |      7682466 |     15921525 |     15921525 |     15921525 |     15921525 |     15921525 |     15921525 |     15921525 |     34232510 |     34232510 |     34232510 |     34232510 |     34232510 |     34232510 |     34232510 |     72894502 |     72894502 |     72894502 |     72894502 |     72894502 |     72894502 |     72894502 |    156495733 |    156495733 |    156495733 |    156495733 |    156495733 |    156495733 |    156495733 |    328361103 |    328361103 |    328361103 |    328361103 |    328361103 |    328361103 |    328361103 |
sim_IPB                                     6.1922 |       6.1922 |       6.1922 |       6.1922 |       6.1922 |       6.1922 |       6.1922 |       6.1651 |       6.1651 |       6.1651 |       6.1651 |       6.1651 |       6.1651 |       6.1651 |       6.1280 |       6.1280 |       6.1280 |       6.1280 |       6.1280 |       6.1280 |       6.1280 |       6.1150 |       6.1150 |       6.1150 |       6.1150 |       6.1150 |       6.1150 |       6.1150 |       6.1756 |       6.1756 |       6.1756 |       6.1756 |       6.1756 |       6.1756 |       6.1756 |       6.1570 |       6.1570 |       6.1570 |       6.1570 |       6.1570 |       6.1570 |       6.1570 |       6.1266 |       6.1266 |       6.1266 |       6.1266 |       6.1266 |       6.1266 |       6.1266 |       6.1125 |       6.1125 |       6.1125 |       6.1125 |       6.1125 |       6.1125 |       6.1125 |       6.0954 |       6.0954 |       6.0954 |       6.0954 |       6.0954 |       6.0954 |       6.0954 |       6.0960 |       6.0960 |       6.0960 |       6.0960 |       6.0960 |       6.0960 |       6.0960 |       6.0716 |       6.0716 |       6.0716 |       6.0716 |       6.0716 |       6.0716 |       6.0716 |
bpred_bimod.lookups                         145497 |       145497 |       145497 |xxxxxxxxxxxxx |xxxxxxxxxxxxx |xxxxxxxxxxxxx |xxxxxxxxxxxxx |       326416 |       326416 |       326416 |xxxxxxxxxxxxx |xxxxxxxxxxxxx |xxxxxxxxxxxxx |xxxxxxxxxxxxx |       747138 |       747138 |       747138 |xxxxxxxxxxxxx |xxxxxxxxxxxxx |xxxxxxxxxxxxx |xxxxxxxxxxxxx |      1631771 |      1631771 |      1631771 |xxxxxxxxxxxxx |xxxxxxxxxxxxx |xxxxxxxxxxxxx |xxxxxxxxxxxxx |      3436117 |      3436117 |      3436117 |xxxxxxxxxxxxx |xxxxxxxxxxxxx |xxxxxxxxxxxxx |xxxxxxxxxxxxx |      7682466 |      7682466 |      7682466 |xxxxxxxxxxxxx |xxxxxxxxxxxxx |xxxxxxxxxxxxx |xxxxxxxxxxxxx |     15921525 |     15921525 |     15921525 |xxxxxxxxxxxxx |xxxxxxxxxxxxx |xxxxxxxxxxxxx |xxxxxxxxxxxxx |     34232510 |     34232510 |     34232510 |xxxxxxxxxxxxx |xxxxxxxxxxxxx |xxxxxxxxxxxxx |xxxxxxxxxxxxx |     72894502 |     72894502 |     72894502 |xxxxxxxxxxxxx |xxxxxxxxxxxxx |xxxxxxxxxxxxx |xxxxxxxxxxxxx |    156495733 |    156495733 |    156495733 |xxxxxxxxxxxxx |xxxxxxxxxxxxx |xxxxxxxxxxxxx |xxxxxxxxxxxxx |    328361103 |    328361103 |    328361103 |
bpred_bimod.updates                         145497 |       145497 |       145497 |xxxxxxxxxxxxx |xxxxxxxxxxxxx |xxxxxxxxxxxxx |xxxxxxxxxxxxx |       326416 |       326416 |       326416 |xxxxxxxxxxxxx |xxxxxxxxxxxxx |xxxxxxxxxxxxx |xxxxxxxxxxxxx |       747138 |       747138 |       747138 |xxxxxxxxxxxxx |xxxxxxxxxxxxx |xxxxxxxxxxxxx |xxxxxxxxxxxxx |      1631771 |      1631771 |      1631771 |xxxxxxxxxxxxx |xxxxxxxxxxxxx |xxxxxxxxxxxxx |xxxxxxxxxxxxx |      3436117 |      3436117 |      3436117 |xxxxxxxxxxxxx |xxxxxxxxxxxxx |xxxxxxxxxxxxx |xxxxxxxxxxxxx |      7682466 |      7682466 |      7682466 |xxxxxxxxxxxxx |xxxxxxxxxxxxx |xxxxxxxxxxxxx |xxxxxxxxxxxxx |     15921525 |     15921525 |     15921525 |xxxxxxxxxxxxx |xxxxxxxxxxxxx |xxxxxxxxxxxxx |xxxxxxxxxxxxx |     34232510 |     34232510 |     34232510 |xxxxxxxxxxxxx |xxxxxxxxxxxxx |xxxxxxxxxxxxx |xxxxxxxxxxxxx |     72894502 |     72894502 |     72894502 |xxxxxxxxxxxxx |xxxxxxxxxxxxx |xxxxxxxxxxxxx |xxxxxxxxxxxxx |    156495733 |    156495733 |    156495733 |xxxxxxxxxxxxx |xxxxxxxxxxxxx |xxxxxxxxxxxxx |xxxxxxxxxxxxx |    328361103 |    328361103 |    328361103 |
bpred_bimod.addr_hits                       111724 |       111726 |       111728 |xxxxxxxxxxxxx |xxxxxxxxxxxxx |xxxxxxxxxxxxx |xxxxxxxxxxxxx |       251330 |       251335 |       251335 |xxxxxxxxxxxxx |xxxxxxxxxxxxx |xxxxxxxxxxxxx |xxxxxxxxxxxxx |       573683 |       573687 |       573687 |xxxxxxxxxxxxx |xxxxxxxxxxxxx |xxxxxxxxxxxxx |xxxxxxxxxxxxx |      1254164 |      1254167 |      1254168 |xxxxxxxxxxxxx |xxxxxxxxxxxxx |xxxxxxxxxxxxx |xxxxxxxxxxxxx |      2692873 |      2692876 |      2692877 |xxxxxxxxxxxxx |xxxxxxxxxxxxx |xxxxxxxxxxxxx |xxxxxxxxxxxxx |      6046195 |      6046198 |      6046199 |xxxxxxxxxxxxx |xxxxxxxxxxxxx |xxxxxxxxxxxxx |xxxxxxxxxxxxx |     12370414 |     12370417 |     12370417 |xxxxxxxxxxxxx |xxxxxxxxxxxxx |xxxxxxxxxxxxx |xxxxxxxxxxxxx |     26524410 |     26524413 |     26524413 |xxxxxxxxxxxxx |xxxxxxxxxxxxx |xxxxxxxxxxxxx |xxxxxxxxxxxxx |     56221728 |     56221730 |     56221731 |xxxxxxxxxxxxx |xxxxxxxxxxxxx |xxxxxxxxxxxxx |xxxxxxxxxxxxx |    120986910 |    120986912 |    120986913 |xxxxxxxxxxxxx |xxxxxxxxxxxxx |xxxxxxxxxxxxx |xxxxxxxxxxxxx |    252608660 |    252608663 |    252608664 |
bpred_bimod.dir_hits                        111826 |       111825 |       111825 |xxxxxxxxxxxxx |xxxxxxxxxxxxx |xxxxxxxxxxxxx |xxxxxxxxxxxxx |       251429 |       251433 |       251432 |xxxxxxxxxxxxx |xxxxxxxxxxxxx |xxxxxxxxxxxxx |xxxxxxxxxxxxx |       573784 |       573787 |       573784 |xxxxxxxxxxxxx |xxxxxxxxxxxxx |xxxxxxxxxxxxx |xxxxxxxxxxxxx |      1254266 |      1254268 |      1254267 |xxxxxxxxxxxxx |xxxxxxxxxxxxx |xxxxxxxxxxxxx |xxxxxxxxxxxxx |      2692975 |      2692977 |      2692976 |xxxxxxxxxxxxx |xxxxxxxxxxxxx |xxxxxxxxxxxxx |xxxxxxxxxxxxx |      6046299 |      6046301 |      6046300 |xxxxxxxxxxxxx |xxxxxxxxxxxxx |xxxxxxxxxxxxx |xxxxxxxxxxxxx |     12370516 |     12370518 |     12370517 |xxxxxxxxxxxxx |xxxxxxxxxxxxx |xxxxxxxxxxxxx |xxxxxxxxxxxxx |     26524510 |     26524512 |     26524511 |xxxxxxxxxxxxx |xxxxxxxxxxxxx |xxxxxxxxxxxxx |xxxxxxxxxxxxx |     56221829 |     56221831 |     56221830 |xxxxxxxxxxxxx |xxxxxxxxxxxxx |xxxxxxxxxxxxx |xxxxxxxxxxxxx |    120987014 |    120987015 |    120987014 |xxxxxxxxxxxxx |xxxxxxxxxxxxx |xxxxxxxxxxxxx |xxxxxxxxxxxxx |    252608761 |    252608763 |    252608762 |
bpred_bimod.misses                           33671 |        33672 |        33672 |xxxxxxxxxxxxx |xxxxxxxxxxxxx |xxxxxxxxxxxxx |xxxxxxxxxxxxx |        74987 |        74983 |        74984 |xxxxxxxxxxxxx |xxxxxxxxxxxxx |xxxxxxxxxxxxx |xxxxxxxxxxxxx |       173354 |       173351 |       173354 |xxxxxxxxxxxxx |xxxxxxxxxxxxx |xxxxxxxxxxxxx |xxxxxxxxxxxxx |       377505 |       377503 |       377504 |xxxxxxxxxxxxx |xxxxxxxxxxxxx |xxxxxxxxxxxxx |xxxxxxxxxxxxx |       743142 |       743140 |       743141 |xxxxxxxxxxxxx |xxxxxxxxxxxxx |xxxxxxxxxxxxx |xxxxxxxxxxxxx |      1636167 |      1636165 |      1636166 |xxxxxxxxxxxxx |xxxxxxxxxxxxx |xxxxxxxxxxxxx |xxxxxxxxxxxxx |      3551009 |      3551007 |      3551008 |xxxxxxxxxxxxx |xxxxxxxxxxxxx |xxxxxxxxxxxxx |xxxxxxxxxxxxx |      7708000 |      7707998 |      7707999 |xxxxxxxxxxxxx |xxxxxxxxxxxxx |xxxxxxxxxxxxx |xxxxxxxxxxxxx |     16672673 |     16672671 |     16672672 |xxxxxxxxxxxxx |xxxxxxxxxxxxx |xxxxxxxxxxxxx |xxxxxxxxxxxxx |     35508719 |     35508718 |     35508719 |xxxxxxxxxxxxx |xxxxxxxxxxxxx |xxxxxxxxxxxxx |xxxxxxxxxxxxx |     75752342 |     75752340 |     75752341 |
bpred_bimod.jr_hits                             57 |           57 |           57 |xxxxxxxxxxxxx |xxxxxxxxxxxxx |xxxxxxxxxxxxx |xxxxxxxxxxxxx |           57 |           57 |           57 |xxxxxxxxxxxxx |xxxxxxxxxxxxx |xxxxxxxxxxxxx |xxxxxxxxxxxxx |           57 |           57 |           57 |xxxxxxxxxxxxx |xxxxxxxxxxxxx |xxxxxxxxxxxxx |xxxxxxxxxxxxx |           57 |           57 |           57 |xxxxxxxxxxxxx |xxxxxxxxxxxxx |xxxxxxxxxxxxx |xxxxxxxxxxxxx |           57 |           57 |           57 |xxxxxxxxxxxxx |xxxxxxxxxxxxx |xxxxxxxxxxxxx |xxxxxxxxxxxxx |           57 |           57 |           57 |xxxxxxxxxxxxx |xxxxxxxxxxxxx |xxxxxxxxxxxxx |xxxxxxxxxxxxx |           57 |           57 |           57 |xxxxxxxxxxxxx |xxxxxxxxxxxxx |xxxxxxxxxxxxx |xxxxxxxxxxxxx |           57 |           57 |           57 |xxxxxxxxxxxxx |xxxxxxxxxxxxx |xxxxxxxxxxxxx |xxxxxxxxxxxxx |           57 |           57 |           57 |xxxxxxxxxxxxx |xxxxxxxxxxxxx |xxxxxxxxxxxxx |xxxxxxxxxxxxx |           57 |           57 |           57 |xxxxxxxxxxxxx |xxxxxxxxxxxxx |xxxxxxxxxxxxx |xxxxxxxxxxxxx |           57 |           57 |           57 |
bpred_bimod.jr_seen                             58 |           58 |           58 |xxxxxxxxxxxxx |xxxxxxxxxxxxx |xxxxxxxxxxxxx |xxxxxxxxxxxxx |           58 |           58 |           58 |xxxxxxxxxxxxx |xxxxxxxxxxxxx |xxxxxxxxxxxxx |xxxxxxxxxxxxx |           58 |           58 |           58 |xxxxxxxxxxxxx |xxxxxxxxxxxxx |xxxxxxxxxxxxx |xxxxxxxxxxxxx |           58 |           58 |           58 |xxxxxxxxxxxxx |xxxxxxxxxxxxx |xxxxxxxxxxxxx |xxxxxxxxxxxxx |           58 |           58 |           58 |xxxxxxxxxxxxx |xxxxxxxxxxxxx |xxxxxxxxxxxxx |xxxxxxxxxxxxx |           58 |           58 |           58 |xxxxxxxxxxxxx |xxxxxxxxxxxxx |xxxxxxxxxxxxx |xxxxxxxxxxxxx |           58 |           58 |           58 |xxxxxxxxxxxxx |xxxxxxxxxxxxx |xxxxxxxxxxxxx |xxxxxxxxxxxxx |           58 |           58 |           58 |xxxxxxxxxxxxx |xxxxxxxxxxxxx |xxxxxxxxxxxxx |xxxxxxxxxxxxx |           58 |           58 |           58 |xxxxxxxxxxxxx |xxxxxxxxxxxxx |xxxxxxxxxxxxx |xxxxxxxxxxxxx |           58 |           58 |           58 |xxxxxxxxxxxxx |xxxxxxxxxxxxx |xxxxxxxxxxxxx |xxxxxxxxxxxxx |           58 |           58 |           58 |
bpred_bimod.jr_non_ras_hits.PP                   0 |            0 |            0 |xxxxxxxxxxxxx |xxxxxxxxxxxxx |xxxxxxxxxxxxx |xxxxxxxxxxxxx |            0 |            0 |            0 |xxxxxxxxxxxxx |xxxxxxxxxxxxx |xxxxxxxxxxxxx |xxxxxxxxxxxxx |            0 |            0 |            0 |xxxxxxxxxxxxx |xxxxxxxxxxxxx |xxxxxxxxxxxxx |xxxxxxxxxxxxx |            0 |            0 |            0 |xxxxxxxxxxxxx |xxxxxxxxxxxxx |xxxxxxxxxxxxx |xxxxxxxxxxxxx |            0 |            0 |            0 |xxxxxxxxxxxxx |xxxxxxxxxxxxx |xxxxxxxxxxxxx |xxxxxxxxxxxxx |            0 |            0 |            0 |xxxxxxxxxxxxx |xxxxxxxxxxxxx |xxxxxxxxxxxxx |xxxxxxxxxxxxx |            0 |            0 |            0 |xxxxxxxxxxxxx |xxxxxxxxxxxxx |xxxxxxxxxxxxx |xxxxxxxxxxxxx |            0 |            0 |            0 |xxxxxxxxxxxxx |xxxxxxxxxxxxx |xxxxxxxxxxxxx |xxxxxxxxxxxxx |            0 |            0 |            0 |xxxxxxxxxxxxx |xxxxxxxxxxxxx |xxxxxxxxxxxxx |xxxxxxxxxxxxx |            0 |            0 |            0 |xxxxxxxxxxxxx |xxxxxxxxxxxxx |xxxxxxxxxxxxx |xxxxxxxxxxxxx |            0 |            0 |            0 |
bpred_bimod.jr_non_ras_seen.PP                   0 |            0 |            0 |xxxxxxxxxxxxx |xxxxxxxxxxxxx |xxxxxxxxxxxxx |xxxxxxxxxxxxx |            0 |            0 |            0 |xxxxxxxxxxxxx |xxxxxxxxxxxxx |xxxxxxxxxxxxx |xxxxxxxxxxxxx |            0 |            0 |            0 |xxxxxxxxxxxxx |xxxxxxxxxxxxx |xxxxxxxxxxxxx |xxxxxxxxxxxxx |            0 |            0 |            0 |xxxxxxxxxxxxx |xxxxxxxxxxxxx |xxxxxxxxxxxxx |xxxxxxxxxxxxx |            0 |            0 |            0 |xxxxxxxxxxxxx |xxxxxxxxxxxxx |xxxxxxxxxxxxx |xxxxxxxxxxxxx |            0 |            0 |            0 |xxxxxxxxxxxxx |xxxxxxxxxxxxx |xxxxxxxxxxxxx |xxxxxxxxxxxxx |            0 |            0 |            0 |xxxxxxxxxxxxx |xxxxxxxxxxxxx |xxxxxxxxxxxxx |xxxxxxxxxxxxx |            0 |            0 |            0 |xxxxxxxxxxxxx |xxxxxxxxxxxxx |xxxxxxxxxxxxx |xxxxxxxxxxxxx |            0 |            0 |            0 |xxxxxxxxxxxxx |xxxxxxxxxxxxx |xxxxxxxxxxxxx |xxxxxxxxxxxxx |            0 |            0 |            0 |xxxxxxxxxxxxx |xxxxxxxxxxxxx |xxxxxxxxxxxxx |xxxxxxxxxxxxx |            0 |            0 |            0 |
bpred_bimod.bpred_addr_rate                 0.7679 |       0.7679 |       0.7679 |xxxxxxxxxxxxx |xxxxxxxxxxxxx |xxxxxxxxxxxxx |xxxxxxxxxxxxx |       0.7700 |       0.7700 |       0.7700 |xxxxxxxxxxxxx |xxxxxxxxxxxxx |xxxxxxxxxxxxx |xxxxxxxxxxxxx |       0.7678 |       0.7678 |       0.7678 |xxxxxxxxxxxxx |xxxxxxxxxxxxx |xxxxxxxxxxxxx |xxxxxxxxxxxxx |       0.7686 |       0.7686 |       0.7686 |xxxxxxxxxxxxx |xxxxxxxxxxxxx |xxxxxxxxxxxxx |xxxxxxxxxxxxx |       0.7837 |       0.7837 |       0.7837 |xxxxxxxxxxxxx |xxxxxxxxxxxxx |xxxxxxxxxxxxx |xxxxxxxxxxxxx |       0.7870 |       0.7870 |       0.7870 |xxxxxxxxxxxxx |xxxxxxxxxxxxx |xxxxxxxxxxxxx |xxxxxxxxxxxxx |       0.7770 |       0.7770 |       0.7770 |xxxxxxxxxxxxx |xxxxxxxxxxxxx |xxxxxxxxxxxxx |xxxxxxxxxxxxx |       0.7748 |       0.7748 |       0.7748 |xxxxxxxxxxxxx |xxxxxxxxxxxxx |xxxxxxxxxxxxx |xxxxxxxxxxxxx |       0.7713 |       0.7713 |       0.7713 |xxxxxxxxxxxxx |xxxxxxxxxxxxx |xxxxxxxxxxxxx |xxxxxxxxxxxxx |       0.7731 |       0.7731 |       0.7731 |xxxxxxxxxxxxx |xxxxxxxxxxxxx |xxxxxxxxxxxxx |xxxxxxxxxxxxx |       0.7693 |       0.7693 |       0.7693 |
bpred_bimod.bpred_dir_rate                  0.7686 |       0.7686 |       0.7686 |xxxxxxxxxxxxx |xxxxxxxxxxxxx |xxxxxxxxxxxxx |xxxxxxxxxxxxx |       0.7703 |       0.7703 |       0.7703 |xxxxxxxxxxxxx |xxxxxxxxxxxxx |xxxxxxxxxxxxx |xxxxxxxxxxxxx |       0.7680 |       0.7680 |       0.7680 |xxxxxxxxxxxxx |xxxxxxxxxxxxx |xxxxxxxxxxxxx |xxxxxxxxxxxxx |       0.7687 |       0.7687 |       0.7687 |xxxxxxxxxxxxx |xxxxxxxxxxxxx |xxxxxxxxxxxxx |xxxxxxxxxxxxx |       0.7837 |       0.7837 |       0.7837 |xxxxxxxxxxxxx |xxxxxxxxxxxxx |xxxxxxxxxxxxx |xxxxxxxxxxxxx |       0.7870 |       0.7870 |       0.7870 |xxxxxxxxxxxxx |xxxxxxxxxxxxx |xxxxxxxxxxxxx |xxxxxxxxxxxxx |       0.7770 |       0.7770 |       0.7770 |xxxxxxxxxxxxx |xxxxxxxxxxxxx |xxxxxxxxxxxxx |xxxxxxxxxxxxx |       0.7748 |       0.7748 |       0.7748 |xxxxxxxxxxxxx |xxxxxxxxxxxxx |xxxxxxxxxxxxx |xxxxxxxxxxxxx |       0.7713 |       0.7713 |       0.7713 |xxxxxxxxxxxxx |xxxxxxxxxxxxx |xxxxxxxxxxxxx |xxxxxxxxxxxxx |       0.7731 |       0.7731 |       0.7731 |xxxxxxxxxxxxx |xxxxxxxxxxxxx |xxxxxxxxxxxxx |xxxxxxxxxxxxx |       0.7693 |       0.7693 |       0.7693 |
bpred_bimod.bpred_jr_rate                   0.9828 |       0.9828 |       0.9828 |xxxxxxxxxxxxx |xxxxxxxxxxxxx |xxxxxxxxxxxxx |xxxxxxxxxxxxx |       0.9828 |       0.9828 |       0.9828 |xxxxxxxxxxxxx |xxxxxxxxxxxxx |xxxxxxxxxxxxx |xxxxxxxxxxxxx |       0.9828 |       0.9828 |       0.9828 |xxxxxxxxxxxxx |xxxxxxxxxxxxx |xxxxxxxxxxxxx |xxxxxxxxxxxxx |       0.9828 |       0.9828 |       0.9828 |xxxxxxxxxxxxx |xxxxxxxxxxxxx |xxxxxxxxxxxxx |xxxxxxxxxxxxx |       0.9828 |       0.9828 |       0.9828 |xxxxxxxxxxxxx |xxxxxxxxxxxxx |xxxxxxxxxxxxx |xxxxxxxxxxxxx |       0.9828 |       0.9828 |       0.9828 |xxxxxxxxxxxxx |xxxxxxxxxxxxx |xxxxxxxxxxxxx |xxxxxxxxxxxxx |       0.9828 |       0.9828 |       0.9828 |xxxxxxxxxxxxx |xxxxxxxxxxxxx |xxxxxxxxxxxxx |xxxxxxxxxxxxx |       0.9828 |       0.9828 |       0.9828 |xxxxxxxxxxxxx |xxxxxxxxxxxxx |xxxxxxxxxxxxx |xxxxxxxxxxxxx |       0.9828 |       0.9828 |       0.9828 |xxxxxxxxxxxxx |xxxxxxxxxxxxx |xxxxxxxxxxxxx |xxxxxxxxxxxxx |       0.9828 |       0.9828 |       0.9828 |xxxxxxxxxxxxx |xxxxxxxxxxxxx |xxxxxxxxxxxxx |xxxxxxxxxxxxx |       0.9828 |       0.9828 |       0.9828 |
bpred_bimod.bpred_jr_non_ras_rate.PP       <error: |      <error: |      <error: |xxxxxxxxxxxxx |xxxxxxxxxxxxx |xxxxxxxxxxxxx |xxxxxxxxxxxxx |      <error: |      <error: |      <error: |xxxxxxxxxxxxx |xxxxxxxxxxxxx |xxxxxxxxxxxxx |xxxxxxxxxxxxx |      <error: |      <error: |      <error: |xxxxxxxxxxxxx |xxxxxxxxxxxxx |xxxxxxxxxxxxx |xxxxxxxxxxxxx |      <error: |      <error: |      <error: |xxxxxxxxxxxxx |xxxxxxxxxxxxx |xxxxxxxxxxxxx |xxxxxxxxxxxxx |      <error: |      <error: |      <error: |xxxxxxxxxxxxx |xxxxxxxxxxxxx |xxxxxxxxxxxxx |xxxxxxxxxxxxx |      <error: |      <error: |      <error: |xxxxxxxxxxxxx |xxxxxxxxxxxxx |xxxxxxxxxxxxx |xxxxxxxxxxxxx |      <error: |      <error: |      <error: |xxxxxxxxxxxxx |xxxxxxxxxxxxx |xxxxxxxxxxxxx |xxxxxxxxxxxxx |      <error: |      <error: |      <error: |xxxxxxxxxxxxx |xxxxxxxxxxxxx |xxxxxxxxxxxxx |xxxxxxxxxxxxx |      <error: |      <error: |      <error: |xxxxxxxxxxxxx |xxxxxxxxxxxxx |xxxxxxxxxxxxx |xxxxxxxxxxxxx |      <error: |      <error: |      <error: |xxxxxxxxxxxxx |xxxxxxxxxxxxx |xxxxxxxxxxxxx |xxxxxxxxxxxxx |      <error: |      <error: |      <error: |
bpred_bimod.retstack_pushes                     60 |           60 |           60 |xxxxxxxxxxxxx |xxxxxxxxxxxxx |xxxxxxxxxxxxx |xxxxxxxxxxxxx |           60 |           60 |           60 |xxxxxxxxxxxxx |xxxxxxxxxxxxx |xxxxxxxxxxxxx |xxxxxxxxxxxxx |           60 |           60 |           60 |xxxxxxxxxxxxx |xxxxxxxxxxxxx |xxxxxxxxxxxxx |xxxxxxxxxxxxx |           60 |           60 |           60 |xxxxxxxxxxxxx |xxxxxxxxxxxxx |xxxxxxxxxxxxx |xxxxxxxxxxxxx |           60 |           60 |           60 |xxxxxxxxxxxxx |xxxxxxxxxxxxx |xxxxxxxxxxxxx |xxxxxxxxxxxxx |           60 |           60 |           60 |xxxxxxxxxxxxx |xxxxxxxxxxxxx |xxxxxxxxxxxxx |xxxxxxxxxxxxx |           60 |           60 |           60 |xxxxxxxxxxxxx |xxxxxxxxxxxxx |xxxxxxxxxxxxx |xxxxxxxxxxxxx |           60 |           60 |           60 |xxxxxxxxxxxxx |xxxxxxxxxxxxx |xxxxxxxxxxxxx |xxxxxxxxxxxxx |           60 |           60 |           60 |xxxxxxxxxxxxx |xxxxxxxxxxxxx |xxxxxxxxxxxxx |xxxxxxxxxxxxx |           60 |           60 |           60 |xxxxxxxxxxxxx |xxxxxxxxxxxxx |xxxxxxxxxxxxx |xxxxxxxxxxxxx |           60 |           60 |           60 |
bpred_bimod.retstack_pops                       58 |           58 |           58 |xxxxxxxxxxxxx |xxxxxxxxxxxxx |xxxxxxxxxxxxx |xxxxxxxxxxxxx |           58 |           58 |           58 |xxxxxxxxxxxxx |xxxxxxxxxxxxx |xxxxxxxxxxxxx |xxxxxxxxxxxxx |           58 |           58 |           58 |xxxxxxxxxxxxx |xxxxxxxxxxxxx |xxxxxxxxxxxxx |xxxxxxxxxxxxx |           58 |           58 |           58 |xxxxxxxxxxxxx |xxxxxxxxxxxxx |xxxxxxxxxxxxx |xxxxxxxxxxxxx |           58 |           58 |           58 |xxxxxxxxxxxxx |xxxxxxxxxxxxx |xxxxxxxxxxxxx |xxxxxxxxxxxxx |           58 |           58 |           58 |xxxxxxxxxxxxx |xxxxxxxxxxxxx |xxxxxxxxxxxxx |xxxxxxxxxxxxx |           58 |           58 |           58 |xxxxxxxxxxxxx |xxxxxxxxxxxxx |xxxxxxxxxxxxx |xxxxxxxxxxxxx |           58 |           58 |           58 |xxxxxxxxxxxxx |xxxxxxxxxxxxx |xxxxxxxxxxxxx |xxxxxxxxxxxxx |           58 |           58 |           58 |xxxxxxxxxxxxx |xxxxxxxxxxxxx |xxxxxxxxxxxxx |xxxxxxxxxxxxx |           58 |           58 |           58 |xxxxxxxxxxxxx |xxxxxxxxxxxxx |xxxxxxxxxxxxx |xxxxxxxxxxxxx |           58 |           58 |           58 |
bpred_bimod.used_ras.PP                         58 |           58 |           58 |xxxxxxxxxxxxx |xxxxxxxxxxxxx |xxxxxxxxxxxxx |xxxxxxxxxxxxx |           58 |           58 |           58 |xxxxxxxxxxxxx |xxxxxxxxxxxxx |xxxxxxxxxxxxx |xxxxxxxxxxxxx |           58 |           58 |           58 |xxxxxxxxxxxxx |xxxxxxxxxxxxx |xxxxxxxxxxxxx |xxxxxxxxxxxxx |           58 |           58 |           58 |xxxxxxxxxxxxx |xxxxxxxxxxxxx |xxxxxxxxxxxxx |xxxxxxxxxxxxx |           58 |           58 |           58 |xxxxxxxxxxxxx |xxxxxxxxxxxxx |xxxxxxxxxxxxx |xxxxxxxxxxxxx |           58 |           58 |           58 |xxxxxxxxxxxxx |xxxxxxxxxxxxx |xxxxxxxxxxxxx |xxxxxxxxxxxxx |           58 |           58 |           58 |xxxxxxxxxxxxx |xxxxxxxxxxxxx |xxxxxxxxxxxxx |xxxxxxxxxxxxx |           58 |           58 |           58 |xxxxxxxxxxxxx |xxxxxxxxxxxxx |xxxxxxxxxxxxx |xxxxxxxxxxxxx |           58 |           58 |           58 |xxxxxxxxxxxxx |xxxxxxxxxxxxx |xxxxxxxxxxxxx |xxxxxxxxxxxxx |           58 |           58 |           58 |xxxxxxxxxxxxx |xxxxxxxxxxxxx |xxxxxxxxxxxxx |xxxxxxxxxxxxx |           58 |           58 |           58 |
bpred_bimod.ras_hits.PP                         57 |           57 |           57 |xxxxxxxxxxxxx |xxxxxxxxxxxxx |xxxxxxxxxxxxx |xxxxxxxxxxxxx |           57 |           57 |           57 |xxxxxxxxxxxxx |xxxxxxxxxxxxx |xxxxxxxxxxxxx |xxxxxxxxxxxxx |           57 |           57 |           57 |xxxxxxxxxxxxx |xxxxxxxxxxxxx |xxxxxxxxxxxxx |xxxxxxxxxxxxx |           57 |           57 |           57 |xxxxxxxxxxxxx |xxxxxxxxxxxxx |xxxxxxxxxxxxx |xxxxxxxxxxxxx |           57 |           57 |           57 |xxxxxxxxxxxxx |xxxxxxxxxxxxx |xxxxxxxxxxxxx |xxxxxxxxxxxxx |           57 |           57 |           57 |xxxxxxxxxxxxx |xxxxxxxxxxxxx |xxxxxxxxxxxxx |xxxxxxxxxxxxx |           57 |           57 |           57 |xxxxxxxxxxxxx |xxxxxxxxxxxxx |xxxxxxxxxxxxx |xxxxxxxxxxxxx |           57 |           57 |           57 |xxxxxxxxxxxxx |xxxxxxxxxxxxx |xxxxxxxxxxxxx |xxxxxxxxxxxxx |           57 |           57 |           57 |xxxxxxxxxxxxx |xxxxxxxxxxxxx |xxxxxxxxxxxxx |xxxxxxxxxxxxx |           57 |           57 |           57 |xxxxxxxxxxxxx |xxxxxxxxxxxxx |xxxxxxxxxxxxx |xxxxxxxxxxxxx |           57 |           57 |           57 |
bpred_bimod.ras_rate.PP                     0.9828 |       0.9828 |       0.9828 |xxxxxxxxxxxxx |xxxxxxxxxxxxx |xxxxxxxxxxxxx |xxxxxxxxxxxxx |       0.9828 |       0.9828 |       0.9828 |xxxxxxxxxxxxx |xxxxxxxxxxxxx |xxxxxxxxxxxxx |xxxxxxxxxxxxx |       0.9828 |       0.9828 |       0.9828 |xxxxxxxxxxxxx |xxxxxxxxxxxxx |xxxxxxxxxxxxx |xxxxxxxxxxxxx |       0.9828 |       0.9828 |       0.9828 |xxxxxxxxxxxxx |xxxxxxxxxxxxx |xxxxxxxxxxxxx |xxxxxxxxxxxxx |       0.9828 |       0.9828 |       0.9828 |xxxxxxxxxxxxx |xxxxxxxxxxxxx |xxxxxxxxxxxxx |xxxxxxxxxxxxx |       0.9828 |       0.9828 |       0.9828 |xxxxxxxxxxxxx |xxxxxxxxxxxxx |xxxxxxxxxxxxx |xxxxxxxxxxxxx |       0.9828 |       0.9828 |       0.9828 |xxxxxxxxxxxxx |xxxxxxxxxxxxx |xxxxxxxxxxxxx |xxxxxxxxxxxxx |       0.9828 |       0.9828 |       0.9828 |xxxxxxxxxxxxx |xxxxxxxxxxxxx |xxxxxxxxxxxxx |xxxxxxxxxxxxx |       0.9828 |       0.9828 |       0.9828 |xxxxxxxxxxxxx |xxxxxxxxxxxxx |xxxxxxxxxxxxx |xxxxxxxxxxxxx |       0.9828 |       0.9828 |       0.9828 |xxxxxxxxxxxxx |xxxxxxxxxxxxx |xxxxxxxxxxxxx |xxxxxxxxxxxxx |       0.9828 |       0.9828 |       0.9828 |
bpred_2lev.lookups                   xxxxxxxxxxxxx |xxxxxxxxxxxxx |xxxxxxxxxxxxx |       145497 |       145497 |       145497 |       145497 |xxxxxxxxxxxxx |xxxxxxxxxxxxx |xxxxxxxxxxxxx |       326416 |       326416 |       326416 |       326416 |xxxxxxxxxxxxx |xxxxxxxxxxxxx |xxxxxxxxxxxxx |       747138 |       747138 |       747138 |       747138 |xxxxxxxxxxxxx |xxxxxxxxxxxxx |xxxxxxxxxxxxx |      1631771 |      1631771 |      1631771 |      1631771 |xxxxxxxxxxxxx |xxxxxxxxxxxxx |xxxxxxxxxxxxx |      3436117 |      3436117 |      3436117 |      3436117 |xxxxxxxxxxxxx |xxxxxxxxxxxxx |xxxxxxxxxxxxx |      7682466 |      7682466 |      7682466 |      7682466 |xxxxxxxxxxxxx |xxxxxxxxxxxxx |xxxxxxxxxxxxx |     15921525 |     15921525 |     15921525 |     15921525 |xxxxxxxxxxxxx |xxxxxxxxxxxxx |xxxxxxxxxxxxx |     34232510 |     34232510 |     34232510 |     34232510 |xxxxxxxxxxxxx |xxxxxxxxxxxxx |xxxxxxxxxxxxx |     72894502 |     72894502 |     72894502 |     72894502 |xxxxxxxxxxxxx |xxxxxxxxxxxxx |xxxxxxxxxxxxx |    156495733 |    156495733 |    156495733 |    156495733 |xxxxxxxxxxxxx |xxxxxxxxxxxxx |xxxxxxxxxxxxx |    328361103 |    328361103 |    328361103 |    328361103 |
[...]
bpred_2lev.retstack_pushes           xxxxxxxxxxxxx |xxxxxxxxxxxxx |xxxxxxxxxxxxx |           60 |           60 |           60 |           60 |xxxxxxxxxxxxx |xxxxxxxxxxxxx |xxxxxxxxxxxxx |           60 |           60 |           60 |           60 |xxxxxxxxxxxxx |xxxxxxxxxxxxx |xxxxxxxxxxxxx |           60 |           60 |           60 |           60 |xxxxxxxxxxxxx |xxxxxxxxxxxxx |xxxxxxxxxxxxx |           60 |           60 |           60 |           60 |xxxxxxxxxxxxx |xxxxxxxxxxxxx |xxxxxxxxxxxxx |           60 |           60 |           60 |           60 |xxxxxxxxxxxxx |xxxxxxxxxxxxx |xxxxxxxxxxxxx |           60 |           60 |           60 |           60 |xxxxxxxxxxxxx |xxxxxxxxxxxxx |xxxxxxxxxxxxx |           60 |           60 |           60 |           60 |xxxxxxxxxxxxx |xxxxxxxxxxxxx |xxxxxxxxxxxxx |           60 |           60 |           60 |           60 |xxxxxxxxxxxxx |xxxxxxxxxxxxx |xxxxxxxxxxxxx |           60 |           60 |           60 |           60 |xxxxxxxxxxxxx |xxxxxxxxxxxxx |xxxxxxxxxxxxx |           60 |           60 |           60 |           60 |xxxxxxxxxxxxx |xxxxxxxxxxxxx |xxxxxxxxxxxxx |           60 |           60 |           60 |           60 |
bpred_2lev.retstack_pops             xxxxxxxxxxxxx |xxxxxxxxxxxxx |xxxxxxxxxxxxx |           58 |           58 |           58 |           58 |xxxxxxxxxxxxx |xxxxxxxxxxxxx |xxxxxxxxxxxxx |           58 |           58 |           58 |           58 |xxxxxxxxxxxxx |xxxxxxxxxxxxx |xxxxxxxxxxxxx |           58 |           58 |           58 |           58 |xxxxxxxxxxxxx |xxxxxxxxxxxxx |xxxxxxxxxxxxx |           58 |           58 |           58 |           58 |xxxxxxxxxxxxx |xxxxxxxxxxxxx |xxxxxxxxxxxxx |           58 |           58 |           58 |           58 |xxxxxxxxxxxxx |xxxxxxxxxxxxx |xxxxxxxxxxxxx |           58 |           58 |           58 |           58 |xxxxxxxxxxxxx |xxxxxxxxxxxxx |xxxxxxxxxxxxx |           58 |           58 |           58 |           58 |xxxxxxxxxxxxx |xxxxxxxxxxxxx |xxxxxxxxxxxxx |           58 |           58 |           58 |           58 |xxxxxxxxxxxxx |xxxxxxxxxxxxx |xxxxxxxxxxxxx |           58 |           58 |           58 |           58 |xxxxxxxxxxxxx |xxxxxxxxxxxxx |xxxxxxxxxxxxx |           58 |           58 |           58 |           58 |xxxxxxxxxxxxx |xxxxxxxxxxxxx |xxxxxxxxxxxxx |           58 |           58 |           58 |           58 |
bpred_2lev.used_ras.PP               xxxxxxxxxxxxx |xxxxxxxxxxxxx |xxxxxxxxxxxxx |           58 |           58 |           58 |           58 |xxxxxxxxxxxxx |xxxxxxxxxxxxx |xxxxxxxxxxxxx |           58 |           58 |           58 |           58 |xxxxxxxxxxxxx |xxxxxxxxxxxxx |xxxxxxxxxxxxx |           58 |           58 |           58 |           58 |xxxxxxxxxxxxx |xxxxxxxxxxxxx |xxxxxxxxxxxxx |           58 |           58 |           58 |           58 |xxxxxxxxxxxxx |xxxxxxxxxxxxx |xxxxxxxxxxxxx |           58 |           58 |           58 |           58 |xxxxxxxxxxxxx |xxxxxxxxxxxxx |xxxxxxxxxxxxx |           58 |           58 |           58 |           58 |xxxxxxxxxxxxx |xxxxxxxxxxxxx |xxxxxxxxxxxxx |           58 |           58 |           58 |           58 |xxxxxxxxxxxxx |xxxxxxxxxxxxx |xxxxxxxxxxxxx |           58 |           58 |           58 |           58 |xxxxxxxxxxxxx |xxxxxxxxxxxxx |xxxxxxxxxxxxx |           58 |           58 |           58 |           58 |xxxxxxxxxxxxx |xxxxxxxxxxxxx |xxxxxxxxxxxxx |           58 |           58 |           58 |           58 |xxxxxxxxxxxxx |xxxxxxxxxxxxx |xxxxxxxxxxxxx |           58 |           58 |           58 |           58 |
bpred_2lev.ras_hits.PP               xxxxxxxxxxxxx |xxxxxxxxxxxxx |xxxxxxxxxxxxx |           57 |           57 |           57 |           57 |xxxxxxxxxxxxx |xxxxxxxxxxxxx |xxxxxxxxxxxxx |           57 |           57 |           57 |           57 |xxxxxxxxxxxxx |xxxxxxxxxxxxx |xxxxxxxxxxxxx |           57 |           57 |           57 |           57 |xxxxxxxxxxxxx |xxxxxxxxxxxxx |xxxxxxxxxxxxx |           57 |           57 |           57 |           57 |xxxxxxxxxxxxx |xxxxxxxxxxxxx |xxxxxxxxxxxxx |           57 |           57 |           57 |           57 |xxxxxxxxxxxxx |xxxxxxxxxxxxx |xxxxxxxxxxxxx |           57 |           57 |           57 |           57 |xxxxxxxxxxxxx |xxxxxxxxxxxxx |xxxxxxxxxxxxx |           57 |           57 |           57 |           57 |xxxxxxxxxxxxx |xxxxxxxxxxxxx |xxxxxxxxxxxxx |           57 |           57 |           57 |           57 |xxxxxxxxxxxxx |xxxxxxxxxxxxx |xxxxxxxxxxxxx |           57 |           57 |           57 |           57 |xxxxxxxxxxxxx |xxxxxxxxxxxxx |xxxxxxxxxxxxx |           57 |           57 |           57 |           57 |xxxxxxxxxxxxx |xxxxxxxxxxxxx |xxxxxxxxxxxxx |           57 |           57 |           57 |           57 |
bpred_2lev.ras_rate.PP               xxxxxxxxxxxxx |xxxxxxxxxxxxx |xxxxxxxxxxxxx |       0.9828 |       0.9828 |       0.9828 |       0.9828 |xxxxxxxxxxxxx |xxxxxxxxxxxxx |xxxxxxxxxxxxx |       0.9828 |       0.9828 |       0.9828 |       0.9828 |xxxxxxxxxxxxx |xxxxxxxxxxxxx |xxxxxxxxxxxxx |       0.9828 |       0.9828 |       0.9828 |       0.9828 |xxxxxxxxxxxxx |xxxxxxxxxxxxx |xxxxxxxxxxxxx |       0.9828 |       0.9828 |       0.9828 |       0.9828 |xxxxxxxxxxxxx |xxxxxxxxxxxxx |xxxxxxxxxxxxx |       0.9828 |       0.9828 |       0.9828 |       0.9828 |xxxxxxxxxxxxx |xxxxxxxxxxxxx |xxxxxxxxxxxxx |       0.9828 |       0.9828 |       0.9828 |       0.9828 |xxxxxxxxxxxxx |xxxxxxxxxxxxx |xxxxxxxxxxxxx |       0.9828 |       0.9828 |       0.9828 |       0.9828 |xxxxxxxxxxxxx |xxxxxxxxxxxxx |xxxxxxxxxxxxx |       0.9828 |       0.9828 |       0.9828 |       0.9828 |xxxxxxxxxxxxx |xxxxxxxxxxxxx |xxxxxxxxxxxxx |       0.9828 |       0.9828 |       0.9828 |       0.9828 |xxxxxxxxxxxxx |xxxxxxxxxxxxx |xxxxxxxxxxxxx |       0.9828 |       0.9828 |       0.9828 |       0.9828 |xxxxxxxxxxxxx |xxxxxxxxxxxxx |xxxxxxxxxxxxx |       0.9828 |       0.9828 |       0.9828 |       0.9828 |

Command list: 
	sslittle-na-sstrix-gcc -Wall -O3 -funroll-loops -finline-functions  -DRANDOM_SIZE=4096 -DOFFSET=4 -DSORT=improved_shellsort sorts/improved_shellsort1628358329.c simpleMain.c -o improved_shellsort396275686
	sim-cache -cache:dl1 dl1:256:32:1:l -cache:dl2 dl2:131072:32:1:l -cache:il1 il1:256:32:1:l -cache:il2 dl2 improved_shellsort396275686
	sim-cache -cache:dl1 dl1:256:32:1:l -cache:dl2 dl2:65536:32:1:l -cache:il1 il1:256:32:1:l -cache:il2 dl2 improved_shellsort396275686
	sim-cache -cache:dl1 dl1:1:32:256:l -cache:dl2 dl2:1:32:131072:l -cache:il1 il1:1:32:256:l -cache:il2 dl2 improved_shellsort396275686
	sim-cache -cache:dl1 dl1:1:32:256:l -cache:dl2 dl2:1:32:65536:l -cache:il1 il1:1:32:256:l -cache:il2 dl2 improved_shellsort396275686
	sim-bpred -bpred bimod -bpred:bimod 512 improved_shellsort396275686
	sim-bpred -bpred bimod -bpred:bimod 1024 improved_shellsort396275686
	sim-bpred -bpred bimod -bpred:bimod 2048 improved_shellsort396275686
	sim-bpred -bpred 2lev -bpred:2lev 1 512 10 1 improved_shellsort396275686
	sim-bpred -bpred 2lev -bpred:2lev 1 1024 10 1 improved_shellsort396275686
	sim-bpred -bpred 2lev -bpred:2lev 1 2048 10 1 improved_shellsort396275686
	sim-bpred -bpred 2lev -bpred:2lev 1 4096 10 1 improved_shellsort396275686
	sslittle-na-sstrix-gcc -Wall -O3 -funroll-loops -finline-functions  -DRANDOM_SIZE=8192 -DOFFSET=4 -DSORT=improved_shellsort sorts/improved_shellsort1628358329.c simpleMain.c -o improved_shellsort396275686
	sim-cache -cache:dl1 dl1:256:32:1:l -cache:dl2 dl2:131072:32:1:l -cache:il1 il1:256:32:1:l -cache:il2 dl2 improved_shellsort396275686
	sim-cache -cache:dl1 dl1:256:32:1:l -cache:dl2 dl2:65536:32:1:l -cache:il1 il1:256:32:1:l -cache:il2 dl2 improved_shellsort396275686
	sim-cache -cache:dl1 dl1:1:32:256:l -cache:dl2 dl2:1:32:131072:l -cache:il1 il1:1:32:256:l -cache:il2 dl2 improved_shellsort396275686
	sim-cache -cache:dl1 dl1:1:32:256:l -cache:dl2 dl2:1:32:65536:l -cache:il1 il1:1:32:256:l -cache:il2 dl2 improved_shellsort396275686
	sim-bpred -bpred bimod -bpred:bimod 512 improved_shellsort396275686
	sim-bpred -bpred bimod -bpred:bimod 1024 improved_shellsort396275686
	sim-bpred -bpred bimod -bpred:bimod 2048 improved_shellsort396275686
	sim-bpred -bpred 2lev -bpred:2lev 1 512 10 1 improved_shellsort396275686
	sim-bpred -bpred 2lev -bpred:2lev 1 1024 10 1 improved_shellsort396275686
	sim-bpred -bpred 2lev -bpred:2lev 1 2048 10 1 improved_shellsort396275686
	sim-bpred -bpred 2lev -bpred:2lev 1 4096 10 1 improved_shellsort396275686
	sslittle-na-sstrix-gcc -Wall -O3 -funroll-loops -finline-functions  -DRANDOM_SIZE=16384 -DOFFSET=4 -DSORT=improved_shellsort sorts/improved_shellsort1628358329.c simpleMain.c -o improved_shellsort396275686
	sim-cache -cache:dl1 dl1:256:32:1:l -cache:dl2 dl2:131072:32:1:l -cache:il1 il1:256:32:1:l -cache:il2 dl2 improved_shellsort396275686
	sim-cache -cache:dl1 dl1:256:32:1:l -cache:dl2 dl2:65536:32:1:l -cache:il1 il1:256:32:1:l -cache:il2 dl2 improved_shellsort396275686
	sim-cache -cache:dl1 dl1:1:32:256:l -cache:dl2 dl2:1:32:131072:l -cache:il1 il1:1:32:256:l -cache:il2 dl2 improved_shellsort396275686
	sim-cache -cache:dl1 dl1:1:32:256:l -cache:dl2 dl2:1:32:65536:l -cache:il1 il1:1:32:256:l -cache:il2 dl2 improved_shellsort396275686
	sim-bpred -bpred bimod -bpred:bimod 512 improved_shellsort396275686
	sim-bpred -bpred bimod -bpred:bimod 1024 improved_shellsort396275686
	sim-bpred -bpred bimod -bpred:bimod 2048 improved_shellsort396275686
	sim-bpred -bpred 2lev -bpred:2lev 1 512 10 1 improved_shellsort396275686
	sim-bpred -bpred 2lev -bpred:2lev 1 1024 10 1 improved_shellsort396275686
	sim-bpred -bpred 2lev -bpred:2lev 1 2048 10 1 improved_shellsort396275686
	sim-bpred -bpred 2lev -bpred:2lev 1 4096 10 1 improved_shellsort396275686
	sslittle-na-sstrix-gcc -Wall -O3 -funroll-loops -finline-functions  -DRANDOM_SIZE=32768 -DOFFSET=4 -DSORT=improved_shellsort sorts/improved_shellsort1628358329.c simpleMain.c -o improved_shellsort396275686
	sim-cache -cache:dl1 dl1:256:32:1:l -cache:dl2 dl2:131072:32:1:l -cache:il1 il1:256:32:1:l -cache:il2 dl2 improved_shellsort396275686
	sim-cache -cache:dl1 dl1:256:32:1:l -cache:dl2 dl2:65536:32:1:l -cache:il1 il1:256:32:1:l -cache:il2 dl2 improved_shellsort396275686
	sim-cache -cache:dl1 dl1:1:32:256:l -cache:dl2 dl2:1:32:131072:l -cache:il1 il1:1:32:256:l -cache:il2 dl2 improved_shellsort396275686
	sim-cache -cache:dl1 dl1:1:32:256:l -cache:dl2 dl2:1:32:65536:l -cache:il1 il1:1:32:256:l -cache:il2 dl2 improved_shellsort396275686
	sim-bpred -bpred bimod -bpred:bimod 512 improved_shellsort396275686
	sim-bpred -bpred bimod -bpred:bimod 1024 improved_shellsort396275686
	sim-bpred -bpred bimod -bpred:bimod 2048 improved_shellsort396275686
	sim-bpred -bpred 2lev -bpred:2lev 1 512 10 1 improved_shellsort396275686
	sim-bpred -bpred 2lev -bpred:2lev 1 1024 10 1 improved_shellsort396275686
	sim-bpred -bpred 2lev -bpred:2lev 1 2048 10 1 improved_shellsort396275686
	sim-bpred -bpred 2lev -bpred:2lev 1 4096 10 1 improved_shellsort396275686
	sslittle-na-sstrix-gcc -Wall -O3 -funroll-loops -finline-functions  -DRANDOM_SIZE=65536 -DOFFSET=4 -DSORT=improved_shellsort sorts/improved_shellsort1628358329.c simpleMain.c -o improved_shellsort396275686
	sim-cache -cache:dl1 dl1:256:32:1:l -cache:dl2 dl2:131072:32:1:l -cache:il1 il1:256:32:1:l -cache:il2 dl2 improved_shellsort396275686
	sim-cache -cache:dl1 dl1:256:32:1:l -cache:dl2 dl2:65536:32:1:l -cache:il1 il1:256:32:1:l -cache:il2 dl2 improved_shellsort396275686
	sim-cache -cache:dl1 dl1:1:32:256:l -cache:dl2 dl2:1:32:131072:l -cache:il1 il1:1:32:256:l -cache:il2 dl2 improved_shellsort396275686
	sim-cache -cache:dl1 dl1:1:32:256:l -cache:dl2 dl2:1:32:65536:l -cache:il1 il1:1:32:256:l -cache:il2 dl2 improved_shellsort396275686
	sim-bpred -bpred bimod -bpred:bimod 512 improved_shellsort396275686
	sim-bpred -bpred bimod -bpred:bimod 1024 improved_shellsort396275686
	sim-bpred -bpred bimod -bpred:bimod 2048 improved_shellsort396275686
	sim-bpred -bpred 2lev -bpred:2lev 1 512 10 1 improved_shellsort396275686
	sim-bpred -bpred 2lev -bpred:2lev 1 1024 10 1 improved_shellsort396275686
	sim-bpred -bpred 2lev -bpred:2lev 1 2048 10 1 improved_shellsort396275686
	sim-bpred -bpred 2lev -bpred:2lev 1 4096 10 1 improved_shellsort396275686
	sslittle-na-sstrix-gcc -Wall -O3 -funroll-loops -finline-functions  -DRANDOM_SIZE=131072 -DOFFSET=4 -DSORT=improved_shellsort sorts/improved_shellsort1628358329.c simpleMain.c -o improved_shellsort396275686
	sim-cache -cache:dl1 dl1:256:32:1:l -cache:dl2 dl2:131072:32:1:l -cache:il1 il1:256:32:1:l -cache:il2 dl2 improved_shellsort396275686
	sim-cache -cache:dl1 dl1:256:32:1:l -cache:dl2 dl2:65536:32:1:l -cache:il1 il1:256:32:1:l -cache:il2 dl2 improved_shellsort396275686
	sim-cache -cache:dl1 dl1:1:32:256:l -cache:dl2 dl2:1:32:131072:l -cache:il1 il1:1:32:256:l -cache:il2 dl2 improved_shellsort396275686
	sim-cache -cache:dl1 dl1:1:32:256:l -cache:dl2 dl2:1:32:65536:l -cache:il1 il1:1:32:256:l -cache:il2 dl2 improved_shellsort396275686
	sim-bpred -bpred bimod -bpred:bimod 512 improved_shellsort396275686
	sim-bpred -bpred bimod -bpred:bimod 1024 improved_shellsort396275686
	sim-bpred -bpred bimod -bpred:bimod 2048 improved_shellsort396275686
	sim-bpred -bpred 2lev -bpred:2lev 1 512 10 1 improved_shellsort396275686
	sim-bpred -bpred 2lev -bpred:2lev 1 1024 10 1 improved_shellsort396275686
	sim-bpred -bpred 2lev -bpred:2lev 1 2048 10 1 improved_shellsort396275686
	sim-bpred -bpred 2lev -bpred:2lev 1 4096 10 1 improved_shellsort396275686
	sslittle-na-sstrix-gcc -Wall -O3 -funroll-loops -finline-functions  -DRANDOM_SIZE=262144 -DOFFSET=4 -DSORT=improved_shellsort sorts/improved_shellsort1628358329.c simpleMain.c -o improved_shellsort396275686
	sim-cache -cache:dl1 dl1:256:32:1:l -cache:dl2 dl2:131072:32:1:l -cache:il1 il1:256:32:1:l -cache:il2 dl2 improved_shellsort396275686
	sim-cache -cache:dl1 dl1:256:32:1:l -cache:dl2 dl2:65536:32:1:l -cache:il1 il1:256:32:1:l -cache:il2 dl2 improved_shellsort396275686
	sim-cache -cache:dl1 dl1:1:32:256:l -cache:dl2 dl2:1:32:131072:l -cache:il1 il1:1:32:256:l -cache:il2 dl2 improved_shellsort396275686
	sim-cache -cache:dl1 dl1:1:32:256:l -cache:dl2 dl2:1:32:65536:l -cache:il1 il1:1:32:256:l -cache:il2 dl2 improved_shellsort396275686
	sim-bpred -bpred bimod -bpred:bimod 512 improved_shellsort396275686
	sim-bpred -bpred bimod -bpred:bimod 1024 improved_shellsort396275686
	sim-bpred -bpred bimod -bpred:bimod 2048 improved_shellsort396275686
	sim-bpred -bpred 2lev -bpred:2lev 1 512 10 1 improved_shellsort396275686
	sim-bpred -bpred 2lev -bpred:2lev 1 1024 10 1 improved_shellsort396275686
	sim-bpred -bpred 2lev -bpred:2lev 1 2048 10 1 improved_shellsort396275686
	sim-bpred -bpred 2lev -bpred:2lev 1 4096 10 1 improved_shellsort396275686
	sslittle-na-sstrix-gcc -Wall -O3 -funroll-loops -finline-functions  -DRANDOM_SIZE=524288 -DOFFSET=4 -DSORT=improved_shellsort sorts/improved_shellsort1628358329.c simpleMain.c -o improved_shellsort396275686
	sim-cache -cache:dl1 dl1:256:32:1:l -cache:dl2 dl2:131072:32:1:l -cache:il1 il1:256:32:1:l -cache:il2 dl2 improved_shellsort396275686
	sim-cache -cache:dl1 dl1:256:32:1:l -cache:dl2 dl2:65536:32:1:l -cache:il1 il1:256:32:1:l -cache:il2 dl2 improved_shellsort396275686
	sim-cache -cache:dl1 dl1:1:32:256:l -cache:dl2 dl2:1:32:131072:l -cache:il1 il1:1:32:256:l -cache:il2 dl2 improved_shellsort396275686
	sim-cache -cache:dl1 dl1:1:32:256:l -cache:dl2 dl2:1:32:65536:l -cache:il1 il1:1:32:256:l -cache:il2 dl2 improved_shellsort396275686
	sim-bpred -bpred bimod -bpred:bimod 512 improved_shellsort396275686
	sim-bpred -bpred bimod -bpred:bimod 1024 improved_shellsort396275686
	sim-bpred -bpred bimod -bpred:bimod 2048 improved_shellsort396275686
	sim-bpred -bpred 2lev -bpred:2lev 1 512 10 1 improved_shellsort396275686
	sim-bpred -bpred 2lev -bpred:2lev 1 1024 10 1 improved_shellsort396275686
	sim-bpred -bpred 2lev -bpred:2lev 1 2048 10 1 improved_shellsort396275686
	sim-bpred -bpred 2lev -bpred:2lev 1 4096 10 1 improved_shellsort396275686
	sslittle-na-sstrix-gcc -Wall -O3 -funroll-loops -finline-functions  -DRANDOM_SIZE=1048576 -DOFFSET=4 -DSORT=improved_shellsort sorts/improved_shellsort1628358329.c simpleMain.c -o improved_shellsort396275686
	sim-cache -cache:dl1 dl1:256:32:1:l -cache:dl2 dl2:131072:32:1:l -cache:il1 il1:256:32:1:l -cache:il2 dl2 improved_shellsort396275686
	sim-cache -cache:dl1 dl1:256:32:1:l -cache:dl2 dl2:65536:32:1:l -cache:il1 il1:256:32:1:l -cache:il2 dl2 improved_shellsort396275686
	sim-cache -cache:dl1 dl1:1:32:256:l -cache:dl2 dl2:1:32:131072:l -cache:il1 il1:1:32:256:l -cache:il2 dl2 improved_shellsort396275686
	sim-cache -cache:dl1 dl1:1:32:256:l -cache:dl2 dl2:1:32:65536:l -cache:il1 il1:1:32:256:l -cache:il2 dl2 improved_shellsort396275686
	sim-bpred -bpred bimod -bpred:bimod 512 improved_shellsort396275686
	sim-bpred -bpred bimod -bpred:bimod 1024 improved_shellsort396275686
	sim-bpred -bpred bimod -bpred:bimod 2048 improved_shellsort396275686
	sim-bpred -bpred 2lev -bpred:2lev 1 512 10 1 improved_shellsort396275686
	sim-bpred -bpred 2lev -bpred:2lev 1 1024 10 1 improved_shellsort396275686
	sim-bpred -bpred 2lev -bpred:2lev 1 2048 10 1 improved_shellsort396275686
	sim-bpred -bpred 2lev -bpred:2lev 1 4096 10 1 improved_shellsort396275686
	sslittle-na-sstrix-gcc -Wall -O3 -funroll-loops -finline-functions  -DRANDOM_SIZE=2097152 -DOFFSET=4 -DSORT=improved_shellsort sorts/improved_shellsort1628358329.c simpleMain.c -o improved_shellsort396275686
	sim-cache -cache:dl1 dl1:256:32:1:l -cache:dl2 dl2:131072:32:1:l -cache:il1 il1:256:32:1:l -cache:il2 dl2 improved_shellsort396275686
	sim-cache -cache:dl1 dl1:256:32:1:l -cache:dl2 dl2:65536:32:1:l -cache:il1 il1:256:32:1:l -cache:il2 dl2 improved_shellsort396275686
	sim-cache -cache:dl1 dl1:1:32:256:l -cache:dl2 dl2:1:32:131072:l -cache:il1 il1:1:32:256:l -cache:il2 dl2 improved_shellsort396275686
	sim-cache -cache:dl1 dl1:1:32:256:l -cache:dl2 dl2:1:32:65536:l -cache:il1 il1:1:32:256:l -cache:il2 dl2 improved_shellsort396275686
	sim-bpred -bpred bimod -bpred:bimod 512 improved_shellsort396275686
	sim-bpred -bpred bimod -bpred:bimod 1024 improved_shellsort396275686
	sim-bpred -bpred bimod -bpred:bimod 2048 improved_shellsort396275686
	sim-bpred -bpred 2lev -bpred:2lev 1 512 10 1 improved_shellsort396275686
	sim-bpred -bpred 2lev -bpred:2lev 1 1024 10 1 improved_shellsort396275686
	sim-bpred -bpred 2lev -bpred:2lev 1 2048 10 1 improved_shellsort396275686
	sim-bpred -bpred 2lev -bpred:2lev 1 4096 10 1 improved_shellsort396275686
	sslittle-na-sstrix-gcc -Wall -O3 -funroll-loops -finline-functions  -DRANDOM_SIZE=4194304 -DOFFSET=4 -DSORT=improved_shellsort sorts/improved_shellsort1628358329.c simpleMain.c -o improved_shellsort396275686
	sim-cache -cache:dl1 dl1:256:32:1:l -cache:dl2 dl2:131072:32:1:l -cache:il1 il1:256:32:1:l -cache:il2 dl2 improved_shellsort396275686
	sim-cache -cache:dl1 dl1:256:32:1:l -cache:dl2 dl2:65536:32:1:l -cache:il1 il1:256:32:1:l -cache:il2 dl2 improved_shellsort396275686
	sim-cache -cache:dl1 dl1:1:32:256:l -cache:dl2 dl2:1:32:131072:l -cache:il1 il1:1:32:256:l -cache:il2 dl2 improved_shellsort396275686
	sim-cache -cache:dl1 dl1:1:32:256:l -cache:dl2 dl2:1:32:65536:l -cache:il1 il1:1:32:256:l -cache:il2 dl2 improved_shellsort396275686
	sim-bpred -bpred bimod -bpred:bimod 512 improved_shellsort396275686
	sim-bpred -bpred bimod -bpred:bimod 1024 improved_shellsort396275686
	sim-bpred -bpred bimod -bpred:bimod 2048 improved_shellsort396275686
	sim-bpred -bpred 2lev -bpred:2lev 1 512 10 1 improved_shellsort396275686
	sim-bpred -bpred 2lev -bpred:2lev 1 1024 10 1 improved_shellsort396275686
	sim-bpred -bpred 2lev -bpred:2lev 1 2048 10 1 improved_shellsort396275686
	sim-bpred -bpred 2lev -bpred:2lev 1 4096 10 1 improved_shellsort396275686
