Fri Aug  5 01:41:41 2005
Run as: "./do_simple -c random.org9 -o 9 improved_shellsort"
-------------------------------------------------------------------------------------------------
sim-cache                                     4096 |         4096 |         4096 |         4096 |         8192 |         8192 |         8192 |         8192 |        16384 |        16384 |        16384 |        16384 |        32768 |        32768 |        32768 |        32768 |        65536 |        65536 |        65536 |        65536 |       131072 |       131072 |       131072 |       131072 |       262144 |       262144 |       262144 |       262144 |       524288 |       524288 |       524288 |       524288 |      1048576 |      1048576 |      1048576 |      1048576 |      2097152 |      2097152 |      2097152 |      2097152 |      4194304 |      4194304 |      4194304 |      4194304 |
-cache:dl1 dl1:256:32:1:l -cache:dl2 dl2:131072:32:1:l -cache:il1 il1:256:32:1:l -cache:il2 dl2
-cache:dl1 dl1:256:32:1:l -cache:dl2 dl2:65536:32:1:l -cache:il1 il1:256:32:1:l -cache:il2 dl2
-cache:dl1 dl1:1:32:256:l -cache:dl2 dl2:1:32:131072:l -cache:il1 il1:1:32:256:l -cache:il2 dl2
-cache:dl1 dl1:1:32:256:l -cache:dl2 dl2:1:32:65536:l -cache:il1 il1:1:32:256:l -cache:il2 dl2
-------------------------------------------------------------------------------------------------
sim_num_insn                                891654 |       891654 |       891654 |       891654 |      2034749 |      2034749 |      2034749 |      2034749 |      4553093 |      4553093 |      4553093 |      4553093 |      9999408 |      9999408 |      9999408 |      9999408 |     21241453 |     21241453 |     21241453 |     21241453 |     47485264 |     47485264 |     47485264 |     47485264 |     97516965 |     97516965 |     97516965 |     97516965 |    209617809 |    209617809 |    209617809 |    209617809 |    444763112 |    444763112 |    444763112 |    444763112 |    954521442 |    954521442 |    954521442 |    954521442 |   1993014158 |   1993014158 |   1993014158 |   1993014158 |
sim_num_refs                                190513 |       190513 |       190513 |       190513 |       428331 |       428331 |       428331 |       428331 |       919454 |       919454 |       919454 |       919454 |      1996414 |      1996414 |      1996414 |      1996414 |      4617878 |      4617878 |      4617878 |      4617878 |     10122758 |     10122758 |     10122758 |     10122758 |     20107513 |     20107513 |     20107513 |     20107513 |     42553205 |     42553205 |     42553205 |     42553205 |     88553251 |     88553251 |     88553251 |     88553251 |    191035030 |    191035030 |    191035030 |    191035030 |    386108639 |    386108639 |    386108639 |    386108639 |
sim_elapsed_time                                 1 |            1 |            7 |            3 |            1 |            1 |           10 |            5 |            2 |            1 |           16 |            8 |            3 |            2 |           28 |           15 |            6 |            5 |           51 |           27 |           13 |           12 |           96 |           51 |           25 |           26 |          178 |           91 |           54 |           54 |          312 |          142 |          113 |          114 |          460 |          211 |          243 |          244 |          612 |          357 |          509 |          509 |          907 |          654 |
sim_inst_rate                          891654.0000 |  891654.0000 |  127379.1429 |  297218.0000 | 2034749.0000 | 2034749.0000 |  203474.9000 |  406949.8000 | 2276546.5000 | 4553093.0000 |  284568.3125 |  569136.6250 | 3333136.0000 | 4999704.0000 |  357121.7143 |  666627.2000 | 3540242.1667 | 4248290.6000 |  416499.0784 |  786720.4815 | 3652712.6154 | 3957105.3333 |  494638.1667 |  931083.6078 | 3900678.6000 | 3750652.5000 |  547848.1180 | 1071615.0000 | 3881811.2778 | 3881811.2778 |  671851.9519 | 1476181.7535 | 3935956.7434 | 3901430.8070 |  966876.3304 | 2107882.0474 | 3928071.7778 | 3911973.1230 | 1559675.5588 | 2673729.5294 | 3915548.4440 | 3915548.4440 | 2197369.5237 | 3047422.2599 |
il1.accesses                                891654 |       891654 |       891654 |       891654 |      2034749 |      2034749 |      2034749 |      2034749 |      4553093 |      4553093 |      4553093 |      4553093 |      9999408 |      9999408 |      9999408 |      9999408 |     21241453 |     21241453 |     21241453 |     21241453 |     47485264 |     47485264 |     47485264 |     47485264 |     97516965 |     97516965 |     97516965 |     97516965 |    209617809 |    209617809 |    209617809 |    209617809 |    444763112 |    444763112 |    444763112 |    444763112 |    954521442 |    954521442 |    954521442 |    954521442 |   1993014158 |   1993014158 |   1993014158 |   1993014158 |
il1.hits                                    891231 |       891231 |       891291 |       891291 |      2034323 |      2034323 |      2034383 |      2034383 |      4552676 |      4552676 |      4552730 |      4552730 |      9998981 |      9998981 |      9999041 |      9999041 |     21241026 |     21241026 |     21241086 |     21241086 |     47484838 |     47484838 |     47484898 |     47484898 |     97516540 |     97516540 |     97516600 |     97516600 |    209617383 |    209617383 |    209617443 |    209617443 |    444762686 |    444762686 |    444762746 |    444762746 |    954521016 |    954521016 |    954521076 |    954521076 |   1993013732 |   1993013732 |   1993013792 |   1993013792 |
il1.misses                                     423 |          423 |          363 |          363 |          426 |          426 |          366 |          366 |          417 |          417 |          363 |          363 |          427 |          427 |          367 |          367 |          427 |          427 |          367 |          367 |          426 |          426 |          366 |          366 |          425 |          425 |          365 |          365 |          426 |          426 |          366 |          366 |          426 |          426 |          366 |          366 |          426 |          426 |          366 |          366 |          426 |          426 |          366 |          366 |
il1.replacements                               213 |          213 |          107 |          107 |          213 |          213 |          110 |          110 |          207 |          207 |          107 |          107 |          213 |          213 |          111 |          111 |          213 |          213 |          111 |          111 |          212 |          212 |          110 |          110 |          212 |          212 |          109 |          109 |          212 |          212 |          110 |          110 |          212 |          212 |          110 |          110 |          212 |          212 |          110 |          110 |          212 |          212 |          110 |          110 |
il1.writebacks                                   0 |            0 |            0 |            0 |            0 |            0 |            0 |            0 |            0 |            0 |            0 |            0 |            0 |            0 |            0 |            0 |            0 |            0 |            0 |            0 |            0 |            0 |            0 |            0 |            0 |            0 |            0 |            0 |            0 |            0 |            0 |            0 |            0 |            0 |            0 |            0 |            0 |            0 |            0 |            0 |            0 |            0 |            0 |            0 |
il1.invalidations                                0 |            0 |            0 |            0 |            0 |            0 |            0 |            0 |            0 |            0 |            0 |            0 |            0 |            0 |            0 |            0 |            0 |            0 |            0 |            0 |            0 |            0 |            0 |            0 |            0 |            0 |            0 |            0 |            0 |            0 |            0 |            0 |            0 |            0 |            0 |            0 |            0 |            0 |            0 |            0 |            0 |            0 |            0 |            0 |
il1.miss_rate                               0.0005 |       0.0005 |       0.0004 |       0.0004 |       0.0002 |       0.0002 |       0.0002 |       0.0002 |       0.0001 |       0.0001 |       0.0001 |       0.0001 |       0.0000 |       0.0000 |       0.0000 |       0.0000 |       0.0000 |       0.0000 |       0.0000 |       0.0000 |       0.0000 |       0.0000 |       0.0000 |       0.0000 |       0.0000 |       0.0000 |       0.0000 |       0.0000 |       0.0000 |       0.0000 |       0.0000 |       0.0000 |       0.0000 |       0.0000 |       0.0000 |       0.0000 |       0.0000 |       0.0000 |       0.0000 |       0.0000 |       0.0000 |       0.0000 |       0.0000 |       0.0000 |
il1.repl_rate                               0.0002 |       0.0002 |       0.0001 |       0.0001 |       0.0001 |       0.0001 |       0.0001 |       0.0001 |       0.0000 |       0.0000 |       0.0000 |       0.0000 |       0.0000 |       0.0000 |       0.0000 |       0.0000 |       0.0000 |       0.0000 |       0.0000 |       0.0000 |       0.0000 |       0.0000 |       0.0000 |       0.0000 |       0.0000 |       0.0000 |       0.0000 |       0.0000 |       0.0000 |       0.0000 |       0.0000 |       0.0000 |       0.0000 |       0.0000 |       0.0000 |       0.0000 |       0.0000 |       0.0000 |       0.0000 |       0.0000 |       0.0000 |       0.0000 |       0.0000 |       0.0000 |
il1.wb_rate                                 0.0000 |       0.0000 |       0.0000 |       0.0000 |       0.0000 |       0.0000 |       0.0000 |       0.0000 |       0.0000 |       0.0000 |       0.0000 |       0.0000 |       0.0000 |       0.0000 |       0.0000 |       0.0000 |       0.0000 |       0.0000 |       0.0000 |       0.0000 |       0.0000 |       0.0000 |       0.0000 |       0.0000 |       0.0000 |       0.0000 |       0.0000 |       0.0000 |       0.0000 |       0.0000 |       0.0000 |       0.0000 |       0.0000 |       0.0000 |       0.0000 |       0.0000 |       0.0000 |       0.0000 |       0.0000 |       0.0000 |       0.0000 |       0.0000 |       0.0000 |       0.0000 |
il1.inv_rate                                0.0000 |       0.0000 |       0.0000 |       0.0000 |       0.0000 |       0.0000 |       0.0000 |       0.0000 |       0.0000 |       0.0000 |       0.0000 |       0.0000 |       0.0000 |       0.0000 |       0.0000 |       0.0000 |       0.0000 |       0.0000 |       0.0000 |       0.0000 |       0.0000 |       0.0000 |       0.0000 |       0.0000 |       0.0000 |       0.0000 |       0.0000 |       0.0000 |       0.0000 |       0.0000 |       0.0000 |       0.0000 |       0.0000 |       0.0000 |       0.0000 |       0.0000 |       0.0000 |       0.0000 |       0.0000 |       0.0000 |       0.0000 |       0.0000 |       0.0000 |       0.0000 |
dl1.accesses                                206979 |       206979 |       206979 |       206979 |       461181 |       461181 |       461181 |       461181 |       985072 |       985072 |       985072 |       985072 |      2127568 |      2127568 |      2127568 |      2127568 |      4880104 |      4880104 |      4880104 |      4880104 |     10647128 |     10647128 |     10647128 |     10647128 |     21156171 |     21156171 |     21156171 |     21156171 |     44650439 |     44650439 |     44650439 |     44650439 |     92747637 |     92747637 |     92747637 |     92747637 |    199423720 |    199423720 |    199423720 |    199423720 |    402885937 |    402885937 |    402885937 |    402885937 |
dl1.hits                                    201034 |       201034 |       200635 |       200635 |       445498 |       445498 |       444873 |       444873 |       944506 |       944506 |       943269 |       943269 |      2030540 |      2030540 |      2023795 |      2023795 |      4651056 |      4651056 |      4638605 |      4638605 |     10099555 |     10099555 |     10075691 |     10075691 |     19925764 |     19925764 |     19833410 |     19833410 |     41807367 |     41807367 |     41618268 |     41618268 |     86468353 |     86468353 |     85962268 |     85962268 |    185357449 |    185357449 |    184977108 |    184977108 |    372146979 |    372146979 |    371961931 |    371961931 |
dl1.misses                                    5945 |         5945 |         6344 |         6344 |        15683 |        15683 |        16308 |        16308 |        40566 |        40566 |        41803 |        41803 |        97028 |        97028 |       103773 |       103773 |       229048 |       229048 |       241499 |       241499 |       547573 |       547573 |       571437 |       571437 |      1230407 |      1230407 |      1322761 |      1322761 |      2843072 |      2843072 |      3032171 |      3032171 |      6279284 |      6279284 |      6785369 |      6785369 |     14066271 |     14066271 |     14446612 |     14446612 |     30738958 |     30738958 |     30924006 |     30924006 |
dl1.replacements                              5689 |         5689 |         6088 |         6088 |        15427 |        15427 |        16052 |        16052 |        40310 |        40310 |        41547 |        41547 |        96772 |        96772 |       103517 |       103517 |       228792 |       228792 |       241243 |       241243 |       547317 |       547317 |       571181 |       571181 |      1230151 |      1230151 |      1322505 |      1322505 |      2842816 |      2842816 |      3031915 |      3031915 |      6279028 |      6279028 |      6785113 |      6785113 |     14066015 |     14066015 |     14446356 |     14446356 |     30738702 |     30738702 |     30923750 |     30923750 |
dl1.writebacks                                5574 |         5574 |         5863 |         5863 |        14342 |        14342 |        14846 |        14846 |        36337 |        36337 |        37343 |        37343 |        85904 |        85904 |        91390 |        91390 |       198842 |       198842 |       209408 |       209408 |       471254 |       471254 |       491727 |       491727 |      1054748 |      1054748 |      1130626 |      1130626 |      2424088 |      2424088 |      2584107 |      2584107 |      5347763 |      5347763 |      5761520 |      5761520 |     11943311 |     11943311 |     12259159 |     12259159 |     26047103 |     26047103 |     26172332 |     26172332 |
dl1.invalidations                                0 |            0 |            0 |            0 |            0 |            0 |            0 |            0 |            0 |            0 |            0 |            0 |            0 |            0 |            0 |            0 |            0 |            0 |            0 |            0 |            0 |            0 |            0 |            0 |            0 |            0 |            0 |            0 |            0 |            0 |            0 |            0 |            0 |            0 |            0 |            0 |            0 |            0 |            0 |            0 |            0 |            0 |            0 |            0 |
dl1.miss_rate                               0.0287 |       0.0287 |       0.0307 |       0.0307 |       0.0340 |       0.0340 |       0.0354 |       0.0354 |       0.0412 |       0.0412 |       0.0424 |       0.0424 |       0.0456 |       0.0456 |       0.0488 |       0.0488 |       0.0469 |       0.0469 |       0.0495 |       0.0495 |       0.0514 |       0.0514 |       0.0537 |       0.0537 |       0.0582 |       0.0582 |       0.0625 |       0.0625 |       0.0637 |       0.0637 |       0.0679 |       0.0679 |       0.0677 |       0.0677 |       0.0732 |       0.0732 |       0.0705 |       0.0705 |       0.0724 |       0.0724 |       0.0763 |       0.0763 |       0.0768 |       0.0768 |
dl1.repl_rate                               0.0275 |       0.0275 |       0.0294 |       0.0294 |       0.0335 |       0.0335 |       0.0348 |       0.0348 |       0.0409 |       0.0409 |       0.0422 |       0.0422 |       0.0455 |       0.0455 |       0.0487 |       0.0487 |       0.0469 |       0.0469 |       0.0494 |       0.0494 |       0.0514 |       0.0514 |       0.0536 |       0.0536 |       0.0581 |       0.0581 |       0.0625 |       0.0625 |       0.0637 |       0.0637 |       0.0679 |       0.0679 |       0.0677 |       0.0677 |       0.0732 |       0.0732 |       0.0705 |       0.0705 |       0.0724 |       0.0724 |       0.0763 |       0.0763 |       0.0768 |       0.0768 |
dl1.wb_rate                                 0.0269 |       0.0269 |       0.0283 |       0.0283 |       0.0311 |       0.0311 |       0.0322 |       0.0322 |       0.0369 |       0.0369 |       0.0379 |       0.0379 |       0.0404 |       0.0404 |       0.0430 |       0.0430 |       0.0407 |       0.0407 |       0.0429 |       0.0429 |       0.0443 |       0.0443 |       0.0462 |       0.0462 |       0.0499 |       0.0499 |       0.0534 |       0.0534 |       0.0543 |       0.0543 |       0.0579 |       0.0579 |       0.0577 |       0.0577 |       0.0621 |       0.0621 |       0.0599 |       0.0599 |       0.0615 |       0.0615 |       0.0647 |       0.0647 |       0.0650 |       0.0650 |
dl1.inv_rate                                0.0000 |       0.0000 |       0.0000 |       0.0000 |       0.0000 |       0.0000 |       0.0000 |       0.0000 |       0.0000 |       0.0000 |       0.0000 |       0.0000 |       0.0000 |       0.0000 |       0.0000 |       0.0000 |       0.0000 |       0.0000 |       0.0000 |       0.0000 |       0.0000 |       0.0000 |       0.0000 |       0.0000 |       0.0000 |       0.0000 |       0.0000 |       0.0000 |       0.0000 |       0.0000 |       0.0000 |       0.0000 |       0.0000 |       0.0000 |       0.0000 |       0.0000 |       0.0000 |       0.0000 |       0.0000 |       0.0000 |       0.0000 |       0.0000 |       0.0000 |       0.0000 |
dl2.accesses                                 11942 |        11942 |        12570 |        12570 |        30451 |        30451 |        31520 |        31520 |        77320 |        77320 |        79509 |        79509 |       183359 |       183359 |       195530 |       195530 |       428317 |       428317 |       451274 |       451274 |      1019253 |      1019253 |      1063530 |      1063530 |      2285580 |      2285580 |      2453752 |      2453752 |      5267586 |      5267586 |      5616644 |      5616644 |     11627473 |     11627473 |     12547255 |     12547255 |     26010008 |     26010008 |     26706137 |     26706137 |     56786487 |     56786487 |     57096704 |     57096704 |
dl2.hits                                     10652 |        10652 |        11284 |        11284 |        28646 |        28646 |        29719 |        29719 |        74495 |        74495 |        76690 |        76690 |       178481 |       178481 |       190656 |       190656 |       419343 |       419343 |       442304 |       442304 |      1002088 |      1002088 |      1046369 |      1046369 |      2252032 |      2252032 |      2420208 |      2420208 |      5201269 |      5201162 |      5550331 |      5317733 |     11495511 |      9300256 |     11936716 |     10117164 |     21095284 |     20271754 |     21585306 |     20806495 |     44787936 |     42875843 |     44774423 |     42836308 |
dl2.misses                                    1290 |         1290 |         1286 |         1286 |         1805 |         1805 |         1801 |         1801 |         2825 |         2825 |         2819 |         2819 |         4878 |         4878 |         4874 |         4874 |         8974 |         8974 |         8970 |         8970 |        17165 |        17165 |        17161 |        17161 |        33548 |        33548 |        33544 |        33544 |        66317 |        66424 |        66313 |       298911 |       131962 |      2327217 |       610539 |      2430091 |      4914724 |      5738254 |      5120831 |      5899642 |     11998551 |     13910644 |     12322281 |     14260396 |
dl2.replacements                                57 |           57 |            0 |            0 |           58 |           58 |            0 |            0 |           63 |           63 |            0 |            0 |           59 |           59 |            0 |            0 |           59 |           59 |            0 |            0 |           59 |           59 |            0 |            0 |           59 |           59 |            0 |            0 |           59 |          888 |            0 |       233375 |          890 |      2261681 |       479467 |      2364555 |      4783652 |      5672718 |      4989759 |      5834106 |     11867479 |     13845108 |     12191209 |     14194860 |
dl2.writebacks                                   2 |            2 |            0 |            0 |            2 |            2 |            0 |            0 |            2 |            2 |            0 |            0 |            2 |            2 |            0 |            0 |            2 |            2 |            0 |            0 |            2 |            2 |            0 |            0 |            2 |            2 |            0 |            0 |            2 |          694 |            0 |       233228 |          699 |      2236074 |       479321 |      2314635 |      4732438 |      5394908 |      4890012 |      5526458 |     11312911 |     12829653 |     11576525 |     13105972 |
dl2.invalidations                                0 |            0 |            0 |            0 |            0 |            0 |            0 |            0 |            0 |            0 |            0 |            0 |            0 |            0 |            0 |            0 |            0 |            0 |            0 |            0 |            0 |            0 |            0 |            0 |            0 |            0 |            0 |            0 |            0 |            0 |            0 |            0 |            0 |            0 |            0 |            0 |            0 |            0 |            0 |            0 |            0 |            0 |            0 |            0 |
dl2.miss_rate                               0.1080 |       0.1080 |       0.1023 |       0.1023 |       0.0593 |       0.0593 |       0.0571 |       0.0571 |       0.0365 |       0.0365 |       0.0355 |       0.0355 |       0.0266 |       0.0266 |       0.0249 |       0.0249 |       0.0210 |       0.0210 |       0.0199 |       0.0199 |       0.0168 |       0.0168 |       0.0161 |       0.0161 |       0.0147 |       0.0147 |       0.0137 |       0.0137 |       0.0126 |       0.0126 |       0.0118 |       0.0532 |       0.0113 |       0.2001 |       0.0487 |       0.1937 |       0.1890 |       0.2206 |       0.1917 |       0.2209 |       0.2113 |       0.2450 |       0.2158 |       0.2498 |
dl2.repl_rate                               0.0048 |       0.0048 |       0.0000 |       0.0000 |       0.0019 |       0.0019 |       0.0000 |       0.0000 |       0.0008 |       0.0008 |       0.0000 |       0.0000 |       0.0003 |       0.0003 |       0.0000 |       0.0000 |       0.0001 |       0.0001 |       0.0000 |       0.0000 |       0.0001 |       0.0001 |       0.0000 |       0.0000 |       0.0000 |       0.0000 |       0.0000 |       0.0000 |       0.0000 |       0.0002 |       0.0000 |       0.0416 |       0.0001 |       0.1945 |       0.0382 |       0.1885 |       0.1839 |       0.2181 |       0.1868 |       0.2185 |       0.2090 |       0.2438 |       0.2135 |       0.2486 |
dl2.wb_rate                                 0.0002 |       0.0002 |       0.0000 |       0.0000 |       0.0001 |       0.0001 |       0.0000 |       0.0000 |       0.0000 |       0.0000 |       0.0000 |       0.0000 |       0.0000 |       0.0000 |       0.0000 |       0.0000 |       0.0000 |       0.0000 |       0.0000 |       0.0000 |       0.0000 |       0.0000 |       0.0000 |       0.0000 |       0.0000 |       0.0000 |       0.0000 |       0.0000 |       0.0000 |       0.0001 |       0.0000 |       0.0415 |       0.0001 |       0.1923 |       0.0382 |       0.1845 |       0.1819 |       0.2074 |       0.1831 |       0.2069 |       0.1992 |       0.2259 |       0.2028 |       0.2295 |
dl2.inv_rate                                0.0000 |       0.0000 |       0.0000 |       0.0000 |       0.0000 |       0.0000 |       0.0000 |       0.0000 |       0.0000 |       0.0000 |       0.0000 |       0.0000 |       0.0000 |       0.0000 |       0.0000 |       0.0000 |       0.0000 |       0.0000 |       0.0000 |       0.0000 |       0.0000 |       0.0000 |       0.0000 |       0.0000 |       0.0000 |       0.0000 |       0.0000 |       0.0000 |       0.0000 |       0.0000 |       0.0000 |       0.0000 |       0.0000 |       0.0000 |       0.0000 |       0.0000 |       0.0000 |       0.0000 |       0.0000 |       0.0000 |       0.0000 |       0.0000 |       0.0000 |       0.0000 |
itlb.accesses                               891654 |       891654 |       891654 |       891654 |      2034749 |      2034749 |      2034749 |      2034749 |      4553093 |      4553093 |      4553093 |      4553093 |      9999408 |      9999408 |      9999408 |      9999408 |     21241453 |     21241453 |     21241453 |     21241453 |     47485264 |     47485264 |     47485264 |     47485264 |     97516965 |     97516965 |     97516965 |     97516965 |    209617809 |    209617809 |    209617809 |    209617809 |    444763112 |    444763112 |    444763112 |    444763112 |    954521442 |    954521442 |    954521442 |    954521442 |   1993014158 |   1993014158 |   1993014158 |   1993014158 |
itlb.hits                                   891645 |       891645 |       891645 |       891645 |      2034740 |      2034740 |      2034740 |      2034740 |      4553084 |      4553084 |      4553084 |      4553084 |      9999398 |      9999398 |      9999398 |      9999398 |     21241443 |     21241443 |     21241443 |     21241443 |     47485254 |     47485254 |     47485254 |     47485254 |     97516955 |     97516955 |     97516955 |     97516955 |    209617799 |    209617799 |    209617799 |    209617799 |    444763102 |    444763102 |    444763102 |    444763102 |    954521432 |    954521432 |    954521432 |    954521432 |   1993014148 |   1993014148 |   1993014148 |   1993014148 |
itlb.misses                                      9 |            9 |            9 |            9 |            9 |            9 |            9 |            9 |            9 |            9 |            9 |            9 |           10 |           10 |           10 |           10 |           10 |           10 |           10 |           10 |           10 |           10 |           10 |           10 |           10 |           10 |           10 |           10 |           10 |           10 |           10 |           10 |           10 |           10 |           10 |           10 |           10 |           10 |           10 |           10 |           10 |           10 |           10 |           10 |
itlb.replacements                                0 |            0 |            0 |            0 |            0 |            0 |            0 |            0 |            0 |            0 |            0 |            0 |            0 |            0 |            0 |            0 |            0 |            0 |            0 |            0 |            0 |            0 |            0 |            0 |            0 |            0 |            0 |            0 |            0 |            0 |            0 |            0 |            0 |            0 |            0 |            0 |            0 |            0 |            0 |            0 |            0 |            0 |            0 |            0 |
itlb.writebacks                                  0 |            0 |            0 |            0 |            0 |            0 |            0 |            0 |            0 |            0 |            0 |            0 |            0 |            0 |            0 |            0 |            0 |            0 |            0 |            0 |            0 |            0 |            0 |            0 |            0 |            0 |            0 |            0 |            0 |            0 |            0 |            0 |            0 |            0 |            0 |            0 |            0 |            0 |            0 |            0 |            0 |            0 |            0 |            0 |
itlb.invalidations                               0 |            0 |            0 |            0 |            0 |            0 |            0 |            0 |            0 |            0 |            0 |            0 |            0 |            0 |            0 |            0 |            0 |            0 |            0 |            0 |            0 |            0 |            0 |            0 |            0 |            0 |            0 |            0 |            0 |            0 |            0 |            0 |            0 |            0 |            0 |            0 |            0 |            0 |            0 |            0 |            0 |            0 |            0 |            0 |
itlb.miss_rate                              0.0000 |       0.0000 |       0.0000 |       0.0000 |       0.0000 |       0.0000 |       0.0000 |       0.0000 |       0.0000 |       0.0000 |       0.0000 |       0.0000 |       0.0000 |       0.0000 |       0.0000 |       0.0000 |       0.0000 |       0.0000 |       0.0000 |       0.0000 |       0.0000 |       0.0000 |       0.0000 |       0.0000 |       0.0000 |       0.0000 |       0.0000 |       0.0000 |       0.0000 |       0.0000 |       0.0000 |       0.0000 |       0.0000 |       0.0000 |       0.0000 |       0.0000 |       0.0000 |       0.0000 |       0.0000 |       0.0000 |       0.0000 |       0.0000 |       0.0000 |       0.0000 |
itlb.repl_rate                              0.0000 |       0.0000 |       0.0000 |       0.0000 |       0.0000 |       0.0000 |       0.0000 |       0.0000 |       0.0000 |       0.0000 |       0.0000 |       0.0000 |       0.0000 |       0.0000 |       0.0000 |       0.0000 |       0.0000 |       0.0000 |       0.0000 |       0.0000 |       0.0000 |       0.0000 |       0.0000 |       0.0000 |       0.0000 |       0.0000 |       0.0000 |       0.0000 |       0.0000 |       0.0000 |       0.0000 |       0.0000 |       0.0000 |       0.0000 |       0.0000 |       0.0000 |       0.0000 |       0.0000 |       0.0000 |       0.0000 |       0.0000 |       0.0000 |       0.0000 |       0.0000 |
itlb.wb_rate                                0.0000 |       0.0000 |       0.0000 |       0.0000 |       0.0000 |       0.0000 |       0.0000 |       0.0000 |       0.0000 |       0.0000 |       0.0000 |       0.0000 |       0.0000 |       0.0000 |       0.0000 |       0.0000 |       0.0000 |       0.0000 |       0.0000 |       0.0000 |       0.0000 |       0.0000 |       0.0000 |       0.0000 |       0.0000 |       0.0000 |       0.0000 |       0.0000 |       0.0000 |       0.0000 |       0.0000 |       0.0000 |       0.0000 |       0.0000 |       0.0000 |       0.0000 |       0.0000 |       0.0000 |       0.0000 |       0.0000 |       0.0000 |       0.0000 |       0.0000 |       0.0000 |
itlb.inv_rate                               0.0000 |       0.0000 |       0.0000 |       0.0000 |       0.0000 |       0.0000 |       0.0000 |       0.0000 |       0.0000 |       0.0000 |       0.0000 |       0.0000 |       0.0000 |       0.0000 |       0.0000 |       0.0000 |       0.0000 |       0.0000 |       0.0000 |       0.0000 |       0.0000 |       0.0000 |       0.0000 |       0.0000 |       0.0000 |       0.0000 |       0.0000 |       0.0000 |       0.0000 |       0.0000 |       0.0000 |       0.0000 |       0.0000 |       0.0000 |       0.0000 |       0.0000 |       0.0000 |       0.0000 |       0.0000 |       0.0000 |       0.0000 |       0.0000 |       0.0000 |       0.0000 |
dtlb.accesses                               206979 |       206979 |       206979 |       206979 |       461181 |       461181 |       461181 |       461181 |       985072 |       985072 |       985072 |       985072 |      2127568 |      2127568 |      2127568 |      2127568 |      4880104 |      4880104 |      4880104 |      4880104 |     10647128 |     10647128 |     10647128 |     10647128 |     21156171 |     21156171 |     21156171 |     21156171 |     44650439 |     44650439 |     44650439 |     44650439 |     92747637 |     92747637 |     92747637 |     92747637 |    199423720 |    199423720 |    199423720 |    199423720 |    402885937 |    402885937 |    402885937 |    402885937 |
dtlb.hits                                   206968 |       206968 |       206968 |       206968 |       461166 |       461166 |       461166 |       461166 |       985049 |       985049 |       985049 |       985049 |      2127529 |      2127529 |      2127529 |      2127529 |      4880033 |      4880033 |      4880033 |      4880033 |     10646929 |     10646929 |     10646929 |     10646929 |     21151166 |     21151166 |     21151166 |     21151166 |     44636077 |     44636077 |     44636077 |     44636077 |     92601621 |     92601621 |     92601621 |     92601621 |    199327814 |    199327814 |    199327814 |    199327814 |    402653076 |    402653076 |    402653076 |    402653076 |
dtlb.misses                                     11 |           11 |           11 |           11 |           15 |           15 |           15 |           15 |           23 |           23 |           23 |           23 |           39 |           39 |           39 |           39 |           71 |           71 |           71 |           71 |          199 |          199 |          199 |          199 |         5005 |         5005 |         5005 |         5005 |        14362 |        14362 |        14362 |        14362 |       146016 |       146016 |       146016 |       146016 |        95906 |        95906 |        95906 |        95906 |       232861 |       232861 |       232861 |       232861 |
dtlb.replacements                                0 |            0 |            0 |            0 |            0 |            0 |            0 |            0 |            0 |            0 |            0 |            0 |            0 |            0 |            0 |            0 |            0 |            0 |            0 |            0 |           71 |           71 |           71 |           71 |         4877 |         4877 |         4877 |         4877 |        14234 |        14234 |        14234 |        14234 |       145888 |       145888 |       145888 |       145888 |        95778 |        95778 |        95778 |        95778 |       232733 |       232733 |       232733 |       232733 |
dtlb.writebacks                                  0 |            0 |            0 |            0 |            0 |            0 |            0 |            0 |            0 |            0 |            0 |            0 |            0 |            0 |            0 |            0 |            0 |            0 |            0 |            0 |           69 |           69 |           69 |           69 |         4796 |         4796 |         4796 |         4796 |        13674 |        13674 |        13674 |        13674 |       124771 |       124771 |       124771 |       124771 |        89996 |        89996 |        89996 |        89996 |       217095 |       217095 |       217095 |       217095 |
dtlb.invalidations                               0 |            0 |            0 |            0 |            0 |            0 |            0 |            0 |            0 |            0 |            0 |            0 |            0 |            0 |            0 |            0 |            0 |            0 |            0 |            0 |            0 |            0 |            0 |            0 |            0 |            0 |            0 |            0 |            0 |            0 |            0 |            0 |            0 |            0 |            0 |            0 |            0 |            0 |            0 |            0 |            0 |            0 |            0 |            0 |
dtlb.miss_rate                              0.0001 |       0.0001 |       0.0001 |       0.0001 |       0.0000 |       0.0000 |       0.0000 |       0.0000 |       0.0000 |       0.0000 |       0.0000 |       0.0000 |       0.0000 |       0.0000 |       0.0000 |       0.0000 |       0.0000 |       0.0000 |       0.0000 |       0.0000 |       0.0000 |       0.0000 |       0.0000 |       0.0000 |       0.0002 |       0.0002 |       0.0002 |       0.0002 |       0.0003 |       0.0003 |       0.0003 |       0.0003 |       0.0016 |       0.0016 |       0.0016 |       0.0016 |       0.0005 |       0.0005 |       0.0005 |       0.0005 |       0.0006 |       0.0006 |       0.0006 |       0.0006 |
dtlb.repl_rate                              0.0000 |       0.0000 |       0.0000 |       0.0000 |       0.0000 |       0.0000 |       0.0000 |       0.0000 |       0.0000 |       0.0000 |       0.0000 |       0.0000 |       0.0000 |       0.0000 |       0.0000 |       0.0000 |       0.0000 |       0.0000 |       0.0000 |       0.0000 |       0.0000 |       0.0000 |       0.0000 |       0.0000 |       0.0002 |       0.0002 |       0.0002 |       0.0002 |       0.0003 |       0.0003 |       0.0003 |       0.0003 |       0.0016 |       0.0016 |       0.0016 |       0.0016 |       0.0005 |       0.0005 |       0.0005 |       0.0005 |       0.0006 |       0.0006 |       0.0006 |       0.0006 |
dtlb.wb_rate                                0.0000 |       0.0000 |       0.0000 |       0.0000 |       0.0000 |       0.0000 |       0.0000 |       0.0000 |       0.0000 |       0.0000 |       0.0000 |       0.0000 |       0.0000 |       0.0000 |       0.0000 |       0.0000 |       0.0000 |       0.0000 |       0.0000 |       0.0000 |       0.0000 |       0.0000 |       0.0000 |       0.0000 |       0.0002 |       0.0002 |       0.0002 |       0.0002 |       0.0003 |       0.0003 |       0.0003 |       0.0003 |       0.0013 |       0.0013 |       0.0013 |       0.0013 |       0.0005 |       0.0005 |       0.0005 |       0.0005 |       0.0005 |       0.0005 |       0.0005 |       0.0005 |
dtlb.inv_rate                               0.0000 |       0.0000 |       0.0000 |       0.0000 |       0.0000 |       0.0000 |       0.0000 |       0.0000 |       0.0000 |       0.0000 |       0.0000 |       0.0000 |       0.0000 |       0.0000 |       0.0000 |       0.0000 |       0.0000 |       0.0000 |       0.0000 |       0.0000 |       0.0000 |       0.0000 |       0.0000 |       0.0000 |       0.0000 |       0.0000 |       0.0000 |       0.0000 |       0.0000 |       0.0000 |       0.0000 |       0.0000 |       0.0000 |       0.0000 |       0.0000 |       0.0000 |       0.0000 |       0.0000 |       0.0000 |       0.0000 |       0.0000 |       0.0000 |       0.0000 |       0.0000 |
ld_text_base                            0x00400000 |   0x00400000 |   0x00400000 |   0x00400000 |   0x00400000 |   0x00400000 |   0x00400000 |   0x00400000 |   0x00400000 |   0x00400000 |   0x00400000 |   0x00400000 |   0x00400000 |   0x00400000 |   0x00400000 |   0x00400000 |   0x00400000 |   0x00400000 |   0x00400000 |   0x00400000 |   0x00400000 |   0x00400000 |   0x00400000 |   0x00400000 |   0x00400000 |   0x00400000 |   0x00400000 |   0x00400000 |   0x00400000 |   0x00400000 |   0x00400000 |   0x00400000 |   0x00400000 |   0x00400000 |   0x00400000 |   0x00400000 |   0x00400000 |   0x00400000 |   0x00400000 |   0x00400000 |   0x00400000 |   0x00400000 |   0x00400000 |   0x00400000 |
ld_text_size                                 72720 |        72720 |        72720 |        72720 |        72752 |        72752 |        72752 |        72752 |        72768 |        72768 |        72768 |        72768 |        72784 |        72784 |        72784 |        72784 |        72784 |        72784 |        72784 |        72784 |        72784 |        72784 |        72784 |        72784 |        72784 |        72784 |        72784 |        72784 |        72784 |        72784 |        72784 |        72784 |        72784 |        72784 |        72784 |        72784 |        72784 |        72784 |        72784 |        72784 |        72784 |        72784 |        72784 |        72784 |
ld_data_base                            0x10000000 |   0x10000000 |   0x10000000 |   0x10000000 |   0x10000000 |   0x10000000 |   0x10000000 |   0x10000000 |   0x10000000 |   0x10000000 |   0x10000000 |   0x10000000 |   0x10000000 |   0x10000000 |   0x10000000 |   0x10000000 |   0x10000000 |   0x10000000 |   0x10000000 |   0x10000000 |   0x10000000 |   0x10000000 |   0x10000000 |   0x10000000 |   0x10000000 |   0x10000000 |   0x10000000 |   0x10000000 |   0x10000000 |   0x10000000 |   0x10000000 |   0x10000000 |   0x10000000 |   0x10000000 |   0x10000000 |   0x10000000 |   0x10000000 |   0x10000000 |   0x10000000 |   0x10000000 |   0x10000000 |   0x10000000 |   0x10000000 |   0x10000000 |
ld_data_size                                  8192 |         8192 |         8192 |         8192 |         8192 |         8192 |         8192 |         8192 |         8192 |         8192 |         8192 |         8192 |         8192 |         8192 |         8192 |         8192 |         8192 |         8192 |         8192 |         8192 |         8192 |         8192 |         8192 |         8192 |         8192 |         8192 |         8192 |         8192 |         8192 |         8192 |         8192 |         8192 |         8192 |         8192 |         8192 |         8192 |         8192 |         8192 |         8192 |         8192 |         8192 |         8192 |         8192 |         8192 |
ld_stack_base                           0x7fffc000 |   0x7fffc000 |   0x7fffc000 |   0x7fffc000 |   0x7fffc000 |   0x7fffc000 |   0x7fffc000 |   0x7fffc000 |   0x7fffc000 |   0x7fffc000 |   0x7fffc000 |   0x7fffc000 |   0x7fffc000 |   0x7fffc000 |   0x7fffc000 |   0x7fffc000 |   0x7fffc000 |   0x7fffc000 |   0x7fffc000 |   0x7fffc000 |   0x7fffc000 |   0x7fffc000 |   0x7fffc000 |   0x7fffc000 |   0x7fffc000 |   0x7fffc000 |   0x7fffc000 |   0x7fffc000 |   0x7fffc000 |   0x7fffc000 |   0x7fffc000 |   0x7fffc000 |   0x7fffc000 |   0x7fffc000 |   0x7fffc000 |   0x7fffc000 |   0x7fffc000 |   0x7fffc000 |   0x7fffc000 |   0x7fffc000 |   0x7fffc000 |   0x7fffc000 |   0x7fffc000 |   0x7fffc000 |
ld_stack_size                                16384 |        16384 |        16384 |        16384 |        16384 |        16384 |        16384 |        16384 |        16384 |        16384 |        16384 |        16384 |        16384 |        16384 |        16384 |        16384 |        16384 |        16384 |        16384 |        16384 |        16384 |        16384 |        16384 |        16384 |        16384 |        16384 |        16384 |        16384 |        16384 |        16384 |        16384 |        16384 |        16384 |        16384 |        16384 |        16384 |        16384 |        16384 |        16384 |        16384 |        16384 |        16384 |        16384 |        16384 |
ld_prog_entry                           0x00400140 |   0x00400140 |   0x00400140 |   0x00400140 |   0x00400140 |   0x00400140 |   0x00400140 |   0x00400140 |   0x00400140 |   0x00400140 |   0x00400140 |   0x00400140 |   0x00400140 |   0x00400140 |   0x00400140 |   0x00400140 |   0x00400140 |   0x00400140 |   0x00400140 |   0x00400140 |   0x00400140 |   0x00400140 |   0x00400140 |   0x00400140 |   0x00400140 |   0x00400140 |   0x00400140 |   0x00400140 |   0x00400140 |   0x00400140 |   0x00400140 |   0x00400140 |   0x00400140 |   0x00400140 |   0x00400140 |   0x00400140 |   0x00400140 |   0x00400140 |   0x00400140 |   0x00400140 |   0x00400140 |   0x00400140 |   0x00400140 |   0x00400140 |
ld_environ_base                         0x7fff8000 |   0x7fff8000 |   0x7fff8000 |   0x7fff8000 |   0x7fff8000 |   0x7fff8000 |   0x7fff8000 |   0x7fff8000 |   0x7fff8000 |   0x7fff8000 |   0x7fff8000 |   0x7fff8000 |   0x7fff8000 |   0x7fff8000 |   0x7fff8000 |   0x7fff8000 |   0x7fff8000 |   0x7fff8000 |   0x7fff8000 |   0x7fff8000 |   0x7fff8000 |   0x7fff8000 |   0x7fff8000 |   0x7fff8000 |   0x7fff8000 |   0x7fff8000 |   0x7fff8000 |   0x7fff8000 |   0x7fff8000 |   0x7fff8000 |   0x7fff8000 |   0x7fff8000 |   0x7fff8000 |   0x7fff8000 |   0x7fff8000 |   0x7fff8000 |   0x7fff8000 |   0x7fff8000 |   0x7fff8000 |   0x7fff8000 |   0x7fff8000 |   0x7fff8000 |   0x7fff8000 |   0x7fff8000 |
ld_target_big_endian                             0 |            0 |            0 |            0 |            0 |            0 |            0 |            0 |            0 |            0 |            0 |            0 |            0 |            0 |            0 |            0 |            0 |            0 |            0 |            0 |            0 |            0 |            0 |            0 |            0 |            0 |            0 |            0 |            0 |            0 |            0 |            0 |            0 |            0 |            0 |            0 |            0 |            0 |            0 |            0 |            0 |            0 |            0 |            0 |
mem.page_count                                  29 |           29 |           29 |           29 |           33 |           33 |           33 |           33 |           41 |           41 |           41 |           41 |           57 |           57 |           57 |           57 |           89 |           89 |           89 |           89 |          153 |          153 |          153 |          153 |          281 |          281 |          281 |          281 |          537 |          537 |          537 |          537 |         1049 |         1049 |         1049 |         1049 |         2073 |         2073 |         2073 |         2073 |         4121 |         4121 |         4121 |         4121 |
mem.page_mem                                  116k |         116k |         116k |         116k |         132k |         132k |         132k |         132k |         164k |         164k |         164k |         164k |         228k |         228k |         228k |         228k |         356k |         356k |         356k |         356k |         612k |         612k |         612k |         612k |        1124k |        1124k |        1124k |        1124k |        2148k |        2148k |        2148k |        2148k |        4196k |        4196k |        4196k |        4196k |        8292k |        8292k |        8292k |        8292k |       16484k |       16484k |       16484k |       16484k |
mem.ptab_misses                                 29 |           29 |           29 |           29 |           33 |           33 |           33 |           33 |           41 |           41 |           41 |           41 |           57 |           57 |           57 |           57 |           89 |           89 |           89 |           89 |          153 |          153 |          153 |          153 |          281 |          281 |          281 |          281 |          537 |          537 |          537 |          537 |         1049 |         1049 |         1049 |         1049 |         2073 |         2073 |         2073 |         2073 |         4121 |         4121 |         4121 |         4121 |
mem.ptab_accesses                          4431478 |      4431478 |      4431478 |      4431478 |      9512454 |      9512454 |      9512454 |      9512454 |     20633708 |     20633708 |     20633708 |     20633708 |     44704056 |     44704056 |     44704056 |     44704056 |     95177308 |     95177308 |     95177308 |     95177308 |    211686600 |    211686600 |    211686600 |    211686600 |    432831490 |    432831490 |    432831490 |    432831490 |    928223402 |    928223402 |    928223402 |    928223402 |   1964999010 |   1964999010 |   1964999010 |   1964999010 |   4217384496 |   4217384496 |   4217384496 |   4217384496 |   8778279794 |   8778279794 |   8778279794 |   8778279794 |
mem.ptab_miss_rate                          0.0000 |       0.0000 |       0.0000 |       0.0000 |       0.0000 |       0.0000 |       0.0000 |       0.0000 |       0.0000 |       0.0000 |       0.0000 |       0.0000 |       0.0000 |       0.0000 |       0.0000 |       0.0000 |       0.0000 |       0.0000 |       0.0000 |       0.0000 |       0.0000 |       0.0000 |       0.0000 |       0.0000 |       0.0000 |       0.0000 |       0.0000 |       0.0000 |       0.0000 |       0.0000 |       0.0000 |       0.0000 |       0.0000 |       0.0000 |       0.0000 |       0.0000 |       0.0000 |       0.0000 |       0.0000 |       0.0000 |       0.0000 |       0.0000 |       0.0000 |       0.0000 |
-------------------------------------------------------------------------------------------------
sim-bpred                                     4096 |         4096 |         4096 |         4096 |         4096 |         4096 |         4096 |         8192 |         8192 |         8192 |         8192 |         8192 |         8192 |         8192 |        16384 |        16384 |        16384 |        16384 |        16384 |        16384 |        16384 |        32768 |        32768 |        32768 |        32768 |        32768 |        32768 |        32768 |        65536 |        65536 |        65536 |        65536 |        65536 |        65536 |        65536 |       131072 |       131072 |       131072 |       131072 |       131072 |       131072 |       131072 |       262144 |       262144 |       262144 |       262144 |       262144 |       262144 |       262144 |       524288 |       524288 |       524288 |       524288 |       524288 |       524288 |       524288 |      1048576 |      1048576 |      1048576 |      1048576 |      1048576 |      1048576 |      1048576 |      2097152 |      2097152 |      2097152 |      2097152 |      2097152 |      2097152 |      2097152 |      4194304 |      4194304 |      4194304 |      4194304 |      4194304 |      4194304 |      4194304 |
-bpred bimod -bpred:bimod 512
-bpred bimod -bpred:bimod 1024
-bpred bimod -bpred:bimod 2048
-bpred 2lev -bpred:2lev 1 512 10 1
-bpred 2lev -bpred:2lev 1 1024 10 1
-bpred 2lev -bpred:2lev 1 2048 10 1
-bpred 2lev -bpred:2lev 1 4096 10 1
-------------------------------------------------------------------------------------------------
sim_num_insn                                891654 |       891654 |       891654 |       891654 |       891654 |       891654 |       891654 |      2034749 |      2034749 |      2034749 |      2034749 |      2034749 |      2034749 |      2034749 |      4553093 |      4553093 |      4553093 |      4553093 |      4553093 |      4553093 |      4553093 |      9999408 |      9999408 |      9999408 |      9999408 |      9999408 |      9999408 |      9999408 |     21241453 |     21241453 |     21241453 |     21241453 |     21241453 |     21241453 |     21241453 |     47485264 |     47485264 |     47485264 |     47485264 |     47485264 |     47485264 |     47485264 |     97516965 |     97516965 |     97516965 |     97516965 |     97516965 |     97516965 |     97516965 |    209617809 |    209617809 |    209617809 |    209617809 |    209617809 |    209617809 |    209617809 |    444763112 |    444763112 |    444763112 |    444763112 |    444763112 |    444763112 |    444763112 |    954521442 |    954521442 |    954521442 |    954521442 |    954521442 |    954521442 |    954521442 |   1993014158 |   1993014158 |   1993014158 |   1993014158 |   1993014158 |   1993014158 |   1993014158 |
sim_num_refs                                190513 |       190513 |       190513 |       190513 |       190513 |       190513 |       190513 |       428331 |       428331 |       428331 |       428331 |       428331 |       428331 |       428331 |       919454 |       919454 |       919454 |       919454 |       919454 |       919454 |       919454 |      1996414 |      1996414 |      1996414 |      1996414 |      1996414 |      1996414 |      1996414 |      4617878 |      4617878 |      4617878 |      4617878 |      4617878 |      4617878 |      4617878 |     10122758 |     10122758 |     10122758 |     10122758 |     10122758 |     10122758 |     10122758 |     20107513 |     20107513 |     20107513 |     20107513 |     20107513 |     20107513 |     20107513 |     42553205 |     42553205 |     42553205 |     42553205 |     42553205 |     42553205 |     42553205 |     88553251 |     88553251 |     88553251 |     88553251 |     88553251 |     88553251 |     88553251 |    191035030 |    191035030 |    191035030 |    191035030 |    191035030 |    191035030 |    191035030 |    386108639 |    386108639 |    386108639 |    386108639 |    386108639 |    386108639 |    386108639 |
sim_elapsed_time                                 1 |            1 |            1 |            1 |            1 |            1 |            1 |            1 |            1 |            1 |            1 |            1 |            1 |            1 |            1 |            1 |            1 |            1 |            1 |            1 |            1 |            1 |            1 |            1 |            1 |            2 |            1 |            1 |            3 |            2 |            3 |            2 |            3 |            3 |            2 |            6 |            5 |            6 |            6 |            5 |            6 |            6 |           11 |           12 |           11 |           12 |           12 |           11 |           12 |           24 |           25 |           24 |           25 |           25 |           25 |           25 |           52 |           52 |           52 |           54 |           53 |           53 |           53 |          112 |          112 |          112 |          115 |          115 |          114 |          114 |          234 |          234 |          233 |          239 |          238 |          239 |          238 |
sim_inst_rate                          891654.0000 |  891654.0000 |  891654.0000 |  891654.0000 |  891654.0000 |  891654.0000 |  891654.0000 | 2034749.0000 | 2034749.0000 | 2034749.0000 | 2034749.0000 | 2034749.0000 | 2034749.0000 | 2034749.0000 | 4553093.0000 | 4553093.0000 | 4553093.0000 | 4553093.0000 | 4553093.0000 | 4553093.0000 | 4553093.0000 | 9999408.0000 | 9999408.0000 | 9999408.0000 | 9999408.0000 | 4999704.0000 | 9999408.0000 | 9999408.0000 | 7080484.3333 |10620726.5000 | 7080484.3333 |10620726.5000 | 7080484.3333 | 7080484.3333 |10620726.5000 | 7914210.6667 | 9497052.8000 | 7914210.6667 | 7914210.6667 | 9497052.8000 | 7914210.6667 | 7914210.6667 | 8865178.6364 | 8126413.7500 | 8865178.6364 | 8126413.7500 | 8126413.7500 | 8865178.6364 | 8126413.7500 | 8734075.3750 | 8384712.3600 | 8734075.3750 | 8384712.3600 | 8384712.3600 | 8384712.3600 | 8384712.3600 | 8553136.7692 | 8553136.7692 | 8553136.7692 | 8236353.9259 | 8391756.8302 | 8391756.8302 | 8391756.8302 | 8522512.8750 | 8522512.8750 | 8522512.8750 | 8300186.4522 | 8300186.4522 | 8372995.1053 | 8372995.1053 | 8517154.5214 | 8517154.5214 | 8553708.8326 | 8338971.3724 | 8374009.0672 | 8338971.3724 | 8374009.0672 |
sim_num_branches                            144027 |       144027 |       144027 |       144027 |       144027 |       144027 |       144027 |       329900 |       329900 |       329900 |       329900 |       329900 |       329900 |       329900 |       742820 |       742820 |       742820 |       742820 |       742820 |       742820 |       742820 |      1635278 |      1635278 |      1635278 |      1635278 |      1635278 |      1635278 |      1635278 |      3439730 |      3439730 |      3439730 |      3439730 |      3439730 |      3439730 |      3439730 |      7714362 |      7714362 |      7714362 |      7714362 |      7714362 |      7714362 |      7714362 |     15916239 |     15916239 |     15916239 |     15916239 |     15916239 |     15916239 |     15916239 |     34295423 |     34295423 |     34295423 |     34295423 |     34295423 |     34295423 |     34295423 |     72966587 |     72966587 |     72966587 |     72966587 |     72966587 |     72966587 |     72966587 |    156579651 |    156579651 |    156579651 |    156579651 |    156579651 |    156579651 |    156579651 |    328250378 |    328250378 |    328250378 |    328250378 |    328250378 |    328250378 |    328250378 |
sim_IPB                                     6.1909 |       6.1909 |       6.1909 |       6.1909 |       6.1909 |       6.1909 |       6.1909 |       6.1678 |       6.1678 |       6.1678 |       6.1678 |       6.1678 |       6.1678 |       6.1678 |       6.1295 |       6.1295 |       6.1295 |       6.1295 |       6.1295 |       6.1295 |       6.1295 |       6.1148 |       6.1148 |       6.1148 |       6.1148 |       6.1148 |       6.1148 |       6.1148 |       6.1753 |       6.1753 |       6.1753 |       6.1753 |       6.1753 |       6.1753 |       6.1753 |       6.1554 |       6.1554 |       6.1554 |       6.1554 |       6.1554 |       6.1554 |       6.1554 |       6.1269 |       6.1269 |       6.1269 |       6.1269 |       6.1269 |       6.1269 |       6.1269 |       6.1121 |       6.1121 |       6.1121 |       6.1121 |       6.1121 |       6.1121 |       6.1121 |       6.0954 |       6.0954 |       6.0954 |       6.0954 |       6.0954 |       6.0954 |       6.0954 |       6.0961 |       6.0961 |       6.0961 |       6.0961 |       6.0961 |       6.0961 |       6.0961 |       6.0716 |       6.0716 |       6.0716 |       6.0716 |       6.0716 |       6.0716 |       6.0716 |
bpred_bimod.lookups                         144027 |       144027 |       144027 |xxxxxxxxxxxxx |xxxxxxxxxxxxx |xxxxxxxxxxxxx |xxxxxxxxxxxxx |       329900 |       329900 |       329900 |xxxxxxxxxxxxx |xxxxxxxxxxxxx |xxxxxxxxxxxxx |xxxxxxxxxxxxx |       742820 |       742820 |       742820 |xxxxxxxxxxxxx |xxxxxxxxxxxxx |xxxxxxxxxxxxx |xxxxxxxxxxxxx |      1635278 |      1635278 |      1635278 |xxxxxxxxxxxxx |xxxxxxxxxxxxx |xxxxxxxxxxxxx |xxxxxxxxxxxxx |      3439730 |      3439730 |      3439730 |xxxxxxxxxxxxx |xxxxxxxxxxxxx |xxxxxxxxxxxxx |xxxxxxxxxxxxx |      7714362 |      7714362 |      7714362 |xxxxxxxxxxxxx |xxxxxxxxxxxxx |xxxxxxxxxxxxx |xxxxxxxxxxxxx |     15916239 |     15916239 |     15916239 |xxxxxxxxxxxxx |xxxxxxxxxxxxx |xxxxxxxxxxxxx |xxxxxxxxxxxxx |     34295423 |     34295423 |     34295423 |xxxxxxxxxxxxx |xxxxxxxxxxxxx |xxxxxxxxxxxxx |xxxxxxxxxxxxx |     72966587 |     72966587 |     72966587 |xxxxxxxxxxxxx |xxxxxxxxxxxxx |xxxxxxxxxxxxx |xxxxxxxxxxxxx |    156579651 |    156579651 |    156579651 |xxxxxxxxxxxxx |xxxxxxxxxxxxx |xxxxxxxxxxxxx |xxxxxxxxxxxxx |    328250378 |    328250378 |    328250378 |
bpred_bimod.updates                         144027 |       144027 |       144027 |xxxxxxxxxxxxx |xxxxxxxxxxxxx |xxxxxxxxxxxxx |xxxxxxxxxxxxx |       329900 |       329900 |       329900 |xxxxxxxxxxxxx |xxxxxxxxxxxxx |xxxxxxxxxxxxx |xxxxxxxxxxxxx |       742820 |       742820 |       742820 |xxxxxxxxxxxxx |xxxxxxxxxxxxx |xxxxxxxxxxxxx |xxxxxxxxxxxxx |      1635278 |      1635278 |      1635278 |xxxxxxxxxxxxx |xxxxxxxxxxxxx |xxxxxxxxxxxxx |xxxxxxxxxxxxx |      3439730 |      3439730 |      3439730 |xxxxxxxxxxxxx |xxxxxxxxxxxxx |xxxxxxxxxxxxx |xxxxxxxxxxxxx |      7714362 |      7714362 |      7714362 |xxxxxxxxxxxxx |xxxxxxxxxxxxx |xxxxxxxxxxxxx |xxxxxxxxxxxxx |     15916239 |     15916239 |     15916239 |xxxxxxxxxxxxx |xxxxxxxxxxxxx |xxxxxxxxxxxxx |xxxxxxxxxxxxx |     34295423 |     34295423 |     34295423 |xxxxxxxxxxxxx |xxxxxxxxxxxxx |xxxxxxxxxxxxx |xxxxxxxxxxxxx |     72966587 |     72966587 |     72966587 |xxxxxxxxxxxxx |xxxxxxxxxxxxx |xxxxxxxxxxxxx |xxxxxxxxxxxxx |    156579651 |    156579651 |    156579651 |xxxxxxxxxxxxx |xxxxxxxxxxxxx |xxxxxxxxxxxxx |xxxxxxxxxxxxx |    328250378 |    328250378 |    328250378 |
bpred_bimod.addr_hits                       110364 |       110367 |       110367 |xxxxxxxxxxxxx |xxxxxxxxxxxxx |xxxxxxxxxxxxx |xxxxxxxxxxxxx |       254452 |       254457 |       254457 |xxxxxxxxxxxxx |xxxxxxxxxxxxx |xxxxxxxxxxxxx |xxxxxxxxxxxxx |       569633 |       569638 |       569639 |xxxxxxxxxxxxx |xxxxxxxxxxxxx |xxxxxxxxxxxxx |xxxxxxxxxxxxx |      1257917 |      1257920 |      1257921 |xxxxxxxxxxxxx |xxxxxxxxxxxxx |xxxxxxxxxxxxx |xxxxxxxxxxxxx |      2694257 |      2694260 |      2694261 |xxxxxxxxxxxxx |xxxxxxxxxxxxx |xxxxxxxxxxxxx |xxxxxxxxxxxxx |      6079151 |      6079154 |      6079155 |xxxxxxxxxxxxx |xxxxxxxxxxxxx |xxxxxxxxxxxxx |xxxxxxxxxxxxx |     12369996 |     12369998 |     12369999 |xxxxxxxxxxxxx |xxxxxxxxxxxxx |xxxxxxxxxxxxx |xxxxxxxxxxxxx |     26566600 |     26566602 |     26566603 |xxxxxxxxxxxxx |xxxxxxxxxxxxx |xxxxxxxxxxxxx |xxxxxxxxxxxxx |     56280008 |     56280011 |     56280012 |xxxxxxxxxxxxx |xxxxxxxxxxxxx |xxxxxxxxxxxxx |xxxxxxxxxxxxx |    121056958 |    121056960 |    121056961 |xxxxxxxxxxxxx |xxxxxxxxxxxxx |xxxxxxxxxxxxx |xxxxxxxxxxxxx |    252539634 |    252539637 |    252539638 |
bpred_bimod.dir_hits                        110467 |       110468 |       110466 |xxxxxxxxxxxxx |xxxxxxxxxxxxx |xxxxxxxxxxxxx |xxxxxxxxxxxxx |       254550 |       254554 |       254553 |xxxxxxxxxxxxx |xxxxxxxxxxxxx |xxxxxxxxxxxxx |xxxxxxxxxxxxx |       569733 |       569737 |       569736 |xxxxxxxxxxxxx |xxxxxxxxxxxxx |xxxxxxxxxxxxx |xxxxxxxxxxxxx |      1258020 |      1258022 |      1258021 |xxxxxxxxxxxxx |xxxxxxxxxxxxx |xxxxxxxxxxxxx |xxxxxxxxxxxxx |      2694358 |      2694361 |      2694360 |xxxxxxxxxxxxx |xxxxxxxxxxxxx |xxxxxxxxxxxxx |xxxxxxxxxxxxx |      6079252 |      6079254 |      6079253 |xxxxxxxxxxxxx |xxxxxxxxxxxxx |xxxxxxxxxxxxx |xxxxxxxxxxxxx |     12370100 |     12370102 |     12370101 |xxxxxxxxxxxxx |xxxxxxxxxxxxx |xxxxxxxxxxxxx |xxxxxxxxxxxxx |     26566702 |     26566703 |     26566702 |xxxxxxxxxxxxx |xxxxxxxxxxxxx |xxxxxxxxxxxxx |xxxxxxxxxxxxx |     56280110 |     56280113 |     56280112 |xxxxxxxxxxxxx |xxxxxxxxxxxxx |xxxxxxxxxxxxx |xxxxxxxxxxxxx |    121057063 |    121057064 |    121057063 |xxxxxxxxxxxxx |xxxxxxxxxxxxx |xxxxxxxxxxxxx |xxxxxxxxxxxxx |    252539738 |    252539740 |    252539739 |
bpred_bimod.misses                           33560 |        33559 |        33561 |xxxxxxxxxxxxx |xxxxxxxxxxxxx |xxxxxxxxxxxxx |xxxxxxxxxxxxx |        75350 |        75346 |        75347 |xxxxxxxxxxxxx |xxxxxxxxxxxxx |xxxxxxxxxxxxx |xxxxxxxxxxxxx |       173087 |       173083 |       173084 |xxxxxxxxxxxxx |xxxxxxxxxxxxx |xxxxxxxxxxxxx |xxxxxxxxxxxxx |       377258 |       377256 |       377257 |xxxxxxxxxxxxx |xxxxxxxxxxxxx |xxxxxxxxxxxxx |xxxxxxxxxxxxx |       745372 |       745369 |       745370 |xxxxxxxxxxxxx |xxxxxxxxxxxxx |xxxxxxxxxxxxx |xxxxxxxxxxxxx |      1635110 |      1635108 |      1635109 |xxxxxxxxxxxxx |xxxxxxxxxxxxx |xxxxxxxxxxxxx |xxxxxxxxxxxxx |      3546139 |      3546137 |      3546138 |xxxxxxxxxxxxx |xxxxxxxxxxxxx |xxxxxxxxxxxxx |xxxxxxxxxxxxx |      7728721 |      7728720 |      7728721 |xxxxxxxxxxxxx |xxxxxxxxxxxxx |xxxxxxxxxxxxx |xxxxxxxxxxxxx |     16686477 |     16686474 |     16686475 |xxxxxxxxxxxxx |xxxxxxxxxxxxx |xxxxxxxxxxxxx |xxxxxxxxxxxxx |     35522588 |     35522587 |     35522588 |xxxxxxxxxxxxx |xxxxxxxxxxxxx |xxxxxxxxxxxxx |xxxxxxxxxxxxx |     75710640 |     75710638 |     75710639 |
bpred_bimod.jr_hits                             57 |           57 |           57 |xxxxxxxxxxxxx |xxxxxxxxxxxxx |xxxxxxxxxxxxx |xxxxxxxxxxxxx |           57 |           57 |           57 |xxxxxxxxxxxxx |xxxxxxxxxxxxx |xxxxxxxxxxxxx |xxxxxxxxxxxxx |           57 |           57 |           57 |xxxxxxxxxxxxx |xxxxxxxxxxxxx |xxxxxxxxxxxxx |xxxxxxxxxxxxx |           57 |           57 |           57 |xxxxxxxxxxxxx |xxxxxxxxxxxxx |xxxxxxxxxxxxx |xxxxxxxxxxxxx |           57 |           57 |           57 |xxxxxxxxxxxxx |xxxxxxxxxxxxx |xxxxxxxxxxxxx |xxxxxxxxxxxxx |           57 |           57 |           57 |xxxxxxxxxxxxx |xxxxxxxxxxxxx |xxxxxxxxxxxxx |xxxxxxxxxxxxx |           57 |           57 |           57 |xxxxxxxxxxxxx |xxxxxxxxxxxxx |xxxxxxxxxxxxx |xxxxxxxxxxxxx |           57 |           57 |           57 |xxxxxxxxxxxxx |xxxxxxxxxxxxx |xxxxxxxxxxxxx |xxxxxxxxxxxxx |           57 |           57 |           57 |xxxxxxxxxxxxx |xxxxxxxxxxxxx |xxxxxxxxxxxxx |xxxxxxxxxxxxx |           57 |           57 |           57 |xxxxxxxxxxxxx |xxxxxxxxxxxxx |xxxxxxxxxxxxx |xxxxxxxxxxxxx |           57 |           57 |           57 |
bpred_bimod.jr_seen                             58 |           58 |           58 |xxxxxxxxxxxxx |xxxxxxxxxxxxx |xxxxxxxxxxxxx |xxxxxxxxxxxxx |           58 |           58 |           58 |xxxxxxxxxxxxx |xxxxxxxxxxxxx |xxxxxxxxxxxxx |xxxxxxxxxxxxx |           58 |           58 |           58 |xxxxxxxxxxxxx |xxxxxxxxxxxxx |xxxxxxxxxxxxx |xxxxxxxxxxxxx |           58 |           58 |           58 |xxxxxxxxxxxxx |xxxxxxxxxxxxx |xxxxxxxxxxxxx |xxxxxxxxxxxxx |           58 |           58 |           58 |xxxxxxxxxxxxx |xxxxxxxxxxxxx |xxxxxxxxxxxxx |xxxxxxxxxxxxx |           58 |           58 |           58 |xxxxxxxxxxxxx |xxxxxxxxxxxxx |xxxxxxxxxxxxx |xxxxxxxxxxxxx |           58 |           58 |           58 |xxxxxxxxxxxxx |xxxxxxxxxxxxx |xxxxxxxxxxxxx |xxxxxxxxxxxxx |           58 |           58 |           58 |xxxxxxxxxxxxx |xxxxxxxxxxxxx |xxxxxxxxxxxxx |xxxxxxxxxxxxx |           58 |           58 |           58 |xxxxxxxxxxxxx |xxxxxxxxxxxxx |xxxxxxxxxxxxx |xxxxxxxxxxxxx |           58 |           58 |           58 |xxxxxxxxxxxxx |xxxxxxxxxxxxx |xxxxxxxxxxxxx |xxxxxxxxxxxxx |           58 |           58 |           58 |
bpred_bimod.jr_non_ras_hits.PP                   0 |            0 |            0 |xxxxxxxxxxxxx |xxxxxxxxxxxxx |xxxxxxxxxxxxx |xxxxxxxxxxxxx |            0 |            0 |            0 |xxxxxxxxxxxxx |xxxxxxxxxxxxx |xxxxxxxxxxxxx |xxxxxxxxxxxxx |            0 |            0 |            0 |xxxxxxxxxxxxx |xxxxxxxxxxxxx |xxxxxxxxxxxxx |xxxxxxxxxxxxx |            0 |            0 |            0 |xxxxxxxxxxxxx |xxxxxxxxxxxxx |xxxxxxxxxxxxx |xxxxxxxxxxxxx |            0 |            0 |            0 |xxxxxxxxxxxxx |xxxxxxxxxxxxx |xxxxxxxxxxxxx |xxxxxxxxxxxxx |            0 |            0 |            0 |xxxxxxxxxxxxx |xxxxxxxxxxxxx |xxxxxxxxxxxxx |xxxxxxxxxxxxx |            0 |            0 |            0 |xxxxxxxxxxxxx |xxxxxxxxxxxxx |xxxxxxxxxxxxx |xxxxxxxxxxxxx |            0 |            0 |            0 |xxxxxxxxxxxxx |xxxxxxxxxxxxx |xxxxxxxxxxxxx |xxxxxxxxxxxxx |            0 |            0 |            0 |xxxxxxxxxxxxx |xxxxxxxxxxxxx |xxxxxxxxxxxxx |xxxxxxxxxxxxx |            0 |            0 |            0 |xxxxxxxxxxxxx |xxxxxxxxxxxxx |xxxxxxxxxxxxx |xxxxxxxxxxxxx |            0 |            0 |            0 |
bpred_bimod.jr_non_ras_seen.PP                   0 |            0 |            0 |xxxxxxxxxxxxx |xxxxxxxxxxxxx |xxxxxxxxxxxxx |xxxxxxxxxxxxx |            0 |            0 |            0 |xxxxxxxxxxxxx |xxxxxxxxxxxxx |xxxxxxxxxxxxx |xxxxxxxxxxxxx |            0 |            0 |            0 |xxxxxxxxxxxxx |xxxxxxxxxxxxx |xxxxxxxxxxxxx |xxxxxxxxxxxxx |            0 |            0 |            0 |xxxxxxxxxxxxx |xxxxxxxxxxxxx |xxxxxxxxxxxxx |xxxxxxxxxxxxx |            0 |            0 |            0 |xxxxxxxxxxxxx |xxxxxxxxxxxxx |xxxxxxxxxxxxx |xxxxxxxxxxxxx |            0 |            0 |            0 |xxxxxxxxxxxxx |xxxxxxxxxxxxx |xxxxxxxxxxxxx |xxxxxxxxxxxxx |            0 |            0 |            0 |xxxxxxxxxxxxx |xxxxxxxxxxxxx |xxxxxxxxxxxxx |xxxxxxxxxxxxx |            0 |            0 |            0 |xxxxxxxxxxxxx |xxxxxxxxxxxxx |xxxxxxxxxxxxx |xxxxxxxxxxxxx |            0 |            0 |            0 |xxxxxxxxxxxxx |xxxxxxxxxxxxx |xxxxxxxxxxxxx |xxxxxxxxxxxxx |            0 |            0 |            0 |xxxxxxxxxxxxx |xxxxxxxxxxxxx |xxxxxxxxxxxxx |xxxxxxxxxxxxx |            0 |            0 |            0 |
bpred_bimod.bpred_addr_rate                 0.7663 |       0.7663 |       0.7663 |xxxxxxxxxxxxx |xxxxxxxxxxxxx |xxxxxxxxxxxxx |xxxxxxxxxxxxx |       0.7713 |       0.7713 |       0.7713 |xxxxxxxxxxxxx |xxxxxxxxxxxxx |xxxxxxxxxxxxx |xxxxxxxxxxxxx |       0.7669 |       0.7669 |       0.7669 |xxxxxxxxxxxxx |xxxxxxxxxxxxx |xxxxxxxxxxxxx |xxxxxxxxxxxxx |       0.7692 |       0.7692 |       0.7692 |xxxxxxxxxxxxx |xxxxxxxxxxxxx |xxxxxxxxxxxxx |xxxxxxxxxxxxx |       0.7833 |       0.7833 |       0.7833 |xxxxxxxxxxxxx |xxxxxxxxxxxxx |xxxxxxxxxxxxx |xxxxxxxxxxxxx |       0.7880 |       0.7880 |       0.7880 |xxxxxxxxxxxxx |xxxxxxxxxxxxx |xxxxxxxxxxxxx |xxxxxxxxxxxxx |       0.7772 |       0.7772 |       0.7772 |xxxxxxxxxxxxx |xxxxxxxxxxxxx |xxxxxxxxxxxxx |xxxxxxxxxxxxx |       0.7746 |       0.7746 |       0.7746 |xxxxxxxxxxxxx |xxxxxxxxxxxxx |xxxxxxxxxxxxx |xxxxxxxxxxxxx |       0.7713 |       0.7713 |       0.7713 |xxxxxxxxxxxxx |xxxxxxxxxxxxx |xxxxxxxxxxxxx |xxxxxxxxxxxxx |       0.7731 |       0.7731 |       0.7731 |xxxxxxxxxxxxx |xxxxxxxxxxxxx |xxxxxxxxxxxxx |xxxxxxxxxxxxx |       0.7694 |       0.7694 |       0.7694 |
bpred_bimod.bpred_dir_rate                  0.7670 |       0.7670 |       0.7670 |xxxxxxxxxxxxx |xxxxxxxxxxxxx |xxxxxxxxxxxxx |xxxxxxxxxxxxx |       0.7716 |       0.7716 |       0.7716 |xxxxxxxxxxxxx |xxxxxxxxxxxxx |xxxxxxxxxxxxx |xxxxxxxxxxxxx |       0.7670 |       0.7670 |       0.7670 |xxxxxxxxxxxxx |xxxxxxxxxxxxx |xxxxxxxxxxxxx |xxxxxxxxxxxxx |       0.7693 |       0.7693 |       0.7693 |xxxxxxxxxxxxx |xxxxxxxxxxxxx |xxxxxxxxxxxxx |xxxxxxxxxxxxx |       0.7833 |       0.7833 |       0.7833 |xxxxxxxxxxxxx |xxxxxxxxxxxxx |xxxxxxxxxxxxx |xxxxxxxxxxxxx |       0.7880 |       0.7880 |       0.7880 |xxxxxxxxxxxxx |xxxxxxxxxxxxx |xxxxxxxxxxxxx |xxxxxxxxxxxxx |       0.7772 |       0.7772 |       0.7772 |xxxxxxxxxxxxx |xxxxxxxxxxxxx |xxxxxxxxxxxxx |xxxxxxxxxxxxx |       0.7746 |       0.7746 |       0.7746 |xxxxxxxxxxxxx |xxxxxxxxxxxxx |xxxxxxxxxxxxx |xxxxxxxxxxxxx |       0.7713 |       0.7713 |       0.7713 |xxxxxxxxxxxxx |xxxxxxxxxxxxx |xxxxxxxxxxxxx |xxxxxxxxxxxxx |       0.7731 |       0.7731 |       0.7731 |xxxxxxxxxxxxx |xxxxxxxxxxxxx |xxxxxxxxxxxxx |xxxxxxxxxxxxx |       0.7694 |       0.7694 |       0.7694 |
bpred_bimod.bpred_jr_rate                   0.9828 |       0.9828 |       0.9828 |xxxxxxxxxxxxx |xxxxxxxxxxxxx |xxxxxxxxxxxxx |xxxxxxxxxxxxx |       0.9828 |       0.9828 |       0.9828 |xxxxxxxxxxxxx |xxxxxxxxxxxxx |xxxxxxxxxxxxx |xxxxxxxxxxxxx |       0.9828 |       0.9828 |       0.9828 |xxxxxxxxxxxxx |xxxxxxxxxxxxx |xxxxxxxxxxxxx |xxxxxxxxxxxxx |       0.9828 |       0.9828 |       0.9828 |xxxxxxxxxxxxx |xxxxxxxxxxxxx |xxxxxxxxxxxxx |xxxxxxxxxxxxx |       0.9828 |       0.9828 |       0.9828 |xxxxxxxxxxxxx |xxxxxxxxxxxxx |xxxxxxxxxxxxx |xxxxxxxxxxxxx |       0.9828 |       0.9828 |       0.9828 |xxxxxxxxxxxxx |xxxxxxxxxxxxx |xxxxxxxxxxxxx |xxxxxxxxxxxxx |       0.9828 |       0.9828 |       0.9828 |xxxxxxxxxxxxx |xxxxxxxxxxxxx |xxxxxxxxxxxxx |xxxxxxxxxxxxx |       0.9828 |       0.9828 |       0.9828 |xxxxxxxxxxxxx |xxxxxxxxxxxxx |xxxxxxxxxxxxx |xxxxxxxxxxxxx |       0.9828 |       0.9828 |       0.9828 |xxxxxxxxxxxxx |xxxxxxxxxxxxx |xxxxxxxxxxxxx |xxxxxxxxxxxxx |       0.9828 |       0.9828 |       0.9828 |xxxxxxxxxxxxx |xxxxxxxxxxxxx |xxxxxxxxxxxxx |xxxxxxxxxxxxx |       0.9828 |       0.9828 |       0.9828 |
bpred_bimod.bpred_jr_non_ras_rate.PP       <error: |      <error: |      <error: |xxxxxxxxxxxxx |xxxxxxxxxxxxx |xxxxxxxxxxxxx |xxxxxxxxxxxxx |      <error: |      <error: |      <error: |xxxxxxxxxxxxx |xxxxxxxxxxxxx |xxxxxxxxxxxxx |xxxxxxxxxxxxx |      <error: |      <error: |      <error: |xxxxxxxxxxxxx |xxxxxxxxxxxxx |xxxxxxxxxxxxx |xxxxxxxxxxxxx |      <error: |      <error: |      <error: |xxxxxxxxxxxxx |xxxxxxxxxxxxx |xxxxxxxxxxxxx |xxxxxxxxxxxxx |      <error: |      <error: |      <error: |xxxxxxxxxxxxx |xxxxxxxxxxxxx |xxxxxxxxxxxxx |xxxxxxxxxxxxx |      <error: |      <error: |      <error: |xxxxxxxxxxxxx |xxxxxxxxxxxxx |xxxxxxxxxxxxx |xxxxxxxxxxxxx |      <error: |      <error: |      <error: |xxxxxxxxxxxxx |xxxxxxxxxxxxx |xxxxxxxxxxxxx |xxxxxxxxxxxxx |      <error: |      <error: |      <error: |xxxxxxxxxxxxx |xxxxxxxxxxxxx |xxxxxxxxxxxxx |xxxxxxxxxxxxx |      <error: |      <error: |      <error: |xxxxxxxxxxxxx |xxxxxxxxxxxxx |xxxxxxxxxxxxx |xxxxxxxxxxxxx |      <error: |      <error: |      <error: |xxxxxxxxxxxxx |xxxxxxxxxxxxx |xxxxxxxxxxxxx |xxxxxxxxxxxxx |      <error: |      <error: |      <error: |
bpred_bimod.retstack_pushes                     60 |           60 |           60 |xxxxxxxxxxxxx |xxxxxxxxxxxxx |xxxxxxxxxxxxx |xxxxxxxxxxxxx |           60 |           60 |           60 |xxxxxxxxxxxxx |xxxxxxxxxxxxx |xxxxxxxxxxxxx |xxxxxxxxxxxxx |           60 |           60 |           60 |xxxxxxxxxxxxx |xxxxxxxxxxxxx |xxxxxxxxxxxxx |xxxxxxxxxxxxx |           60 |           60 |           60 |xxxxxxxxxxxxx |xxxxxxxxxxxxx |xxxxxxxxxxxxx |xxxxxxxxxxxxx |           60 |           60 |           60 |xxxxxxxxxxxxx |xxxxxxxxxxxxx |xxxxxxxxxxxxx |xxxxxxxxxxxxx |           60 |           60 |           60 |xxxxxxxxxxxxx |xxxxxxxxxxxxx |xxxxxxxxxxxxx |xxxxxxxxxxxxx |           60 |           60 |           60 |xxxxxxxxxxxxx |xxxxxxxxxxxxx |xxxxxxxxxxxxx |xxxxxxxxxxxxx |           60 |           60 |           60 |xxxxxxxxxxxxx |xxxxxxxxxxxxx |xxxxxxxxxxxxx |xxxxxxxxxxxxx |           60 |           60 |           60 |xxxxxxxxxxxxx |xxxxxxxxxxxxx |xxxxxxxxxxxxx |xxxxxxxxxxxxx |           60 |           60 |           60 |xxxxxxxxxxxxx |xxxxxxxxxxxxx |xxxxxxxxxxxxx |xxxxxxxxxxxxx |           60 |           60 |           60 |
bpred_bimod.retstack_pops                       58 |           58 |           58 |xxxxxxxxxxxxx |xxxxxxxxxxxxx |xxxxxxxxxxxxx |xxxxxxxxxxxxx |           58 |           58 |           58 |xxxxxxxxxxxxx |xxxxxxxxxxxxx |xxxxxxxxxxxxx |xxxxxxxxxxxxx |           58 |           58 |           58 |xxxxxxxxxxxxx |xxxxxxxxxxxxx |xxxxxxxxxxxxx |xxxxxxxxxxxxx |           58 |           58 |           58 |xxxxxxxxxxxxx |xxxxxxxxxxxxx |xxxxxxxxxxxxx |xxxxxxxxxxxxx |           58 |           58 |           58 |xxxxxxxxxxxxx |xxxxxxxxxxxxx |xxxxxxxxxxxxx |xxxxxxxxxxxxx |           58 |           58 |           58 |xxxxxxxxxxxxx |xxxxxxxxxxxxx |xxxxxxxxxxxxx |xxxxxxxxxxxxx |           58 |           58 |           58 |xxxxxxxxxxxxx |xxxxxxxxxxxxx |xxxxxxxxxxxxx |xxxxxxxxxxxxx |           58 |           58 |           58 |xxxxxxxxxxxxx |xxxxxxxxxxxxx |xxxxxxxxxxxxx |xxxxxxxxxxxxx |           58 |           58 |           58 |xxxxxxxxxxxxx |xxxxxxxxxxxxx |xxxxxxxxxxxxx |xxxxxxxxxxxxx |           58 |           58 |           58 |xxxxxxxxxxxxx |xxxxxxxxxxxxx |xxxxxxxxxxxxx |xxxxxxxxxxxxx |           58 |           58 |           58 |
bpred_bimod.used_ras.PP                         58 |           58 |           58 |xxxxxxxxxxxxx |xxxxxxxxxxxxx |xxxxxxxxxxxxx |xxxxxxxxxxxxx |           58 |           58 |           58 |xxxxxxxxxxxxx |xxxxxxxxxxxxx |xxxxxxxxxxxxx |xxxxxxxxxxxxx |           58 |           58 |           58 |xxxxxxxxxxxxx |xxxxxxxxxxxxx |xxxxxxxxxxxxx |xxxxxxxxxxxxx |           58 |           58 |           58 |xxxxxxxxxxxxx |xxxxxxxxxxxxx |xxxxxxxxxxxxx |xxxxxxxxxxxxx |           58 |           58 |           58 |xxxxxxxxxxxxx |xxxxxxxxxxxxx |xxxxxxxxxxxxx |xxxxxxxxxxxxx |           58 |           58 |           58 |xxxxxxxxxxxxx |xxxxxxxxxxxxx |xxxxxxxxxxxxx |xxxxxxxxxxxxx |           58 |           58 |           58 |xxxxxxxxxxxxx |xxxxxxxxxxxxx |xxxxxxxxxxxxx |xxxxxxxxxxxxx |           58 |           58 |           58 |xxxxxxxxxxxxx |xxxxxxxxxxxxx |xxxxxxxxxxxxx |xxxxxxxxxxxxx |           58 |           58 |           58 |xxxxxxxxxxxxx |xxxxxxxxxxxxx |xxxxxxxxxxxxx |xxxxxxxxxxxxx |           58 |           58 |           58 |xxxxxxxxxxxxx |xxxxxxxxxxxxx |xxxxxxxxxxxxx |xxxxxxxxxxxxx |           58 |           58 |           58 |
bpred_bimod.ras_hits.PP                         57 |           57 |           57 |xxxxxxxxxxxxx |xxxxxxxxxxxxx |xxxxxxxxxxxxx |xxxxxxxxxxxxx |           57 |           57 |           57 |xxxxxxxxxxxxx |xxxxxxxxxxxxx |xxxxxxxxxxxxx |xxxxxxxxxxxxx |           57 |           57 |           57 |xxxxxxxxxxxxx |xxxxxxxxxxxxx |xxxxxxxxxxxxx |xxxxxxxxxxxxx |           57 |           57 |           57 |xxxxxxxxxxxxx |xxxxxxxxxxxxx |xxxxxxxxxxxxx |xxxxxxxxxxxxx |           57 |           57 |           57 |xxxxxxxxxxxxx |xxxxxxxxxxxxx |xxxxxxxxxxxxx |xxxxxxxxxxxxx |           57 |           57 |           57 |xxxxxxxxxxxxx |xxxxxxxxxxxxx |xxxxxxxxxxxxx |xxxxxxxxxxxxx |           57 |           57 |           57 |xxxxxxxxxxxxx |xxxxxxxxxxxxx |xxxxxxxxxxxxx |xxxxxxxxxxxxx |           57 |           57 |           57 |xxxxxxxxxxxxx |xxxxxxxxxxxxx |xxxxxxxxxxxxx |xxxxxxxxxxxxx |           57 |           57 |           57 |xxxxxxxxxxxxx |xxxxxxxxxxxxx |xxxxxxxxxxxxx |xxxxxxxxxxxxx |           57 |           57 |           57 |xxxxxxxxxxxxx |xxxxxxxxxxxxx |xxxxxxxxxxxxx |xxxxxxxxxxxxx |           57 |           57 |           57 |
bpred_bimod.ras_rate.PP                     0.9828 |       0.9828 |       0.9828 |xxxxxxxxxxxxx |xxxxxxxxxxxxx |xxxxxxxxxxxxx |xxxxxxxxxxxxx |       0.9828 |       0.9828 |       0.9828 |xxxxxxxxxxxxx |xxxxxxxxxxxxx |xxxxxxxxxxxxx |xxxxxxxxxxxxx |       0.9828 |       0.9828 |       0.9828 |xxxxxxxxxxxxx |xxxxxxxxxxxxx |xxxxxxxxxxxxx |xxxxxxxxxxxxx |       0.9828 |       0.9828 |       0.9828 |xxxxxxxxxxxxx |xxxxxxxxxxxxx |xxxxxxxxxxxxx |xxxxxxxxxxxxx |       0.9828 |       0.9828 |       0.9828 |xxxxxxxxxxxxx |xxxxxxxxxxxxx |xxxxxxxxxxxxx |xxxxxxxxxxxxx |       0.9828 |       0.9828 |       0.9828 |xxxxxxxxxxxxx |xxxxxxxxxxxxx |xxxxxxxxxxxxx |xxxxxxxxxxxxx |       0.9828 |       0.9828 |       0.9828 |xxxxxxxxxxxxx |xxxxxxxxxxxxx |xxxxxxxxxxxxx |xxxxxxxxxxxxx |       0.9828 |       0.9828 |       0.9828 |xxxxxxxxxxxxx |xxxxxxxxxxxxx |xxxxxxxxxxxxx |xxxxxxxxxxxxx |       0.9828 |       0.9828 |       0.9828 |xxxxxxxxxxxxx |xxxxxxxxxxxxx |xxxxxxxxxxxxx |xxxxxxxxxxxxx |       0.9828 |       0.9828 |       0.9828 |xxxxxxxxxxxxx |xxxxxxxxxxxxx |xxxxxxxxxxxxx |xxxxxxxxxxxxx |       0.9828 |       0.9828 |       0.9828 |
bpred_2lev.lookups                   xxxxxxxxxxxxx |xxxxxxxxxxxxx |xxxxxxxxxxxxx |       144027 |       144027 |       144027 |       144027 |xxxxxxxxxxxxx |xxxxxxxxxxxxx |xxxxxxxxxxxxx |       329900 |       329900 |       329900 |       329900 |xxxxxxxxxxxxx |xxxxxxxxxxxxx |xxxxxxxxxxxxx |       742820 |       742820 |       742820 |       742820 |xxxxxxxxxxxxx |xxxxxxxxxxxxx |xxxxxxxxxxxxx |      1635278 |      1635278 |      1635278 |      1635278 |xxxxxxxxxxxxx |xxxxxxxxxxxxx |xxxxxxxxxxxxx |      3439730 |      3439730 |      3439730 |      3439730 |xxxxxxxxxxxxx |xxxxxxxxxxxxx |xxxxxxxxxxxxx |      7714362 |      7714362 |      7714362 |      7714362 |xxxxxxxxxxxxx |xxxxxxxxxxxxx |xxxxxxxxxxxxx |     15916239 |     15916239 |     15916239 |     15916239 |xxxxxxxxxxxxx |xxxxxxxxxxxxx |xxxxxxxxxxxxx |     34295423 |     34295423 |     34295423 |     34295423 |xxxxxxxxxxxxx |xxxxxxxxxxxxx |xxxxxxxxxxxxx |     72966587 |     72966587 |     72966587 |     72966587 |xxxxxxxxxxxxx |xxxxxxxxxxxxx |xxxxxxxxxxxxx |    156579651 |    156579651 |    156579651 |    156579651 |xxxxxxxxxxxxx |xxxxxxxxxxxxx |xxxxxxxxxxxxx |    328250378 |    328250378 |    328250378 |    328250378 |
[...]
bpred_2lev.retstack_pushes           xxxxxxxxxxxxx |xxxxxxxxxxxxx |xxxxxxxxxxxxx |           60 |           60 |           60 |           60 |xxxxxxxxxxxxx |xxxxxxxxxxxxx |xxxxxxxxxxxxx |           60 |           60 |           60 |           60 |xxxxxxxxxxxxx |xxxxxxxxxxxxx |xxxxxxxxxxxxx |           60 |           60 |           60 |           60 |xxxxxxxxxxxxx |xxxxxxxxxxxxx |xxxxxxxxxxxxx |           60 |           60 |           60 |           60 |xxxxxxxxxxxxx |xxxxxxxxxxxxx |xxxxxxxxxxxxx |           60 |           60 |           60 |           60 |xxxxxxxxxxxxx |xxxxxxxxxxxxx |xxxxxxxxxxxxx |           60 |           60 |           60 |           60 |xxxxxxxxxxxxx |xxxxxxxxxxxxx |xxxxxxxxxxxxx |           60 |           60 |           60 |           60 |xxxxxxxxxxxxx |xxxxxxxxxxxxx |xxxxxxxxxxxxx |           60 |           60 |           60 |           60 |xxxxxxxxxxxxx |xxxxxxxxxxxxx |xxxxxxxxxxxxx |           60 |           60 |           60 |           60 |xxxxxxxxxxxxx |xxxxxxxxxxxxx |xxxxxxxxxxxxx |           60 |           60 |           60 |           60 |xxxxxxxxxxxxx |xxxxxxxxxxxxx |xxxxxxxxxxxxx |           60 |           60 |           60 |           60 |
bpred_2lev.retstack_pops             xxxxxxxxxxxxx |xxxxxxxxxxxxx |xxxxxxxxxxxxx |           58 |           58 |           58 |           58 |xxxxxxxxxxxxx |xxxxxxxxxxxxx |xxxxxxxxxxxxx |           58 |           58 |           58 |           58 |xxxxxxxxxxxxx |xxxxxxxxxxxxx |xxxxxxxxxxxxx |           58 |           58 |           58 |           58 |xxxxxxxxxxxxx |xxxxxxxxxxxxx |xxxxxxxxxxxxx |           58 |           58 |           58 |           58 |xxxxxxxxxxxxx |xxxxxxxxxxxxx |xxxxxxxxxxxxx |           58 |           58 |           58 |           58 |xxxxxxxxxxxxx |xxxxxxxxxxxxx |xxxxxxxxxxxxx |           58 |           58 |           58 |           58 |xxxxxxxxxxxxx |xxxxxxxxxxxxx |xxxxxxxxxxxxx |           58 |           58 |           58 |           58 |xxxxxxxxxxxxx |xxxxxxxxxxxxx |xxxxxxxxxxxxx |           58 |           58 |           58 |           58 |xxxxxxxxxxxxx |xxxxxxxxxxxxx |xxxxxxxxxxxxx |           58 |           58 |           58 |           58 |xxxxxxxxxxxxx |xxxxxxxxxxxxx |xxxxxxxxxxxxx |           58 |           58 |           58 |           58 |xxxxxxxxxxxxx |xxxxxxxxxxxxx |xxxxxxxxxxxxx |           58 |           58 |           58 |           58 |
bpred_2lev.used_ras.PP               xxxxxxxxxxxxx |xxxxxxxxxxxxx |xxxxxxxxxxxxx |           58 |           58 |           58 |           58 |xxxxxxxxxxxxx |xxxxxxxxxxxxx |xxxxxxxxxxxxx |           58 |           58 |           58 |           58 |xxxxxxxxxxxxx |xxxxxxxxxxxxx |xxxxxxxxxxxxx |           58 |           58 |           58 |           58 |xxxxxxxxxxxxx |xxxxxxxxxxxxx |xxxxxxxxxxxxx |           58 |           58 |           58 |           58 |xxxxxxxxxxxxx |xxxxxxxxxxxxx |xxxxxxxxxxxxx |           58 |           58 |           58 |           58 |xxxxxxxxxxxxx |xxxxxxxxxxxxx |xxxxxxxxxxxxx |           58 |           58 |           58 |           58 |xxxxxxxxxxxxx |xxxxxxxxxxxxx |xxxxxxxxxxxxx |           58 |           58 |           58 |           58 |xxxxxxxxxxxxx |xxxxxxxxxxxxx |xxxxxxxxxxxxx |           58 |           58 |           58 |           58 |xxxxxxxxxxxxx |xxxxxxxxxxxxx |xxxxxxxxxxxxx |           58 |           58 |           58 |           58 |xxxxxxxxxxxxx |xxxxxxxxxxxxx |xxxxxxxxxxxxx |           58 |           58 |           58 |           58 |xxxxxxxxxxxxx |xxxxxxxxxxxxx |xxxxxxxxxxxxx |           58 |           58 |           58 |           58 |
bpred_2lev.ras_hits.PP               xxxxxxxxxxxxx |xxxxxxxxxxxxx |xxxxxxxxxxxxx |           57 |           57 |           57 |           57 |xxxxxxxxxxxxx |xxxxxxxxxxxxx |xxxxxxxxxxxxx |           57 |           57 |           57 |           57 |xxxxxxxxxxxxx |xxxxxxxxxxxxx |xxxxxxxxxxxxx |           57 |           57 |           57 |           57 |xxxxxxxxxxxxx |xxxxxxxxxxxxx |xxxxxxxxxxxxx |           57 |           57 |           57 |           57 |xxxxxxxxxxxxx |xxxxxxxxxxxxx |xxxxxxxxxxxxx |           57 |           57 |           57 |           57 |xxxxxxxxxxxxx |xxxxxxxxxxxxx |xxxxxxxxxxxxx |           57 |           57 |           57 |           57 |xxxxxxxxxxxxx |xxxxxxxxxxxxx |xxxxxxxxxxxxx |           57 |           57 |           57 |           57 |xxxxxxxxxxxxx |xxxxxxxxxxxxx |xxxxxxxxxxxxx |           57 |           57 |           57 |           57 |xxxxxxxxxxxxx |xxxxxxxxxxxxx |xxxxxxxxxxxxx |           57 |           57 |           57 |           57 |xxxxxxxxxxxxx |xxxxxxxxxxxxx |xxxxxxxxxxxxx |           57 |           57 |           57 |           57 |xxxxxxxxxxxxx |xxxxxxxxxxxxx |xxxxxxxxxxxxx |           57 |           57 |           57 |           57 |
bpred_2lev.ras_rate.PP               xxxxxxxxxxxxx |xxxxxxxxxxxxx |xxxxxxxxxxxxx |       0.9828 |       0.9828 |       0.9828 |       0.9828 |xxxxxxxxxxxxx |xxxxxxxxxxxxx |xxxxxxxxxxxxx |       0.9828 |       0.9828 |       0.9828 |       0.9828 |xxxxxxxxxxxxx |xxxxxxxxxxxxx |xxxxxxxxxxxxx |       0.9828 |       0.9828 |       0.9828 |       0.9828 |xxxxxxxxxxxxx |xxxxxxxxxxxxx |xxxxxxxxxxxxx |       0.9828 |       0.9828 |       0.9828 |       0.9828 |xxxxxxxxxxxxx |xxxxxxxxxxxxx |xxxxxxxxxxxxx |       0.9828 |       0.9828 |       0.9828 |       0.9828 |xxxxxxxxxxxxx |xxxxxxxxxxxxx |xxxxxxxxxxxxx |       0.9828 |       0.9828 |       0.9828 |       0.9828 |xxxxxxxxxxxxx |xxxxxxxxxxxxx |xxxxxxxxxxxxx |       0.9828 |       0.9828 |       0.9828 |       0.9828 |xxxxxxxxxxxxx |xxxxxxxxxxxxx |xxxxxxxxxxxxx |       0.9828 |       0.9828 |       0.9828 |       0.9828 |xxxxxxxxxxxxx |xxxxxxxxxxxxx |xxxxxxxxxxxxx |       0.9828 |       0.9828 |       0.9828 |       0.9828 |xxxxxxxxxxxxx |xxxxxxxxxxxxx |xxxxxxxxxxxxx |       0.9828 |       0.9828 |       0.9828 |       0.9828 |xxxxxxxxxxxxx |xxxxxxxxxxxxx |xxxxxxxxxxxxx |       0.9828 |       0.9828 |       0.9828 |       0.9828 |

Command list: 
	sslittle-na-sstrix-gcc -Wall -O3 -funroll-loops -finline-functions  -DRANDOM_SIZE=4096 -DOFFSET=9 -DSORT=improved_shellsort sorts/improved_shellsort1416481347.c simpleMain.c -o improved_shellsort335723121
	sim-cache -cache:dl1 dl1:256:32:1:l -cache:dl2 dl2:131072:32:1:l -cache:il1 il1:256:32:1:l -cache:il2 dl2 improved_shellsort335723121
	sim-cache -cache:dl1 dl1:256:32:1:l -cache:dl2 dl2:65536:32:1:l -cache:il1 il1:256:32:1:l -cache:il2 dl2 improved_shellsort335723121
	sim-cache -cache:dl1 dl1:1:32:256:l -cache:dl2 dl2:1:32:131072:l -cache:il1 il1:1:32:256:l -cache:il2 dl2 improved_shellsort335723121
	sim-cache -cache:dl1 dl1:1:32:256:l -cache:dl2 dl2:1:32:65536:l -cache:il1 il1:1:32:256:l -cache:il2 dl2 improved_shellsort335723121
	sim-bpred -bpred bimod -bpred:bimod 512 improved_shellsort335723121
	sim-bpred -bpred bimod -bpred:bimod 1024 improved_shellsort335723121
	sim-bpred -bpred bimod -bpred:bimod 2048 improved_shellsort335723121
	sim-bpred -bpred 2lev -bpred:2lev 1 512 10 1 improved_shellsort335723121
	sim-bpred -bpred 2lev -bpred:2lev 1 1024 10 1 improved_shellsort335723121
	sim-bpred -bpred 2lev -bpred:2lev 1 2048 10 1 improved_shellsort335723121
	sim-bpred -bpred 2lev -bpred:2lev 1 4096 10 1 improved_shellsort335723121
	sslittle-na-sstrix-gcc -Wall -O3 -funroll-loops -finline-functions  -DRANDOM_SIZE=8192 -DOFFSET=9 -DSORT=improved_shellsort sorts/improved_shellsort1416481347.c simpleMain.c -o improved_shellsort335723121
	sim-cache -cache:dl1 dl1:256:32:1:l -cache:dl2 dl2:131072:32:1:l -cache:il1 il1:256:32:1:l -cache:il2 dl2 improved_shellsort335723121
	sim-cache -cache:dl1 dl1:256:32:1:l -cache:dl2 dl2:65536:32:1:l -cache:il1 il1:256:32:1:l -cache:il2 dl2 improved_shellsort335723121
	sim-cache -cache:dl1 dl1:1:32:256:l -cache:dl2 dl2:1:32:131072:l -cache:il1 il1:1:32:256:l -cache:il2 dl2 improved_shellsort335723121
	sim-cache -cache:dl1 dl1:1:32:256:l -cache:dl2 dl2:1:32:65536:l -cache:il1 il1:1:32:256:l -cache:il2 dl2 improved_shellsort335723121
	sim-bpred -bpred bimod -bpred:bimod 512 improved_shellsort335723121
	sim-bpred -bpred bimod -bpred:bimod 1024 improved_shellsort335723121
	sim-bpred -bpred bimod -bpred:bimod 2048 improved_shellsort335723121
	sim-bpred -bpred 2lev -bpred:2lev 1 512 10 1 improved_shellsort335723121
	sim-bpred -bpred 2lev -bpred:2lev 1 1024 10 1 improved_shellsort335723121
	sim-bpred -bpred 2lev -bpred:2lev 1 2048 10 1 improved_shellsort335723121
	sim-bpred -bpred 2lev -bpred:2lev 1 4096 10 1 improved_shellsort335723121
	sslittle-na-sstrix-gcc -Wall -O3 -funroll-loops -finline-functions  -DRANDOM_SIZE=16384 -DOFFSET=9 -DSORT=improved_shellsort sorts/improved_shellsort1416481347.c simpleMain.c -o improved_shellsort335723121
	sim-cache -cache:dl1 dl1:256:32:1:l -cache:dl2 dl2:131072:32:1:l -cache:il1 il1:256:32:1:l -cache:il2 dl2 improved_shellsort335723121
	sim-cache -cache:dl1 dl1:256:32:1:l -cache:dl2 dl2:65536:32:1:l -cache:il1 il1:256:32:1:l -cache:il2 dl2 improved_shellsort335723121
	sim-cache -cache:dl1 dl1:1:32:256:l -cache:dl2 dl2:1:32:131072:l -cache:il1 il1:1:32:256:l -cache:il2 dl2 improved_shellsort335723121
	sim-cache -cache:dl1 dl1:1:32:256:l -cache:dl2 dl2:1:32:65536:l -cache:il1 il1:1:32:256:l -cache:il2 dl2 improved_shellsort335723121
	sim-bpred -bpred bimod -bpred:bimod 512 improved_shellsort335723121
	sim-bpred -bpred bimod -bpred:bimod 1024 improved_shellsort335723121
	sim-bpred -bpred bimod -bpred:bimod 2048 improved_shellsort335723121
	sim-bpred -bpred 2lev -bpred:2lev 1 512 10 1 improved_shellsort335723121
	sim-bpred -bpred 2lev -bpred:2lev 1 1024 10 1 improved_shellsort335723121
	sim-bpred -bpred 2lev -bpred:2lev 1 2048 10 1 improved_shellsort335723121
	sim-bpred -bpred 2lev -bpred:2lev 1 4096 10 1 improved_shellsort335723121
	sslittle-na-sstrix-gcc -Wall -O3 -funroll-loops -finline-functions  -DRANDOM_SIZE=32768 -DOFFSET=9 -DSORT=improved_shellsort sorts/improved_shellsort1416481347.c simpleMain.c -o improved_shellsort335723121
	sim-cache -cache:dl1 dl1:256:32:1:l -cache:dl2 dl2:131072:32:1:l -cache:il1 il1:256:32:1:l -cache:il2 dl2 improved_shellsort335723121
	sim-cache -cache:dl1 dl1:256:32:1:l -cache:dl2 dl2:65536:32:1:l -cache:il1 il1:256:32:1:l -cache:il2 dl2 improved_shellsort335723121
	sim-cache -cache:dl1 dl1:1:32:256:l -cache:dl2 dl2:1:32:131072:l -cache:il1 il1:1:32:256:l -cache:il2 dl2 improved_shellsort335723121
	sim-cache -cache:dl1 dl1:1:32:256:l -cache:dl2 dl2:1:32:65536:l -cache:il1 il1:1:32:256:l -cache:il2 dl2 improved_shellsort335723121
	sim-bpred -bpred bimod -bpred:bimod 512 improved_shellsort335723121
	sim-bpred -bpred bimod -bpred:bimod 1024 improved_shellsort335723121
	sim-bpred -bpred bimod -bpred:bimod 2048 improved_shellsort335723121
	sim-bpred -bpred 2lev -bpred:2lev 1 512 10 1 improved_shellsort335723121
	sim-bpred -bpred 2lev -bpred:2lev 1 1024 10 1 improved_shellsort335723121
	sim-bpred -bpred 2lev -bpred:2lev 1 2048 10 1 improved_shellsort335723121
	sim-bpred -bpred 2lev -bpred:2lev 1 4096 10 1 improved_shellsort335723121
	sslittle-na-sstrix-gcc -Wall -O3 -funroll-loops -finline-functions  -DRANDOM_SIZE=65536 -DOFFSET=9 -DSORT=improved_shellsort sorts/improved_shellsort1416481347.c simpleMain.c -o improved_shellsort335723121
	sim-cache -cache:dl1 dl1:256:32:1:l -cache:dl2 dl2:131072:32:1:l -cache:il1 il1:256:32:1:l -cache:il2 dl2 improved_shellsort335723121
	sim-cache -cache:dl1 dl1:256:32:1:l -cache:dl2 dl2:65536:32:1:l -cache:il1 il1:256:32:1:l -cache:il2 dl2 improved_shellsort335723121
	sim-cache -cache:dl1 dl1:1:32:256:l -cache:dl2 dl2:1:32:131072:l -cache:il1 il1:1:32:256:l -cache:il2 dl2 improved_shellsort335723121
	sim-cache -cache:dl1 dl1:1:32:256:l -cache:dl2 dl2:1:32:65536:l -cache:il1 il1:1:32:256:l -cache:il2 dl2 improved_shellsort335723121
	sim-bpred -bpred bimod -bpred:bimod 512 improved_shellsort335723121
	sim-bpred -bpred bimod -bpred:bimod 1024 improved_shellsort335723121
	sim-bpred -bpred bimod -bpred:bimod 2048 improved_shellsort335723121
	sim-bpred -bpred 2lev -bpred:2lev 1 512 10 1 improved_shellsort335723121
	sim-bpred -bpred 2lev -bpred:2lev 1 1024 10 1 improved_shellsort335723121
	sim-bpred -bpred 2lev -bpred:2lev 1 2048 10 1 improved_shellsort335723121
	sim-bpred -bpred 2lev -bpred:2lev 1 4096 10 1 improved_shellsort335723121
	sslittle-na-sstrix-gcc -Wall -O3 -funroll-loops -finline-functions  -DRANDOM_SIZE=131072 -DOFFSET=9 -DSORT=improved_shellsort sorts/improved_shellsort1416481347.c simpleMain.c -o improved_shellsort335723121
	sim-cache -cache:dl1 dl1:256:32:1:l -cache:dl2 dl2:131072:32:1:l -cache:il1 il1:256:32:1:l -cache:il2 dl2 improved_shellsort335723121
	sim-cache -cache:dl1 dl1:256:32:1:l -cache:dl2 dl2:65536:32:1:l -cache:il1 il1:256:32:1:l -cache:il2 dl2 improved_shellsort335723121
	sim-cache -cache:dl1 dl1:1:32:256:l -cache:dl2 dl2:1:32:131072:l -cache:il1 il1:1:32:256:l -cache:il2 dl2 improved_shellsort335723121
	sim-cache -cache:dl1 dl1:1:32:256:l -cache:dl2 dl2:1:32:65536:l -cache:il1 il1:1:32:256:l -cache:il2 dl2 improved_shellsort335723121
	sim-bpred -bpred bimod -bpred:bimod 512 improved_shellsort335723121
	sim-bpred -bpred bimod -bpred:bimod 1024 improved_shellsort335723121
	sim-bpred -bpred bimod -bpred:bimod 2048 improved_shellsort335723121
	sim-bpred -bpred 2lev -bpred:2lev 1 512 10 1 improved_shellsort335723121
	sim-bpred -bpred 2lev -bpred:2lev 1 1024 10 1 improved_shellsort335723121
	sim-bpred -bpred 2lev -bpred:2lev 1 2048 10 1 improved_shellsort335723121
	sim-bpred -bpred 2lev -bpred:2lev 1 4096 10 1 improved_shellsort335723121
	sslittle-na-sstrix-gcc -Wall -O3 -funroll-loops -finline-functions  -DRANDOM_SIZE=262144 -DOFFSET=9 -DSORT=improved_shellsort sorts/improved_shellsort1416481347.c simpleMain.c -o improved_shellsort335723121
	sim-cache -cache:dl1 dl1:256:32:1:l -cache:dl2 dl2:131072:32:1:l -cache:il1 il1:256:32:1:l -cache:il2 dl2 improved_shellsort335723121
	sim-cache -cache:dl1 dl1:256:32:1:l -cache:dl2 dl2:65536:32:1:l -cache:il1 il1:256:32:1:l -cache:il2 dl2 improved_shellsort335723121
	sim-cache -cache:dl1 dl1:1:32:256:l -cache:dl2 dl2:1:32:131072:l -cache:il1 il1:1:32:256:l -cache:il2 dl2 improved_shellsort335723121
	sim-cache -cache:dl1 dl1:1:32:256:l -cache:dl2 dl2:1:32:65536:l -cache:il1 il1:1:32:256:l -cache:il2 dl2 improved_shellsort335723121
	sim-bpred -bpred bimod -bpred:bimod 512 improved_shellsort335723121
	sim-bpred -bpred bimod -bpred:bimod 1024 improved_shellsort335723121
	sim-bpred -bpred bimod -bpred:bimod 2048 improved_shellsort335723121
	sim-bpred -bpred 2lev -bpred:2lev 1 512 10 1 improved_shellsort335723121
	sim-bpred -bpred 2lev -bpred:2lev 1 1024 10 1 improved_shellsort335723121
	sim-bpred -bpred 2lev -bpred:2lev 1 2048 10 1 improved_shellsort335723121
	sim-bpred -bpred 2lev -bpred:2lev 1 4096 10 1 improved_shellsort335723121
	sslittle-na-sstrix-gcc -Wall -O3 -funroll-loops -finline-functions  -DRANDOM_SIZE=524288 -DOFFSET=9 -DSORT=improved_shellsort sorts/improved_shellsort1416481347.c simpleMain.c -o improved_shellsort335723121
	sim-cache -cache:dl1 dl1:256:32:1:l -cache:dl2 dl2:131072:32:1:l -cache:il1 il1:256:32:1:l -cache:il2 dl2 improved_shellsort335723121
	sim-cache -cache:dl1 dl1:256:32:1:l -cache:dl2 dl2:65536:32:1:l -cache:il1 il1:256:32:1:l -cache:il2 dl2 improved_shellsort335723121
	sim-cache -cache:dl1 dl1:1:32:256:l -cache:dl2 dl2:1:32:131072:l -cache:il1 il1:1:32:256:l -cache:il2 dl2 improved_shellsort335723121
	sim-cache -cache:dl1 dl1:1:32:256:l -cache:dl2 dl2:1:32:65536:l -cache:il1 il1:1:32:256:l -cache:il2 dl2 improved_shellsort335723121
	sim-bpred -bpred bimod -bpred:bimod 512 improved_shellsort335723121
	sim-bpred -bpred bimod -bpred:bimod 1024 improved_shellsort335723121
	sim-bpred -bpred bimod -bpred:bimod 2048 improved_shellsort335723121
	sim-bpred -bpred 2lev -bpred:2lev 1 512 10 1 improved_shellsort335723121
	sim-bpred -bpred 2lev -bpred:2lev 1 1024 10 1 improved_shellsort335723121
	sim-bpred -bpred 2lev -bpred:2lev 1 2048 10 1 improved_shellsort335723121
	sim-bpred -bpred 2lev -bpred:2lev 1 4096 10 1 improved_shellsort335723121
	sslittle-na-sstrix-gcc -Wall -O3 -funroll-loops -finline-functions  -DRANDOM_SIZE=1048576 -DOFFSET=9 -DSORT=improved_shellsort sorts/improved_shellsort1416481347.c simpleMain.c -o improved_shellsort335723121
	sim-cache -cache:dl1 dl1:256:32:1:l -cache:dl2 dl2:131072:32:1:l -cache:il1 il1:256:32:1:l -cache:il2 dl2 improved_shellsort335723121
	sim-cache -cache:dl1 dl1:256:32:1:l -cache:dl2 dl2:65536:32:1:l -cache:il1 il1:256:32:1:l -cache:il2 dl2 improved_shellsort335723121
	sim-cache -cache:dl1 dl1:1:32:256:l -cache:dl2 dl2:1:32:131072:l -cache:il1 il1:1:32:256:l -cache:il2 dl2 improved_shellsort335723121
	sim-cache -cache:dl1 dl1:1:32:256:l -cache:dl2 dl2:1:32:65536:l -cache:il1 il1:1:32:256:l -cache:il2 dl2 improved_shellsort335723121
	sim-bpred -bpred bimod -bpred:bimod 512 improved_shellsort335723121
	sim-bpred -bpred bimod -bpred:bimod 1024 improved_shellsort335723121
	sim-bpred -bpred bimod -bpred:bimod 2048 improved_shellsort335723121
	sim-bpred -bpred 2lev -bpred:2lev 1 512 10 1 improved_shellsort335723121
	sim-bpred -bpred 2lev -bpred:2lev 1 1024 10 1 improved_shellsort335723121
	sim-bpred -bpred 2lev -bpred:2lev 1 2048 10 1 improved_shellsort335723121
	sim-bpred -bpred 2lev -bpred:2lev 1 4096 10 1 improved_shellsort335723121
	sslittle-na-sstrix-gcc -Wall -O3 -funroll-loops -finline-functions  -DRANDOM_SIZE=2097152 -DOFFSET=9 -DSORT=improved_shellsort sorts/improved_shellsort1416481347.c simpleMain.c -o improved_shellsort335723121
	sim-cache -cache:dl1 dl1:256:32:1:l -cache:dl2 dl2:131072:32:1:l -cache:il1 il1:256:32:1:l -cache:il2 dl2 improved_shellsort335723121
	sim-cache -cache:dl1 dl1:256:32:1:l -cache:dl2 dl2:65536:32:1:l -cache:il1 il1:256:32:1:l -cache:il2 dl2 improved_shellsort335723121
	sim-cache -cache:dl1 dl1:1:32:256:l -cache:dl2 dl2:1:32:131072:l -cache:il1 il1:1:32:256:l -cache:il2 dl2 improved_shellsort335723121
	sim-cache -cache:dl1 dl1:1:32:256:l -cache:dl2 dl2:1:32:65536:l -cache:il1 il1:1:32:256:l -cache:il2 dl2 improved_shellsort335723121
	sim-bpred -bpred bimod -bpred:bimod 512 improved_shellsort335723121
	sim-bpred -bpred bimod -bpred:bimod 1024 improved_shellsort335723121
	sim-bpred -bpred bimod -bpred:bimod 2048 improved_shellsort335723121
	sim-bpred -bpred 2lev -bpred:2lev 1 512 10 1 improved_shellsort335723121
	sim-bpred -bpred 2lev -bpred:2lev 1 1024 10 1 improved_shellsort335723121
	sim-bpred -bpred 2lev -bpred:2lev 1 2048 10 1 improved_shellsort335723121
	sim-bpred -bpred 2lev -bpred:2lev 1 4096 10 1 improved_shellsort335723121
	sslittle-na-sstrix-gcc -Wall -O3 -funroll-loops -finline-functions  -DRANDOM_SIZE=4194304 -DOFFSET=9 -DSORT=improved_shellsort sorts/improved_shellsort1416481347.c simpleMain.c -o improved_shellsort335723121
	sim-cache -cache:dl1 dl1:256:32:1:l -cache:dl2 dl2:131072:32:1:l -cache:il1 il1:256:32:1:l -cache:il2 dl2 improved_shellsort335723121
	sim-cache -cache:dl1 dl1:256:32:1:l -cache:dl2 dl2:65536:32:1:l -cache:il1 il1:256:32:1:l -cache:il2 dl2 improved_shellsort335723121
	sim-cache -cache:dl1 dl1:1:32:256:l -cache:dl2 dl2:1:32:131072:l -cache:il1 il1:1:32:256:l -cache:il2 dl2 improved_shellsort335723121
	sim-cache -cache:dl1 dl1:1:32:256:l -cache:dl2 dl2:1:32:65536:l -cache:il1 il1:1:32:256:l -cache:il2 dl2 improved_shellsort335723121
	sim-bpred -bpred bimod -bpred:bimod 512 improved_shellsort335723121
	sim-bpred -bpred bimod -bpred:bimod 1024 improved_shellsort335723121
	sim-bpred -bpred bimod -bpred:bimod 2048 improved_shellsort335723121
	sim-bpred -bpred 2lev -bpred:2lev 1 512 10 1 improved_shellsort335723121
	sim-bpred -bpred 2lev -bpred:2lev 1 1024 10 1 improved_shellsort335723121
	sim-bpred -bpred 2lev -bpred:2lev 1 2048 10 1 improved_shellsort335723121
	sim-bpred -bpred 2lev -bpred:2lev 1 4096 10 1 improved_shellsort335723121
