Sun Jul 31 01:23:29 2005
Run as: "./do_simple -c random.org8 -o 8 improved_shellsort"
-------------------------------------------------------------------------------------------------
sim-cache                                     4096 |         4096 |         4096 |         4096 |         8192 |         8192 |         8192 |         8192 |        16384 |        16384 |        16384 |        16384 |        32768 |        32768 |        32768 |        32768 |        65536 |        65536 |        65536 |        65536 |       131072 |       131072 |       131072 |       131072 |       262144 |       262144 |       262144 |       262144 |       524288 |       524288 |       524288 |       524288 |      1048576 |      1048576 |      1048576 |      1048576 |      2097152 |      2097152 |      2097152 |      2097152 |      4194304 |      4194304 |      4194304 |      4194304 |
-cache:dl1 dl1:256:32:1:l -cache:dl2 dl2:131072:32:1:l -cache:il1 il1:256:32:1:l -cache:il2 dl2
-cache:dl1 dl1:256:32:1:l -cache:dl2 dl2:65536:32:1:l -cache:il1 il1:256:32:1:l -cache:il2 dl2
-cache:dl1 dl1:1:32:256:l -cache:dl2 dl2:1:32:131072:l -cache:il1 il1:1:32:256:l -cache:il2 dl2
-cache:dl1 dl1:1:32:256:l -cache:dl2 dl2:1:32:65536:l -cache:il1 il1:1:32:256:l -cache:il2 dl2
-------------------------------------------------------------------------------------------------
sim_num_insn                                897129 |       897129 |       897129 |       897129 |      2021386 |      2021386 |      2021386 |      2021386 |      4703237 |      4703237 |      4703237 |      4703237 |     10002157 |     10002157 |     10002157 |     10002157 |     21274184 |     21274184 |     21274184 |     21274184 |     47288077 |     47288077 |     47288077 |     47288077 |     97595324 |     97595324 |     97595324 |     97595324 |    209577793 |    209577793 |    209577793 |    209577793 |    444768590 |    444768590 |    444768590 |    444768590 |    952843628 |    952843628 |    952843628 |    952843628 |   1993323610 |   1993323610 |   1993323610 |   1993323610 |
sim_num_refs                                191437 |       191437 |       191437 |       191437 |       424249 |       424249 |       424249 |       424249 |       942637 |       942637 |       942637 |       942637 |      1997479 |      1997479 |      1997479 |      1997479 |      4625073 |      4625073 |      4625073 |      4625073 |     10119119 |     10119119 |     10119119 |     10119119 |     20112462 |     20112462 |     20112462 |     20112462 |     42539784 |     42539784 |     42539784 |     42539784 |     88535772 |     88535772 |     88535772 |     88535772 |    190736190 |    190736190 |    190736190 |    190736190 |    386133752 |    386133752 |    386133752 |    386133752 |
sim_elapsed_time                                 1 |            1 |            7 |            3 |            1 |            1 |            9 |            6 |            1 |            1 |           16 |            8 |            3 |            3 |           27 |           15 |            5 |            6 |           50 |           27 |           13 |           12 |           96 |           51 |           25 |           25 |          177 |           91 |           54 |           53 |          312 |          141 |          112 |          114 |          458 |          210 |          244 |          244 |          609 |          356 |          508 |          507 |          905 |          656 |
sim_inst_rate                          897129.0000 |  897129.0000 |  128161.2857 |  299043.0000 | 2021386.0000 | 2021386.0000 |  224598.4444 |  336897.6667 | 4703237.0000 | 4703237.0000 |  293952.3125 |  587904.6250 | 3334052.3333 | 3334052.3333 |  370450.2593 |  666810.4667 | 4254836.8000 | 3545697.3333 |  425483.6800 |  787932.7407 | 3637544.3846 | 3940673.0833 |  492584.1354 |  927217.1961 | 3903812.9600 | 3903812.9600 |  551386.0113 | 1072476.0879 | 3881070.2407 | 3954297.9811 |  671723.6955 | 1486367.3262 | 3971148.1250 | 3901478.8596 |  971110.4585 | 2117945.6667 | 3905096.8361 | 3905096.8361 | 1564603.6585 | 2676527.0449 | 3923865.3740 | 3931604.7535 | 2202567.5249 | 3038603.0640 |
il1.accesses                                897129 |       897129 |       897129 |       897129 |      2021386 |      2021386 |      2021386 |      2021386 |      4703237 |      4703237 |      4703237 |      4703237 |     10002157 |     10002157 |     10002157 |     10002157 |     21274184 |     21274184 |     21274184 |     21274184 |     47288077 |     47288077 |     47288077 |     47288077 |     97595324 |     97595324 |     97595324 |     97595324 |    209577793 |    209577793 |    209577793 |    209577793 |    444768590 |    444768590 |    444768590 |    444768590 |    952843628 |    952843628 |    952843628 |    952843628 |   1993323610 |   1993323610 |   1993323610 |   1993323610 |
il1.hits                                    896705 |       896705 |       896765 |       896765 |      2020960 |      2020960 |      2021020 |      2021020 |      4702820 |      4702820 |      4702874 |      4702874 |     10001730 |     10001730 |     10001790 |     10001790 |     21273757 |     21273757 |     21273817 |     21273817 |     47287651 |     47287651 |     47287711 |     47287711 |     97594898 |     97594898 |     97594958 |     97594958 |    209577367 |    209577367 |    209577427 |    209577427 |    444768164 |    444768164 |    444768224 |    444768224 |    952843202 |    952843202 |    952843262 |    952843262 |   1993323184 |   1993323184 |   1993323244 |   1993323244 |
il1.misses                                     424 |          424 |          364 |          364 |          426 |          426 |          366 |          366 |          417 |          417 |          363 |          363 |          427 |          427 |          367 |          367 |          427 |          427 |          367 |          367 |          426 |          426 |          366 |          366 |          426 |          426 |          366 |          366 |          426 |          426 |          366 |          366 |          426 |          426 |          366 |          366 |          426 |          426 |          366 |          366 |          426 |          426 |          366 |          366 |
il1.replacements                               213 |          213 |          108 |          108 |          213 |          213 |          110 |          110 |          207 |          207 |          107 |          107 |          213 |          213 |          111 |          111 |          213 |          213 |          111 |          111 |          212 |          212 |          110 |          110 |          212 |          212 |          110 |          110 |          212 |          212 |          110 |          110 |          212 |          212 |          110 |          110 |          212 |          212 |          110 |          110 |          212 |          212 |          110 |          110 |
il1.writebacks                                   0 |            0 |            0 |            0 |            0 |            0 |            0 |            0 |            0 |            0 |            0 |            0 |            0 |            0 |            0 |            0 |            0 |            0 |            0 |            0 |            0 |            0 |            0 |            0 |            0 |            0 |            0 |            0 |            0 |            0 |            0 |            0 |            0 |            0 |            0 |            0 |            0 |            0 |            0 |            0 |            0 |            0 |            0 |            0 |
il1.invalidations                                0 |            0 |            0 |            0 |            0 |            0 |            0 |            0 |            0 |            0 |            0 |            0 |            0 |            0 |            0 |            0 |            0 |            0 |            0 |            0 |            0 |            0 |            0 |            0 |            0 |            0 |            0 |            0 |            0 |            0 |            0 |            0 |            0 |            0 |            0 |            0 |            0 |            0 |            0 |            0 |            0 |            0 |            0 |            0 |
il1.miss_rate                               0.0005 |       0.0005 |       0.0004 |       0.0004 |       0.0002 |       0.0002 |       0.0002 |       0.0002 |       0.0001 |       0.0001 |       0.0001 |       0.0001 |       0.0000 |       0.0000 |       0.0000 |       0.0000 |       0.0000 |       0.0000 |       0.0000 |       0.0000 |       0.0000 |       0.0000 |       0.0000 |       0.0000 |       0.0000 |       0.0000 |       0.0000 |       0.0000 |       0.0000 |       0.0000 |       0.0000 |       0.0000 |       0.0000 |       0.0000 |       0.0000 |       0.0000 |       0.0000 |       0.0000 |       0.0000 |       0.0000 |       0.0000 |       0.0000 |       0.0000 |       0.0000 |
il1.repl_rate                               0.0002 |       0.0002 |       0.0001 |       0.0001 |       0.0001 |       0.0001 |       0.0001 |       0.0001 |       0.0000 |       0.0000 |       0.0000 |       0.0000 |       0.0000 |       0.0000 |       0.0000 |       0.0000 |       0.0000 |       0.0000 |       0.0000 |       0.0000 |       0.0000 |       0.0000 |       0.0000 |       0.0000 |       0.0000 |       0.0000 |       0.0000 |       0.0000 |       0.0000 |       0.0000 |       0.0000 |       0.0000 |       0.0000 |       0.0000 |       0.0000 |       0.0000 |       0.0000 |       0.0000 |       0.0000 |       0.0000 |       0.0000 |       0.0000 |       0.0000 |       0.0000 |
il1.wb_rate                                 0.0000 |       0.0000 |       0.0000 |       0.0000 |       0.0000 |       0.0000 |       0.0000 |       0.0000 |       0.0000 |       0.0000 |       0.0000 |       0.0000 |       0.0000 |       0.0000 |       0.0000 |       0.0000 |       0.0000 |       0.0000 |       0.0000 |       0.0000 |       0.0000 |       0.0000 |       0.0000 |       0.0000 |       0.0000 |       0.0000 |       0.0000 |       0.0000 |       0.0000 |       0.0000 |       0.0000 |       0.0000 |       0.0000 |       0.0000 |       0.0000 |       0.0000 |       0.0000 |       0.0000 |       0.0000 |       0.0000 |       0.0000 |       0.0000 |       0.0000 |       0.0000 |
il1.inv_rate                                0.0000 |       0.0000 |       0.0000 |       0.0000 |       0.0000 |       0.0000 |       0.0000 |       0.0000 |       0.0000 |       0.0000 |       0.0000 |       0.0000 |       0.0000 |       0.0000 |       0.0000 |       0.0000 |       0.0000 |       0.0000 |       0.0000 |       0.0000 |       0.0000 |       0.0000 |       0.0000 |       0.0000 |       0.0000 |       0.0000 |       0.0000 |       0.0000 |       0.0000 |       0.0000 |       0.0000 |       0.0000 |       0.0000 |       0.0000 |       0.0000 |       0.0000 |       0.0000 |       0.0000 |       0.0000 |       0.0000 |       0.0000 |       0.0000 |       0.0000 |       0.0000 |
dl1.accesses                                207903 |       207903 |       207903 |       207903 |       457099 |       457099 |       457099 |       457099 |      1008255 |      1008255 |      1008255 |      1008255 |      2128633 |      2128633 |      2128633 |      2128633 |      4887299 |      4887299 |      4887299 |      4887299 |     10643489 |     10643489 |     10643489 |     10643489 |     21161120 |     21161120 |     21161120 |     21161120 |     44637018 |     44637018 |     44637018 |     44637018 |     92730158 |     92730158 |     92730158 |     92730158 |    199124880 |    199124880 |    199124880 |    199124880 |    402911050 |    402911050 |    402911050 |    402911050 |
dl1.hits                                    201946 |       201946 |       201552 |       201552 |       441319 |       441319 |       440731 |       440731 |       967690 |       967690 |       966357 |       966357 |      2031796 |      2031796 |      2024980 |      2024980 |      4658055 |      4658055 |      4645714 |      4645714 |     10095548 |     10095548 |     10071687 |     10071687 |     19928367 |     19928367 |     19836228 |     19836228 |     41803250 |     41803250 |     41610976 |     41610976 |     86446658 |     86446658 |     85942316 |     85942316 |    185117744 |    185117744 |    184700843 |    184700843 |    372160896 |    372160896 |    371980088 |    371980088 |
dl1.misses                                    5957 |         5957 |         6351 |         6351 |        15780 |        15780 |        16368 |        16368 |        40565 |        40565 |        41898 |        41898 |        96837 |        96837 |       103653 |       103653 |       229244 |       229244 |       241585 |       241585 |       547941 |       547941 |       571802 |       571802 |      1232753 |      1232753 |      1324892 |      1324892 |      2833768 |      2833768 |      3026042 |      3026042 |      6283500 |      6283500 |      6787842 |      6787842 |     14007136 |     14007136 |     14424037 |     14424037 |     30750154 |     30750154 |     30930962 |     30930962 |
dl1.replacements                              5701 |         5701 |         6095 |         6095 |        15524 |        15524 |        16112 |        16112 |        40309 |        40309 |        41642 |        41642 |        96581 |        96581 |       103397 |       103397 |       228988 |       228988 |       241329 |       241329 |       547685 |       547685 |       571546 |       571546 |      1232497 |      1232497 |      1324636 |      1324636 |      2833512 |      2833512 |      3025786 |      3025786 |      6283244 |      6283244 |      6787586 |      6787586 |     14006880 |     14006880 |     14423781 |     14423781 |     30749898 |     30749898 |     30930706 |     30930706 |
dl1.writebacks                                5583 |         5583 |         5886 |         5886 |        14405 |        14405 |        14891 |        14891 |        36294 |        36294 |        37341 |        37341 |        85678 |        85678 |        91179 |        91179 |       199155 |       199155 |       209600 |       209600 |       471356 |       471356 |       491896 |       491896 |      1057031 |      1057031 |      1132907 |      1132907 |      2416431 |      2416431 |      2578161 |      2578161 |      5351405 |      5351405 |      5764377 |      5764377 |     11885076 |     11885076 |     12231871 |     12231871 |     26057665 |     26057665 |     26179584 |     26179584 |
dl1.invalidations                                0 |            0 |            0 |            0 |            0 |            0 |            0 |            0 |            0 |            0 |            0 |            0 |            0 |            0 |            0 |            0 |            0 |            0 |            0 |            0 |            0 |            0 |            0 |            0 |            0 |            0 |            0 |            0 |            0 |            0 |            0 |            0 |            0 |            0 |            0 |            0 |            0 |            0 |            0 |            0 |            0 |            0 |            0 |            0 |
dl1.miss_rate                               0.0287 |       0.0287 |       0.0305 |       0.0305 |       0.0345 |       0.0345 |       0.0358 |       0.0358 |       0.0402 |       0.0402 |       0.0416 |       0.0416 |       0.0455 |       0.0455 |       0.0487 |       0.0487 |       0.0469 |       0.0469 |       0.0494 |       0.0494 |       0.0515 |       0.0515 |       0.0537 |       0.0537 |       0.0583 |       0.0583 |       0.0626 |       0.0626 |       0.0635 |       0.0635 |       0.0678 |       0.0678 |       0.0678 |       0.0678 |       0.0732 |       0.0732 |       0.0703 |       0.0703 |       0.0724 |       0.0724 |       0.0763 |       0.0763 |       0.0768 |       0.0768 |
dl1.repl_rate                               0.0274 |       0.0274 |       0.0293 |       0.0293 |       0.0340 |       0.0340 |       0.0352 |       0.0352 |       0.0400 |       0.0400 |       0.0413 |       0.0413 |       0.0454 |       0.0454 |       0.0486 |       0.0486 |       0.0469 |       0.0469 |       0.0494 |       0.0494 |       0.0515 |       0.0515 |       0.0537 |       0.0537 |       0.0582 |       0.0582 |       0.0626 |       0.0626 |       0.0635 |       0.0635 |       0.0678 |       0.0678 |       0.0678 |       0.0678 |       0.0732 |       0.0732 |       0.0703 |       0.0703 |       0.0724 |       0.0724 |       0.0763 |       0.0763 |       0.0768 |       0.0768 |
dl1.wb_rate                                 0.0269 |       0.0269 |       0.0283 |       0.0283 |       0.0315 |       0.0315 |       0.0326 |       0.0326 |       0.0360 |       0.0360 |       0.0370 |       0.0370 |       0.0403 |       0.0403 |       0.0428 |       0.0428 |       0.0407 |       0.0407 |       0.0429 |       0.0429 |       0.0443 |       0.0443 |       0.0462 |       0.0462 |       0.0500 |       0.0500 |       0.0535 |       0.0535 |       0.0541 |       0.0541 |       0.0578 |       0.0578 |       0.0577 |       0.0577 |       0.0622 |       0.0622 |       0.0597 |       0.0597 |       0.0614 |       0.0614 |       0.0647 |       0.0647 |       0.0650 |       0.0650 |
dl1.inv_rate                                0.0000 |       0.0000 |       0.0000 |       0.0000 |       0.0000 |       0.0000 |       0.0000 |       0.0000 |       0.0000 |       0.0000 |       0.0000 |       0.0000 |       0.0000 |       0.0000 |       0.0000 |       0.0000 |       0.0000 |       0.0000 |       0.0000 |       0.0000 |       0.0000 |       0.0000 |       0.0000 |       0.0000 |       0.0000 |       0.0000 |       0.0000 |       0.0000 |       0.0000 |       0.0000 |       0.0000 |       0.0000 |       0.0000 |       0.0000 |       0.0000 |       0.0000 |       0.0000 |       0.0000 |       0.0000 |       0.0000 |       0.0000 |       0.0000 |       0.0000 |       0.0000 |
dl2.accesses                                 11964 |        11964 |        12601 |        12601 |        30611 |        30611 |        31625 |        31625 |        77276 |        77276 |        79602 |        79602 |       182942 |       182942 |       195199 |       195199 |       428826 |       428826 |       451552 |       451552 |      1019723 |      1019723 |      1064064 |      1064064 |      2290210 |      2290210 |      2458165 |      2458165 |      5250625 |      5250625 |      5604569 |      5604569 |     11635331 |     11635331 |     12552585 |     12552585 |     25892638 |     25892638 |     26656274 |     26656274 |     56808245 |     56808245 |     57110912 |     57110912 |
dl2.hits                                     10673 |        10673 |        11314 |        11314 |        28806 |        28806 |        29824 |        29824 |        74451 |        74451 |        76783 |        76783 |       178064 |       178064 |       190325 |       190325 |       419852 |       419852 |       442582 |       442582 |      1002558 |      1002558 |      1046903 |      1046903 |      2256661 |      2256661 |      2424620 |      2424620 |      5184308 |      5184201 |      5538256 |      5305159 |     11503369 |      9308516 |     11941685 |     10122816 |     20977822 |     20155888 |     21535309 |     20756670 |     44807286 |     42896769 |     44787249 |     42848070 |
dl2.misses                                    1291 |         1291 |         1287 |         1287 |         1805 |         1805 |         1801 |         1801 |         2825 |         2825 |         2819 |         2819 |         4878 |         4878 |         4874 |         4874 |         8974 |         8974 |         8970 |         8970 |        17165 |        17165 |        17161 |        17161 |        33549 |        33549 |        33545 |        33545 |        66317 |        66424 |        66313 |       299410 |       131962 |      2326815 |       610900 |      2429769 |      4914816 |      5736750 |      5120965 |      5899604 |     12000959 |     13911476 |     12323663 |     14262842 |
dl2.replacements                                57 |           57 |            0 |            0 |           58 |           58 |            0 |            0 |           63 |           63 |            0 |            0 |           59 |           59 |            0 |            0 |           59 |           59 |            0 |            0 |           59 |           59 |            0 |            0 |           59 |           59 |            0 |            0 |           59 |          888 |            0 |       233874 |          890 |      2261279 |       479828 |      2364233 |      4783744 |      5671214 |      4989893 |      5834068 |     11869887 |     13845940 |     12192591 |     14197306 |
dl2.writebacks                                   2 |            2 |            0 |            0 |            2 |            2 |            0 |            0 |            2 |            2 |            0 |            0 |            2 |            2 |            0 |            0 |            2 |            2 |            0 |            0 |            2 |            2 |            0 |            0 |            2 |            2 |            0 |            0 |            2 |          695 |            0 |       233728 |          696 |      2235481 |       479682 |      2314174 |      4732480 |      5393776 |      4889870 |      5526321 |     11313948 |     12829876 |     11577006 |     13107287 |
dl2.invalidations                                0 |            0 |            0 |            0 |            0 |            0 |            0 |            0 |            0 |            0 |            0 |            0 |            0 |            0 |            0 |            0 |            0 |            0 |            0 |            0 |            0 |            0 |            0 |            0 |            0 |            0 |            0 |            0 |            0 |            0 |            0 |            0 |            0 |            0 |            0 |            0 |            0 |            0 |            0 |            0 |            0 |            0 |            0 |            0 |
dl2.miss_rate                               0.1079 |       0.1079 |       0.1021 |       0.1021 |       0.0590 |       0.0590 |       0.0569 |       0.0569 |       0.0366 |       0.0366 |       0.0354 |       0.0354 |       0.0267 |       0.0267 |       0.0250 |       0.0250 |       0.0209 |       0.0209 |       0.0199 |       0.0199 |       0.0168 |       0.0168 |       0.0161 |       0.0161 |       0.0146 |       0.0146 |       0.0136 |       0.0136 |       0.0126 |       0.0127 |       0.0118 |       0.0534 |       0.0113 |       0.2000 |       0.0487 |       0.1936 |       0.1898 |       0.2216 |       0.1921 |       0.2213 |       0.2113 |       0.2449 |       0.2158 |       0.2497 |
dl2.repl_rate                               0.0048 |       0.0048 |       0.0000 |       0.0000 |       0.0019 |       0.0019 |       0.0000 |       0.0000 |       0.0008 |       0.0008 |       0.0000 |       0.0000 |       0.0003 |       0.0003 |       0.0000 |       0.0000 |       0.0001 |       0.0001 |       0.0000 |       0.0000 |       0.0001 |       0.0001 |       0.0000 |       0.0000 |       0.0000 |       0.0000 |       0.0000 |       0.0000 |       0.0000 |       0.0002 |       0.0000 |       0.0417 |       0.0001 |       0.1943 |       0.0382 |       0.1883 |       0.1848 |       0.2190 |       0.1872 |       0.2189 |       0.2089 |       0.2437 |       0.2135 |       0.2486 |
dl2.wb_rate                                 0.0002 |       0.0002 |       0.0000 |       0.0000 |       0.0001 |       0.0001 |       0.0000 |       0.0000 |       0.0000 |       0.0000 |       0.0000 |       0.0000 |       0.0000 |       0.0000 |       0.0000 |       0.0000 |       0.0000 |       0.0000 |       0.0000 |       0.0000 |       0.0000 |       0.0000 |       0.0000 |       0.0000 |       0.0000 |       0.0000 |       0.0000 |       0.0000 |       0.0000 |       0.0001 |       0.0000 |       0.0417 |       0.0001 |       0.1921 |       0.0382 |       0.1844 |       0.1828 |       0.2083 |       0.1834 |       0.2073 |       0.1992 |       0.2258 |       0.2027 |       0.2295 |
dl2.inv_rate                                0.0000 |       0.0000 |       0.0000 |       0.0000 |       0.0000 |       0.0000 |       0.0000 |       0.0000 |       0.0000 |       0.0000 |       0.0000 |       0.0000 |       0.0000 |       0.0000 |       0.0000 |       0.0000 |       0.0000 |       0.0000 |       0.0000 |       0.0000 |       0.0000 |       0.0000 |       0.0000 |       0.0000 |       0.0000 |       0.0000 |       0.0000 |       0.0000 |       0.0000 |       0.0000 |       0.0000 |       0.0000 |       0.0000 |       0.0000 |       0.0000 |       0.0000 |       0.0000 |       0.0000 |       0.0000 |       0.0000 |       0.0000 |       0.0000 |       0.0000 |       0.0000 |
itlb.accesses                               897129 |       897129 |       897129 |       897129 |      2021386 |      2021386 |      2021386 |      2021386 |      4703237 |      4703237 |      4703237 |      4703237 |     10002157 |     10002157 |     10002157 |     10002157 |     21274184 |     21274184 |     21274184 |     21274184 |     47288077 |     47288077 |     47288077 |     47288077 |     97595324 |     97595324 |     97595324 |     97595324 |    209577793 |    209577793 |    209577793 |    209577793 |    444768590 |    444768590 |    444768590 |    444768590 |    952843628 |    952843628 |    952843628 |    952843628 |   1993323610 |   1993323610 |   1993323610 |   1993323610 |
itlb.hits                                   897120 |       897120 |       897120 |       897120 |      2021377 |      2021377 |      2021377 |      2021377 |      4703228 |      4703228 |      4703228 |      4703228 |     10002147 |     10002147 |     10002147 |     10002147 |     21274174 |     21274174 |     21274174 |     21274174 |     47288067 |     47288067 |     47288067 |     47288067 |     97595314 |     97595314 |     97595314 |     97595314 |    209577783 |    209577783 |    209577783 |    209577783 |    444768580 |    444768580 |    444768580 |    444768580 |    952843618 |    952843618 |    952843618 |    952843618 |   1993323600 |   1993323600 |   1993323600 |   1993323600 |
itlb.misses                                      9 |            9 |            9 |            9 |            9 |            9 |            9 |            9 |            9 |            9 |            9 |            9 |           10 |           10 |           10 |           10 |           10 |           10 |           10 |           10 |           10 |           10 |           10 |           10 |           10 |           10 |           10 |           10 |           10 |           10 |           10 |           10 |           10 |           10 |           10 |           10 |           10 |           10 |           10 |           10 |           10 |           10 |           10 |           10 |
itlb.replacements                                0 |            0 |            0 |            0 |            0 |            0 |            0 |            0 |            0 |            0 |            0 |            0 |            0 |            0 |            0 |            0 |            0 |            0 |            0 |            0 |            0 |            0 |            0 |            0 |            0 |            0 |            0 |            0 |            0 |            0 |            0 |            0 |            0 |            0 |            0 |            0 |            0 |            0 |            0 |            0 |            0 |            0 |            0 |            0 |
itlb.writebacks                                  0 |            0 |            0 |            0 |            0 |            0 |            0 |            0 |            0 |            0 |            0 |            0 |            0 |            0 |            0 |            0 |            0 |            0 |            0 |            0 |            0 |            0 |            0 |            0 |            0 |            0 |            0 |            0 |            0 |            0 |            0 |            0 |            0 |            0 |            0 |            0 |            0 |            0 |            0 |            0 |            0 |            0 |            0 |            0 |
itlb.invalidations                               0 |            0 |            0 |            0 |            0 |            0 |            0 |            0 |            0 |            0 |            0 |            0 |            0 |            0 |            0 |            0 |            0 |            0 |            0 |            0 |            0 |            0 |            0 |            0 |            0 |            0 |            0 |            0 |            0 |            0 |            0 |            0 |            0 |            0 |            0 |            0 |            0 |            0 |            0 |            0 |            0 |            0 |            0 |            0 |
itlb.miss_rate                              0.0000 |       0.0000 |       0.0000 |       0.0000 |       0.0000 |       0.0000 |       0.0000 |       0.0000 |       0.0000 |       0.0000 |       0.0000 |       0.0000 |       0.0000 |       0.0000 |       0.0000 |       0.0000 |       0.0000 |       0.0000 |       0.0000 |       0.0000 |       0.0000 |       0.0000 |       0.0000 |       0.0000 |       0.0000 |       0.0000 |       0.0000 |       0.0000 |       0.0000 |       0.0000 |       0.0000 |       0.0000 |       0.0000 |       0.0000 |       0.0000 |       0.0000 |       0.0000 |       0.0000 |       0.0000 |       0.0000 |       0.0000 |       0.0000 |       0.0000 |       0.0000 |
itlb.repl_rate                              0.0000 |       0.0000 |       0.0000 |       0.0000 |       0.0000 |       0.0000 |       0.0000 |       0.0000 |       0.0000 |       0.0000 |       0.0000 |       0.0000 |       0.0000 |       0.0000 |       0.0000 |       0.0000 |       0.0000 |       0.0000 |       0.0000 |       0.0000 |       0.0000 |       0.0000 |       0.0000 |       0.0000 |       0.0000 |       0.0000 |       0.0000 |       0.0000 |       0.0000 |       0.0000 |       0.0000 |       0.0000 |       0.0000 |       0.0000 |       0.0000 |       0.0000 |       0.0000 |       0.0000 |       0.0000 |       0.0000 |       0.0000 |       0.0000 |       0.0000 |       0.0000 |
itlb.wb_rate                                0.0000 |       0.0000 |       0.0000 |       0.0000 |       0.0000 |       0.0000 |       0.0000 |       0.0000 |       0.0000 |       0.0000 |       0.0000 |       0.0000 |       0.0000 |       0.0000 |       0.0000 |       0.0000 |       0.0000 |       0.0000 |       0.0000 |       0.0000 |       0.0000 |       0.0000 |       0.0000 |       0.0000 |       0.0000 |       0.0000 |       0.0000 |       0.0000 |       0.0000 |       0.0000 |       0.0000 |       0.0000 |       0.0000 |       0.0000 |       0.0000 |       0.0000 |       0.0000 |       0.0000 |       0.0000 |       0.0000 |       0.0000 |       0.0000 |       0.0000 |       0.0000 |
itlb.inv_rate                               0.0000 |       0.0000 |       0.0000 |       0.0000 |       0.0000 |       0.0000 |       0.0000 |       0.0000 |       0.0000 |       0.0000 |       0.0000 |       0.0000 |       0.0000 |       0.0000 |       0.0000 |       0.0000 |       0.0000 |       0.0000 |       0.0000 |       0.0000 |       0.0000 |       0.0000 |       0.0000 |       0.0000 |       0.0000 |       0.0000 |       0.0000 |       0.0000 |       0.0000 |       0.0000 |       0.0000 |       0.0000 |       0.0000 |       0.0000 |       0.0000 |       0.0000 |       0.0000 |       0.0000 |       0.0000 |       0.0000 |       0.0000 |       0.0000 |       0.0000 |       0.0000 |
dtlb.accesses                               207903 |       207903 |       207903 |       207903 |       457099 |       457099 |       457099 |       457099 |      1008255 |      1008255 |      1008255 |      1008255 |      2128633 |      2128633 |      2128633 |      2128633 |      4887299 |      4887299 |      4887299 |      4887299 |     10643489 |     10643489 |     10643489 |     10643489 |     21161120 |     21161120 |     21161120 |     21161120 |     44637018 |     44637018 |     44637018 |     44637018 |     92730158 |     92730158 |     92730158 |     92730158 |    199124880 |    199124880 |    199124880 |    199124880 |    402911050 |    402911050 |    402911050 |    402911050 |
dtlb.hits                                   207892 |       207892 |       207892 |       207892 |       457084 |       457084 |       457084 |       457084 |      1008232 |      1008232 |      1008232 |      1008232 |      2128594 |      2128594 |      2128594 |      2128594 |      4887228 |      4887228 |      4887228 |      4887228 |     10643290 |     10643290 |     10643290 |     10643290 |     21156108 |     21156108 |     21156108 |     21156108 |     44622646 |     44622646 |     44622646 |     44622646 |     92582698 |     92582698 |     92582698 |     92582698 |    199029023 |    199029023 |    199029023 |    199029023 |    402678087 |    402678087 |    402678087 |    402678087 |
dtlb.misses                                     11 |           11 |           11 |           11 |           15 |           15 |           15 |           15 |           23 |           23 |           23 |           23 |           39 |           39 |           39 |           39 |           71 |           71 |           71 |           71 |          199 |          199 |          199 |          199 |         5012 |         5012 |         5012 |         5012 |        14372 |        14372 |        14372 |        14372 |       147460 |       147460 |       147460 |       147460 |        95857 |        95857 |        95857 |        95857 |       232963 |       232963 |       232963 |       232963 |
dtlb.replacements                                0 |            0 |            0 |            0 |            0 |            0 |            0 |            0 |            0 |            0 |            0 |            0 |            0 |            0 |            0 |            0 |            0 |            0 |            0 |            0 |           71 |           71 |           71 |           71 |         4884 |         4884 |         4884 |         4884 |        14244 |        14244 |        14244 |        14244 |       147332 |       147332 |       147332 |       147332 |        95729 |        95729 |        95729 |        95729 |       232835 |       232835 |       232835 |       232835 |
dtlb.writebacks                                  0 |            0 |            0 |            0 |            0 |            0 |            0 |            0 |            0 |            0 |            0 |            0 |            0 |            0 |            0 |            0 |            0 |            0 |            0 |            0 |           69 |           69 |           69 |           69 |         4796 |         4796 |         4796 |         4796 |        13694 |        13694 |        13694 |        13694 |       126020 |       126020 |       126020 |       126020 |        89957 |        89957 |        89957 |        89957 |       217183 |       217183 |       217183 |       217183 |
dtlb.invalidations                               0 |            0 |            0 |            0 |            0 |            0 |            0 |            0 |            0 |            0 |            0 |            0 |            0 |            0 |            0 |            0 |            0 |            0 |            0 |            0 |            0 |            0 |            0 |            0 |            0 |            0 |            0 |            0 |            0 |            0 |            0 |            0 |            0 |            0 |            0 |            0 |            0 |            0 |            0 |            0 |            0 |            0 |            0 |            0 |
dtlb.miss_rate                              0.0001 |       0.0001 |       0.0001 |       0.0001 |       0.0000 |       0.0000 |       0.0000 |       0.0000 |       0.0000 |       0.0000 |       0.0000 |       0.0000 |       0.0000 |       0.0000 |       0.0000 |       0.0000 |       0.0000 |       0.0000 |       0.0000 |       0.0000 |       0.0000 |       0.0000 |       0.0000 |       0.0000 |       0.0002 |       0.0002 |       0.0002 |       0.0002 |       0.0003 |       0.0003 |       0.0003 |       0.0003 |       0.0016 |       0.0016 |       0.0016 |       0.0016 |       0.0005 |       0.0005 |       0.0005 |       0.0005 |       0.0006 |       0.0006 |       0.0006 |       0.0006 |
dtlb.repl_rate                              0.0000 |       0.0000 |       0.0000 |       0.0000 |       0.0000 |       0.0000 |       0.0000 |       0.0000 |       0.0000 |       0.0000 |       0.0000 |       0.0000 |       0.0000 |       0.0000 |       0.0000 |       0.0000 |       0.0000 |       0.0000 |       0.0000 |       0.0000 |       0.0000 |       0.0000 |       0.0000 |       0.0000 |       0.0002 |       0.0002 |       0.0002 |       0.0002 |       0.0003 |       0.0003 |       0.0003 |       0.0003 |       0.0016 |       0.0016 |       0.0016 |       0.0016 |       0.0005 |       0.0005 |       0.0005 |       0.0005 |       0.0006 |       0.0006 |       0.0006 |       0.0006 |
dtlb.wb_rate                                0.0000 |       0.0000 |       0.0000 |       0.0000 |       0.0000 |       0.0000 |       0.0000 |       0.0000 |       0.0000 |       0.0000 |       0.0000 |       0.0000 |       0.0000 |       0.0000 |       0.0000 |       0.0000 |       0.0000 |       0.0000 |       0.0000 |       0.0000 |       0.0000 |       0.0000 |       0.0000 |       0.0000 |       0.0002 |       0.0002 |       0.0002 |       0.0002 |       0.0003 |       0.0003 |       0.0003 |       0.0003 |       0.0014 |       0.0014 |       0.0014 |       0.0014 |       0.0005 |       0.0005 |       0.0005 |       0.0005 |       0.0005 |       0.0005 |       0.0005 |       0.0005 |
dtlb.inv_rate                               0.0000 |       0.0000 |       0.0000 |       0.0000 |       0.0000 |       0.0000 |       0.0000 |       0.0000 |       0.0000 |       0.0000 |       0.0000 |       0.0000 |       0.0000 |       0.0000 |       0.0000 |       0.0000 |       0.0000 |       0.0000 |       0.0000 |       0.0000 |       0.0000 |       0.0000 |       0.0000 |       0.0000 |       0.0000 |       0.0000 |       0.0000 |       0.0000 |       0.0000 |       0.0000 |       0.0000 |       0.0000 |       0.0000 |       0.0000 |       0.0000 |       0.0000 |       0.0000 |       0.0000 |       0.0000 |       0.0000 |       0.0000 |       0.0000 |       0.0000 |       0.0000 |
ld_text_base                            0x00400000 |   0x00400000 |   0x00400000 |   0x00400000 |   0x00400000 |   0x00400000 |   0x00400000 |   0x00400000 |   0x00400000 |   0x00400000 |   0x00400000 |   0x00400000 |   0x00400000 |   0x00400000 |   0x00400000 |   0x00400000 |   0x00400000 |   0x00400000 |   0x00400000 |   0x00400000 |   0x00400000 |   0x00400000 |   0x00400000 |   0x00400000 |   0x00400000 |   0x00400000 |   0x00400000 |   0x00400000 |   0x00400000 |   0x00400000 |   0x00400000 |   0x00400000 |   0x00400000 |   0x00400000 |   0x00400000 |   0x00400000 |   0x00400000 |   0x00400000 |   0x00400000 |   0x00400000 |   0x00400000 |   0x00400000 |   0x00400000 |   0x00400000 |
ld_text_size                                 72720 |        72720 |        72720 |        72720 |        72752 |        72752 |        72752 |        72752 |        72768 |        72768 |        72768 |        72768 |        72784 |        72784 |        72784 |        72784 |        72784 |        72784 |        72784 |        72784 |        72784 |        72784 |        72784 |        72784 |        72784 |        72784 |        72784 |        72784 |        72784 |        72784 |        72784 |        72784 |        72784 |        72784 |        72784 |        72784 |        72784 |        72784 |        72784 |        72784 |        72784 |        72784 |        72784 |        72784 |
ld_data_base                            0x10000000 |   0x10000000 |   0x10000000 |   0x10000000 |   0x10000000 |   0x10000000 |   0x10000000 |   0x10000000 |   0x10000000 |   0x10000000 |   0x10000000 |   0x10000000 |   0x10000000 |   0x10000000 |   0x10000000 |   0x10000000 |   0x10000000 |   0x10000000 |   0x10000000 |   0x10000000 |   0x10000000 |   0x10000000 |   0x10000000 |   0x10000000 |   0x10000000 |   0x10000000 |   0x10000000 |   0x10000000 |   0x10000000 |   0x10000000 |   0x10000000 |   0x10000000 |   0x10000000 |   0x10000000 |   0x10000000 |   0x10000000 |   0x10000000 |   0x10000000 |   0x10000000 |   0x10000000 |   0x10000000 |   0x10000000 |   0x10000000 |   0x10000000 |
ld_data_size                                  8192 |         8192 |         8192 |         8192 |         8192 |         8192 |         8192 |         8192 |         8192 |         8192 |         8192 |         8192 |         8192 |         8192 |         8192 |         8192 |         8192 |         8192 |         8192 |         8192 |         8192 |         8192 |         8192 |         8192 |         8192 |         8192 |         8192 |         8192 |         8192 |         8192 |         8192 |         8192 |         8192 |         8192 |         8192 |         8192 |         8192 |         8192 |         8192 |         8192 |         8192 |         8192 |         8192 |         8192 |
ld_stack_base                           0x7fffc000 |   0x7fffc000 |   0x7fffc000 |   0x7fffc000 |   0x7fffc000 |   0x7fffc000 |   0x7fffc000 |   0x7fffc000 |   0x7fffc000 |   0x7fffc000 |   0x7fffc000 |   0x7fffc000 |   0x7fffc000 |   0x7fffc000 |   0x7fffc000 |   0x7fffc000 |   0x7fffc000 |   0x7fffc000 |   0x7fffc000 |   0x7fffc000 |   0x7fffc000 |   0x7fffc000 |   0x7fffc000 |   0x7fffc000 |   0x7fffc000 |   0x7fffc000 |   0x7fffc000 |   0x7fffc000 |   0x7fffc000 |   0x7fffc000 |   0x7fffc000 |   0x7fffc000 |   0x7fffc000 |   0x7fffc000 |   0x7fffc000 |   0x7fffc000 |   0x7fffc000 |   0x7fffc000 |   0x7fffc000 |   0x7fffc000 |   0x7fffc000 |   0x7fffc000 |   0x7fffc000 |   0x7fffc000 |
ld_stack_size                                16384 |        16384 |        16384 |        16384 |        16384 |        16384 |        16384 |        16384 |        16384 |        16384 |        16384 |        16384 |        16384 |        16384 |        16384 |        16384 |        16384 |        16384 |        16384 |        16384 |        16384 |        16384 |        16384 |        16384 |        16384 |        16384 |        16384 |        16384 |        16384 |        16384 |        16384 |        16384 |        16384 |        16384 |        16384 |        16384 |        16384 |        16384 |        16384 |        16384 |        16384 |        16384 |        16384 |        16384 |
ld_prog_entry                           0x00400140 |   0x00400140 |   0x00400140 |   0x00400140 |   0x00400140 |   0x00400140 |   0x00400140 |   0x00400140 |   0x00400140 |   0x00400140 |   0x00400140 |   0x00400140 |   0x00400140 |   0x00400140 |   0x00400140 |   0x00400140 |   0x00400140 |   0x00400140 |   0x00400140 |   0x00400140 |   0x00400140 |   0x00400140 |   0x00400140 |   0x00400140 |   0x00400140 |   0x00400140 |   0x00400140 |   0x00400140 |   0x00400140 |   0x00400140 |   0x00400140 |   0x00400140 |   0x00400140 |   0x00400140 |   0x00400140 |   0x00400140 |   0x00400140 |   0x00400140 |   0x00400140 |   0x00400140 |   0x00400140 |   0x00400140 |   0x00400140 |   0x00400140 |
ld_environ_base                         0x7fff8000 |   0x7fff8000 |   0x7fff8000 |   0x7fff8000 |   0x7fff8000 |   0x7fff8000 |   0x7fff8000 |   0x7fff8000 |   0x7fff8000 |   0x7fff8000 |   0x7fff8000 |   0x7fff8000 |   0x7fff8000 |   0x7fff8000 |   0x7fff8000 |   0x7fff8000 |   0x7fff8000 |   0x7fff8000 |   0x7fff8000 |   0x7fff8000 |   0x7fff8000 |   0x7fff8000 |   0x7fff8000 |   0x7fff8000 |   0x7fff8000 |   0x7fff8000 |   0x7fff8000 |   0x7fff8000 |   0x7fff8000 |   0x7fff8000 |   0x7fff8000 |   0x7fff8000 |   0x7fff8000 |   0x7fff8000 |   0x7fff8000 |   0x7fff8000 |   0x7fff8000 |   0x7fff8000 |   0x7fff8000 |   0x7fff8000 |   0x7fff8000 |   0x7fff8000 |   0x7fff8000 |   0x7fff8000 |
ld_target_big_endian                             0 |            0 |            0 |            0 |            0 |            0 |            0 |            0 |            0 |            0 |            0 |            0 |            0 |            0 |            0 |            0 |            0 |            0 |            0 |            0 |            0 |            0 |            0 |            0 |            0 |            0 |            0 |            0 |            0 |            0 |            0 |            0 |            0 |            0 |            0 |            0 |            0 |            0 |            0 |            0 |            0 |            0 |            0 |            0 |
mem.page_count                                  29 |           29 |           29 |           29 |           33 |           33 |           33 |           33 |           41 |           41 |           41 |           41 |           57 |           57 |           57 |           57 |           89 |           89 |           89 |           89 |          153 |          153 |          153 |          153 |          281 |          281 |          281 |          281 |          537 |          537 |          537 |          537 |         1049 |         1049 |         1049 |         1049 |         2073 |         2073 |         2073 |         2073 |         4121 |         4121 |         4121 |         4121 |
mem.page_mem                                  116k |         116k |         116k |         116k |         132k |         132k |         132k |         132k |         164k |         164k |         164k |         164k |         228k |         228k |         228k |         228k |         356k |         356k |         356k |         356k |         612k |         612k |         612k |         612k |        1124k |        1124k |        1124k |        1124k |        2148k |        2148k |        2148k |        2148k |        4196k |        4196k |        4196k |        4196k |        8292k |        8292k |        8292k |        8292k |       16484k |       16484k |       16484k |       16484k |
mem.ptab_misses                                 29 |           29 |           29 |           29 |           33 |           33 |           33 |           33 |           41 |           41 |           41 |           41 |           57 |           57 |           57 |           57 |           89 |           89 |           89 |           89 |          153 |          153 |          153 |          153 |          281 |          281 |          281 |          281 |          537 |          537 |          537 |          537 |         1049 |         1049 |         1049 |         1049 |         2073 |         2073 |         2073 |         2073 |         4121 |         4121 |         4121 |         4121 |
mem.ptab_accesses                          4455226 |      4455226 |      4455226 |      4455226 |      9450838 |      9450838 |      9450838 |      9450838 |     21280650 |     21280650 |     21280650 |     21280650 |     44717182 |     44717182 |     44717182 |     44717182 |     95322622 |     95322622 |     95322622 |     95322622 |    210890574 |    210890574 |    210890574 |    210890574 |    433154824 |    433154824 |    433154824 |    433154824 |    928036496 |    928036496 |    928036496 |    928036496 |   1964985964 |   1964985964 |   1964985964 |   1964985964 |   4210075560 |   4210075560 |   4210075560 |   4210075560 |   8779567828 |   8779567828 |   8779567828 |   8779567828 |
mem.ptab_miss_rate                          0.0000 |       0.0000 |       0.0000 |       0.0000 |       0.0000 |       0.0000 |       0.0000 |       0.0000 |       0.0000 |       0.0000 |       0.0000 |       0.0000 |       0.0000 |       0.0000 |       0.0000 |       0.0000 |       0.0000 |       0.0000 |       0.0000 |       0.0000 |       0.0000 |       0.0000 |       0.0000 |       0.0000 |       0.0000 |       0.0000 |       0.0000 |       0.0000 |       0.0000 |       0.0000 |       0.0000 |       0.0000 |       0.0000 |       0.0000 |       0.0000 |       0.0000 |       0.0000 |       0.0000 |       0.0000 |       0.0000 |       0.0000 |       0.0000 |       0.0000 |       0.0000 |
-------------------------------------------------------------------------------------------------
sim-bpred                                     4096 |         4096 |         4096 |         4096 |         4096 |         4096 |         4096 |         8192 |         8192 |         8192 |         8192 |         8192 |         8192 |         8192 |        16384 |        16384 |        16384 |        16384 |        16384 |        16384 |        16384 |        32768 |        32768 |        32768 |        32768 |        32768 |        32768 |        32768 |        65536 |        65536 |        65536 |        65536 |        65536 |        65536 |        65536 |       131072 |       131072 |       131072 |       131072 |       131072 |       131072 |       131072 |       262144 |       262144 |       262144 |       262144 |       262144 |       262144 |       262144 |       524288 |       524288 |       524288 |       524288 |       524288 |       524288 |       524288 |      1048576 |      1048576 |      1048576 |      1048576 |      1048576 |      1048576 |      1048576 |      2097152 |      2097152 |      2097152 |      2097152 |      2097152 |      2097152 |      2097152 |      4194304 |      4194304 |      4194304 |      4194304 |      4194304 |      4194304 |      4194304 |
-bpred bimod -bpred:bimod 512
-bpred bimod -bpred:bimod 1024
-bpred bimod -bpred:bimod 2048
-bpred 2lev -bpred:2lev 1 512 10 1
-bpred 2lev -bpred:2lev 1 1024 10 1
-bpred 2lev -bpred:2lev 1 2048 10 1
-bpred 2lev -bpred:2lev 1 4096 10 1
-------------------------------------------------------------------------------------------------
sim_num_insn                                897129 |       897129 |       897129 |       897129 |       897129 |       897129 |       897129 |      2021386 |      2021386 |      2021386 |      2021386 |      2021386 |      2021386 |      2021386 |      4703237 |      4703237 |      4703237 |      4703237 |      4703237 |      4703237 |      4703237 |     10002157 |     10002157 |     10002157 |     10002157 |     10002157 |     10002157 |     10002157 |     21274184 |     21274184 |     21274184 |     21274184 |     21274184 |     21274184 |     21274184 |     47288077 |     47288077 |     47288077 |     47288077 |     47288077 |     47288077 |     47288077 |     97595324 |     97595324 |     97595324 |     97595324 |     97595324 |     97595324 |     97595324 |    209577793 |    209577793 |    209577793 |    209577793 |    209577793 |    209577793 |    209577793 |    444768590 |    444768590 |    444768590 |    444768590 |    444768590 |    444768590 |    444768590 |    952843628 |    952843628 |    952843628 |    952843628 |    952843628 |    952843628 |    952843628 |   1993323610 |   1993323610 |   1993323610 |   1993323610 |   1993323610 |   1993323610 |   1993323610 |
sim_num_refs                                191437 |       191437 |       191437 |       191437 |       191437 |       191437 |       191437 |       424249 |       424249 |       424249 |       424249 |       424249 |       424249 |       424249 |       942637 |       942637 |       942637 |       942637 |       942637 |       942637 |       942637 |      1997479 |      1997479 |      1997479 |      1997479 |      1997479 |      1997479 |      1997479 |      4625073 |      4625073 |      4625073 |      4625073 |      4625073 |      4625073 |      4625073 |     10119119 |     10119119 |     10119119 |     10119119 |     10119119 |     10119119 |     10119119 |     20112462 |     20112462 |     20112462 |     20112462 |     20112462 |     20112462 |     20112462 |     42539784 |     42539784 |     42539784 |     42539784 |     42539784 |     42539784 |     42539784 |     88535772 |     88535772 |     88535772 |     88535772 |     88535772 |     88535772 |     88535772 |    190736190 |    190736190 |    190736190 |    190736190 |    190736190 |    190736190 |    190736190 |    386133752 |    386133752 |    386133752 |    386133752 |    386133752 |    386133752 |    386133752 |
sim_elapsed_time                                 1 |            1 |            1 |            1 |            1 |            1 |            1 |            1 |            1 |            1 |            1 |            1 |            1 |            1 |            1 |            1 |            1 |            1 |            1 |            1 |            1 |            1 |            1 |            2 |            1 |            1 |            1 |            1 |            3 |            2 |            3 |            2 |            2 |            3 |            2 |            6 |            5 |            6 |            5 |            6 |            6 |            5 |           12 |           11 |           12 |           11 |           12 |           12 |           11 |           24 |           25 |           24 |           25 |           25 |           25 |           25 |           52 |           53 |           52 |           53 |           53 |           53 |           54 |          112 |          112 |          111 |          115 |          114 |          114 |          114 |          233 |          234 |          232 |          239 |          238 |          238 |          238 |
sim_inst_rate                          897129.0000 |  897129.0000 |  897129.0000 |  897129.0000 |  897129.0000 |  897129.0000 |  897129.0000 | 2021386.0000 | 2021386.0000 | 2021386.0000 | 2021386.0000 | 2021386.0000 | 2021386.0000 | 2021386.0000 | 4703237.0000 | 4703237.0000 | 4703237.0000 | 4703237.0000 | 4703237.0000 | 4703237.0000 | 4703237.0000 |10002157.0000 |10002157.0000 | 5001078.5000 |10002157.0000 |10002157.0000 |10002157.0000 |10002157.0000 | 7091394.6667 |10637092.0000 | 7091394.6667 |10637092.0000 |10637092.0000 | 7091394.6667 |10637092.0000 | 7881346.1667 | 9457615.4000 | 7881346.1667 | 9457615.4000 | 7881346.1667 | 7881346.1667 | 9457615.4000 | 8132943.6667 | 8872302.1818 | 8132943.6667 | 8872302.1818 | 8132943.6667 | 8132943.6667 | 8872302.1818 | 8732408.0417 | 8383111.7200 | 8732408.0417 | 8383111.7200 | 8383111.7200 | 8383111.7200 | 8383111.7200 | 8553242.1154 | 8391860.1887 | 8553242.1154 | 8391860.1887 | 8391860.1887 | 8391860.1887 | 8236455.3704 | 8507532.3929 | 8507532.3929 | 8584176.8288 | 8285596.7652 | 8358277.4386 | 8358277.4386 | 8358277.4386 | 8555036.9528 | 8518476.9658 | 8591912.1121 | 8340266.1506 | 8375309.2857 | 8375309.2857 | 8375309.2857 |
sim_num_branches                            144939 |       144939 |       144939 |       144939 |       144939 |       144939 |       144939 |       327842 |       327842 |       327842 |       327842 |       327842 |       327842 |       327842 |       768011 |       768011 |       768011 |       768011 |       768011 |       768011 |       768011 |      1635681 |      1635681 |      1635681 |      1635681 |      1635681 |      1635681 |      1635681 |      3445027 |      3445027 |      3445027 |      3445027 |      3445027 |      3445027 |      3445027 |      7678841 |      7678841 |      7678841 |      7678841 |      7678841 |      7678841 |      7678841 |     15930036 |     15930036 |     15930036 |     15930036 |     15930036 |     15930036 |     15930036 |     34289368 |     34289368 |     34289368 |     34289368 |     34289368 |     34289368 |     34289368 |     72969172 |     72969172 |     72969172 |     72969172 |     72969172 |     72969172 |     72969172 |    156301761 |    156301761 |    156301761 |    156301761 |    156301761 |    156301761 |    156301761 |    328304359 |    328304359 |    328304359 |    328304359 |    328304359 |    328304359 |    328304359 |
sim_IPB                                     6.1897 |       6.1897 |       6.1897 |       6.1897 |       6.1897 |       6.1897 |       6.1897 |       6.1657 |       6.1657 |       6.1657 |       6.1657 |       6.1657 |       6.1657 |       6.1657 |       6.1239 |       6.1239 |       6.1239 |       6.1239 |       6.1239 |       6.1239 |       6.1239 |       6.1150 |       6.1150 |       6.1150 |       6.1150 |       6.1150 |       6.1150 |       6.1150 |       6.1753 |       6.1753 |       6.1753 |       6.1753 |       6.1753 |       6.1753 |       6.1753 |       6.1582 |       6.1582 |       6.1582 |       6.1582 |       6.1582 |       6.1582 |       6.1582 |       6.1265 |       6.1265 |       6.1265 |       6.1265 |       6.1265 |       6.1265 |       6.1265 |       6.1120 |       6.1120 |       6.1120 |       6.1120 |       6.1120 |       6.1120 |       6.1120 |       6.0953 |       6.0953 |       6.0953 |       6.0953 |       6.0953 |       6.0953 |       6.0953 |       6.0962 |       6.0962 |       6.0962 |       6.0962 |       6.0962 |       6.0962 |       6.0962 |       6.0716 |       6.0716 |       6.0716 |       6.0716 |       6.0716 |       6.0716 |       6.0716 |
bpred_bimod.lookups                         144939 |       144939 |       144939 |xxxxxxxxxxxxx |xxxxxxxxxxxxx |xxxxxxxxxxxxx |xxxxxxxxxxxxx |       327842 |       327842 |       327842 |xxxxxxxxxxxxx |xxxxxxxxxxxxx |xxxxxxxxxxxxx |xxxxxxxxxxxxx |       768011 |       768011 |       768011 |xxxxxxxxxxxxx |xxxxxxxxxxxxx |xxxxxxxxxxxxx |xxxxxxxxxxxxx |      1635681 |      1635681 |      1635681 |xxxxxxxxxxxxx |xxxxxxxxxxxxx |xxxxxxxxxxxxx |xxxxxxxxxxxxx |      3445027 |      3445027 |      3445027 |xxxxxxxxxxxxx |xxxxxxxxxxxxx |xxxxxxxxxxxxx |xxxxxxxxxxxxx |      7678841 |      7678841 |      7678841 |xxxxxxxxxxxxx |xxxxxxxxxxxxx |xxxxxxxxxxxxx |xxxxxxxxxxxxx |     15930036 |     15930036 |     15930036 |xxxxxxxxxxxxx |xxxxxxxxxxxxx |xxxxxxxxxxxxx |xxxxxxxxxxxxx |     34289368 |     34289368 |     34289368 |xxxxxxxxxxxxx |xxxxxxxxxxxxx |xxxxxxxxxxxxx |xxxxxxxxxxxxx |     72969172 |     72969172 |     72969172 |xxxxxxxxxxxxx |xxxxxxxxxxxxx |xxxxxxxxxxxxx |xxxxxxxxxxxxx |    156301761 |    156301761 |    156301761 |xxxxxxxxxxxxx |xxxxxxxxxxxxx |xxxxxxxxxxxxx |xxxxxxxxxxxxx |    328304359 |    328304359 |    328304359 |
bpred_bimod.updates                         144939 |       144939 |       144939 |xxxxxxxxxxxxx |xxxxxxxxxxxxx |xxxxxxxxxxxxx |xxxxxxxxxxxxx |       327842 |       327842 |       327842 |xxxxxxxxxxxxx |xxxxxxxxxxxxx |xxxxxxxxxxxxx |xxxxxxxxxxxxx |       768011 |       768011 |       768011 |xxxxxxxxxxxxx |xxxxxxxxxxxxx |xxxxxxxxxxxxx |xxxxxxxxxxxxx |      1635681 |      1635681 |      1635681 |xxxxxxxxxxxxx |xxxxxxxxxxxxx |xxxxxxxxxxxxx |xxxxxxxxxxxxx |      3445027 |      3445027 |      3445027 |xxxxxxxxxxxxx |xxxxxxxxxxxxx |xxxxxxxxxxxxx |xxxxxxxxxxxxx |      7678841 |      7678841 |      7678841 |xxxxxxxxxxxxx |xxxxxxxxxxxxx |xxxxxxxxxxxxx |xxxxxxxxxxxxx |     15930036 |     15930036 |     15930036 |xxxxxxxxxxxxx |xxxxxxxxxxxxx |xxxxxxxxxxxxx |xxxxxxxxxxxxx |     34289368 |     34289368 |     34289368 |xxxxxxxxxxxxx |xxxxxxxxxxxxx |xxxxxxxxxxxxx |xxxxxxxxxxxxx |     72969172 |     72969172 |     72969172 |xxxxxxxxxxxxx |xxxxxxxxxxxxx |xxxxxxxxxxxxx |xxxxxxxxxxxxx |    156301761 |    156301761 |    156301761 |xxxxxxxxxxxxx |xxxxxxxxxxxxx |xxxxxxxxxxxxx |xxxxxxxxxxxxx |    328304359 |    328304359 |    328304359 |
bpred_bimod.addr_hits                       111007 |       111008 |       111011 |xxxxxxxxxxxxx |xxxxxxxxxxxxx |xxxxxxxxxxxxx |xxxxxxxxxxxxx |       252456 |       252461 |       252461 |xxxxxxxxxxxxx |xxxxxxxxxxxxx |xxxxxxxxxxxxx |xxxxxxxxxxxxx |       593116 |       593120 |       593120 |xxxxxxxxxxxxx |xxxxxxxxxxxxx |xxxxxxxxxxxxx |xxxxxxxxxxxxx |      1258163 |      1258166 |      1258167 |xxxxxxxxxxxxx |xxxxxxxxxxxxx |xxxxxxxxxxxxx |xxxxxxxxxxxxx |      2698723 |      2698726 |      2698727 |xxxxxxxxxxxxx |xxxxxxxxxxxxx |xxxxxxxxxxxxx |xxxxxxxxxxxxx |      6042193 |      6042196 |      6042197 |xxxxxxxxxxxxx |xxxxxxxxxxxxx |xxxxxxxxxxxxx |xxxxxxxxxxxxx |     12380036 |     12380039 |     12380040 |xxxxxxxxxxxxx |xxxxxxxxxxxxx |xxxxxxxxxxxxx |xxxxxxxxxxxxx |     26563074 |     26563077 |     26563078 |xxxxxxxxxxxxx |xxxxxxxxxxxxx |xxxxxxxxxxxxx |xxxxxxxxxxxxx |     56287803 |     56287805 |     56287806 |xxxxxxxxxxxxx |xxxxxxxxxxxxx |xxxxxxxxxxxxx |xxxxxxxxxxxxx |    120818641 |    120818643 |    120818644 |xxxxxxxxxxxxx |xxxxxxxxxxxxx |xxxxxxxxxxxxx |xxxxxxxxxxxxx |    252590667 |    252590670 |    252590671 |
bpred_bimod.dir_hits                        111112 |       111111 |       111111 |xxxxxxxxxxxxx |xxxxxxxxxxxxx |xxxxxxxxxxxxx |xxxxxxxxxxxxx |       252557 |       252561 |       252560 |xxxxxxxxxxxxx |xxxxxxxxxxxxx |xxxxxxxxxxxxx |xxxxxxxxxxxxx |       593218 |       593221 |       593219 |xxxxxxxxxxxxx |xxxxxxxxxxxxx |xxxxxxxxxxxxx |xxxxxxxxxxxxx |      1258268 |      1258270 |      1258269 |xxxxxxxxxxxxx |xxxxxxxxxxxxx |xxxxxxxxxxxxx |xxxxxxxxxxxxx |      2698823 |      2698825 |      2698824 |xxxxxxxxxxxxx |xxxxxxxxxxxxx |xxxxxxxxxxxxx |xxxxxxxxxxxxx |      6042299 |      6042301 |      6042300 |xxxxxxxxxxxxx |xxxxxxxxxxxxx |xxxxxxxxxxxxx |xxxxxxxxxxxxx |     12380140 |     12380142 |     12380141 |xxxxxxxxxxxxx |xxxxxxxxxxxxx |xxxxxxxxxxxxx |xxxxxxxxxxxxx |     26563177 |     26563180 |     26563179 |xxxxxxxxxxxxx |xxxxxxxxxxxxx |xxxxxxxxxxxxx |xxxxxxxxxxxxx |     56287904 |     56287905 |     56287904 |xxxxxxxxxxxxx |xxxxxxxxxxxxx |xxxxxxxxxxxxx |xxxxxxxxxxxxx |    120818744 |    120818745 |    120818744 |xxxxxxxxxxxxx |xxxxxxxxxxxxx |xxxxxxxxxxxxx |xxxxxxxxxxxxx |    252590767 |    252590770 |    252590769 |
bpred_bimod.misses                           33827 |        33828 |        33828 |xxxxxxxxxxxxx |xxxxxxxxxxxxx |xxxxxxxxxxxxx |xxxxxxxxxxxxx |        75285 |        75281 |        75282 |xxxxxxxxxxxxx |xxxxxxxxxxxxx |xxxxxxxxxxxxx |xxxxxxxxxxxxx |       174793 |       174790 |       174792 |xxxxxxxxxxxxx |xxxxxxxxxxxxx |xxxxxxxxxxxxx |xxxxxxxxxxxxx |       377413 |       377411 |       377412 |xxxxxxxxxxxxx |xxxxxxxxxxxxx |xxxxxxxxxxxxx |xxxxxxxxxxxxx |       746204 |       746202 |       746203 |xxxxxxxxxxxxx |xxxxxxxxxxxxx |xxxxxxxxxxxxx |xxxxxxxxxxxxx |      1636542 |      1636540 |      1636541 |xxxxxxxxxxxxx |xxxxxxxxxxxxx |xxxxxxxxxxxxx |xxxxxxxxxxxxx |      3549896 |      3549894 |      3549895 |xxxxxxxxxxxxx |xxxxxxxxxxxxx |xxxxxxxxxxxxx |xxxxxxxxxxxxx |      7726191 |      7726188 |      7726189 |xxxxxxxxxxxxx |xxxxxxxxxxxxx |xxxxxxxxxxxxx |xxxxxxxxxxxxx |     16681268 |     16681267 |     16681268 |xxxxxxxxxxxxx |xxxxxxxxxxxxx |xxxxxxxxxxxxx |xxxxxxxxxxxxx |     35483017 |     35483016 |     35483017 |xxxxxxxxxxxxx |xxxxxxxxxxxxx |xxxxxxxxxxxxx |xxxxxxxxxxxxx |     75713592 |     75713589 |     75713590 |
bpred_bimod.jr_hits                             57 |           57 |           57 |xxxxxxxxxxxxx |xxxxxxxxxxxxx |xxxxxxxxxxxxx |xxxxxxxxxxxxx |           57 |           57 |           57 |xxxxxxxxxxxxx |xxxxxxxxxxxxx |xxxxxxxxxxxxx |xxxxxxxxxxxxx |           57 |           57 |           57 |xxxxxxxxxxxxx |xxxxxxxxxxxxx |xxxxxxxxxxxxx |xxxxxxxxxxxxx |           57 |           57 |           57 |xxxxxxxxxxxxx |xxxxxxxxxxxxx |xxxxxxxxxxxxx |xxxxxxxxxxxxx |           57 |           57 |           57 |xxxxxxxxxxxxx |xxxxxxxxxxxxx |xxxxxxxxxxxxx |xxxxxxxxxxxxx |           57 |           57 |           57 |xxxxxxxxxxxxx |xxxxxxxxxxxxx |xxxxxxxxxxxxx |xxxxxxxxxxxxx |           57 |           57 |           57 |xxxxxxxxxxxxx |xxxxxxxxxxxxx |xxxxxxxxxxxxx |xxxxxxxxxxxxx |           57 |           57 |           57 |xxxxxxxxxxxxx |xxxxxxxxxxxxx |xxxxxxxxxxxxx |xxxxxxxxxxxxx |           57 |           57 |           57 |xxxxxxxxxxxxx |xxxxxxxxxxxxx |xxxxxxxxxxxxx |xxxxxxxxxxxxx |           57 |           57 |           57 |xxxxxxxxxxxxx |xxxxxxxxxxxxx |xxxxxxxxxxxxx |xxxxxxxxxxxxx |           57 |           57 |           57 |
bpred_bimod.jr_seen                             58 |           58 |           58 |xxxxxxxxxxxxx |xxxxxxxxxxxxx |xxxxxxxxxxxxx |xxxxxxxxxxxxx |           58 |           58 |           58 |xxxxxxxxxxxxx |xxxxxxxxxxxxx |xxxxxxxxxxxxx |xxxxxxxxxxxxx |           58 |           58 |           58 |xxxxxxxxxxxxx |xxxxxxxxxxxxx |xxxxxxxxxxxxx |xxxxxxxxxxxxx |           58 |           58 |           58 |xxxxxxxxxxxxx |xxxxxxxxxxxxx |xxxxxxxxxxxxx |xxxxxxxxxxxxx |           58 |           58 |           58 |xxxxxxxxxxxxx |xxxxxxxxxxxxx |xxxxxxxxxxxxx |xxxxxxxxxxxxx |           58 |           58 |           58 |xxxxxxxxxxxxx |xxxxxxxxxxxxx |xxxxxxxxxxxxx |xxxxxxxxxxxxx |           58 |           58 |           58 |xxxxxxxxxxxxx |xxxxxxxxxxxxx |xxxxxxxxxxxxx |xxxxxxxxxxxxx |           58 |           58 |           58 |xxxxxxxxxxxxx |xxxxxxxxxxxxx |xxxxxxxxxxxxx |xxxxxxxxxxxxx |           58 |           58 |           58 |xxxxxxxxxxxxx |xxxxxxxxxxxxx |xxxxxxxxxxxxx |xxxxxxxxxxxxx |           58 |           58 |           58 |xxxxxxxxxxxxx |xxxxxxxxxxxxx |xxxxxxxxxxxxx |xxxxxxxxxxxxx |           58 |           58 |           58 |
bpred_bimod.jr_non_ras_hits.PP                   0 |            0 |            0 |xxxxxxxxxxxxx |xxxxxxxxxxxxx |xxxxxxxxxxxxx |xxxxxxxxxxxxx |            0 |            0 |            0 |xxxxxxxxxxxxx |xxxxxxxxxxxxx |xxxxxxxxxxxxx |xxxxxxxxxxxxx |            0 |            0 |            0 |xxxxxxxxxxxxx |xxxxxxxxxxxxx |xxxxxxxxxxxxx |xxxxxxxxxxxxx |            0 |            0 |            0 |xxxxxxxxxxxxx |xxxxxxxxxxxxx |xxxxxxxxxxxxx |xxxxxxxxxxxxx |            0 |            0 |            0 |xxxxxxxxxxxxx |xxxxxxxxxxxxx |xxxxxxxxxxxxx |xxxxxxxxxxxxx |            0 |            0 |            0 |xxxxxxxxxxxxx |xxxxxxxxxxxxx |xxxxxxxxxxxxx |xxxxxxxxxxxxx |            0 |            0 |            0 |xxxxxxxxxxxxx |xxxxxxxxxxxxx |xxxxxxxxxxxxx |xxxxxxxxxxxxx |            0 |            0 |            0 |xxxxxxxxxxxxx |xxxxxxxxxxxxx |xxxxxxxxxxxxx |xxxxxxxxxxxxx |            0 |            0 |            0 |xxxxxxxxxxxxx |xxxxxxxxxxxxx |xxxxxxxxxxxxx |xxxxxxxxxxxxx |            0 |            0 |            0 |xxxxxxxxxxxxx |xxxxxxxxxxxxx |xxxxxxxxxxxxx |xxxxxxxxxxxxx |            0 |            0 |            0 |
bpred_bimod.jr_non_ras_seen.PP                   0 |            0 |            0 |xxxxxxxxxxxxx |xxxxxxxxxxxxx |xxxxxxxxxxxxx |xxxxxxxxxxxxx |            0 |            0 |            0 |xxxxxxxxxxxxx |xxxxxxxxxxxxx |xxxxxxxxxxxxx |xxxxxxxxxxxxx |            0 |            0 |            0 |xxxxxxxxxxxxx |xxxxxxxxxxxxx |xxxxxxxxxxxxx |xxxxxxxxxxxxx |            0 |            0 |            0 |xxxxxxxxxxxxx |xxxxxxxxxxxxx |xxxxxxxxxxxxx |xxxxxxxxxxxxx |            0 |            0 |            0 |xxxxxxxxxxxxx |xxxxxxxxxxxxx |xxxxxxxxxxxxx |xxxxxxxxxxxxx |            0 |            0 |            0 |xxxxxxxxxxxxx |xxxxxxxxxxxxx |xxxxxxxxxxxxx |xxxxxxxxxxxxx |            0 |            0 |            0 |xxxxxxxxxxxxx |xxxxxxxxxxxxx |xxxxxxxxxxxxx |xxxxxxxxxxxxx |            0 |            0 |            0 |xxxxxxxxxxxxx |xxxxxxxxxxxxx |xxxxxxxxxxxxx |xxxxxxxxxxxxx |            0 |            0 |            0 |xxxxxxxxxxxxx |xxxxxxxxxxxxx |xxxxxxxxxxxxx |xxxxxxxxxxxxx |            0 |            0 |            0 |xxxxxxxxxxxxx |xxxxxxxxxxxxx |xxxxxxxxxxxxx |xxxxxxxxxxxxx |            0 |            0 |            0 |
bpred_bimod.bpred_addr_rate                 0.7659 |       0.7659 |       0.7659 |xxxxxxxxxxxxx |xxxxxxxxxxxxx |xxxxxxxxxxxxx |xxxxxxxxxxxxx |       0.7701 |       0.7701 |       0.7701 |xxxxxxxxxxxxx |xxxxxxxxxxxxx |xxxxxxxxxxxxx |xxxxxxxxxxxxx |       0.7723 |       0.7723 |       0.7723 |xxxxxxxxxxxxx |xxxxxxxxxxxxx |xxxxxxxxxxxxx |xxxxxxxxxxxxx |       0.7692 |       0.7692 |       0.7692 |xxxxxxxxxxxxx |xxxxxxxxxxxxx |xxxxxxxxxxxxx |xxxxxxxxxxxxx |       0.7834 |       0.7834 |       0.7834 |xxxxxxxxxxxxx |xxxxxxxxxxxxx |xxxxxxxxxxxxx |xxxxxxxxxxxxx |       0.7869 |       0.7869 |       0.7869 |xxxxxxxxxxxxx |xxxxxxxxxxxxx |xxxxxxxxxxxxx |xxxxxxxxxxxxx |       0.7772 |       0.7772 |       0.7772 |xxxxxxxxxxxxx |xxxxxxxxxxxxx |xxxxxxxxxxxxx |xxxxxxxxxxxxx |       0.7747 |       0.7747 |       0.7747 |xxxxxxxxxxxxx |xxxxxxxxxxxxx |xxxxxxxxxxxxx |xxxxxxxxxxxxx |       0.7714 |       0.7714 |       0.7714 |xxxxxxxxxxxxx |xxxxxxxxxxxxx |xxxxxxxxxxxxx |xxxxxxxxxxxxx |       0.7730 |       0.7730 |       0.7730 |xxxxxxxxxxxxx |xxxxxxxxxxxxx |xxxxxxxxxxxxx |xxxxxxxxxxxxx |       0.7694 |       0.7694 |       0.7694 |
bpred_bimod.bpred_dir_rate                  0.7666 |       0.7666 |       0.7666 |xxxxxxxxxxxxx |xxxxxxxxxxxxx |xxxxxxxxxxxxx |xxxxxxxxxxxxx |       0.7704 |       0.7704 |       0.7704 |xxxxxxxxxxxxx |xxxxxxxxxxxxx |xxxxxxxxxxxxx |xxxxxxxxxxxxx |       0.7724 |       0.7724 |       0.7724 |xxxxxxxxxxxxx |xxxxxxxxxxxxx |xxxxxxxxxxxxx |xxxxxxxxxxxxx |       0.7693 |       0.7693 |       0.7693 |xxxxxxxxxxxxx |xxxxxxxxxxxxx |xxxxxxxxxxxxx |xxxxxxxxxxxxx |       0.7834 |       0.7834 |       0.7834 |xxxxxxxxxxxxx |xxxxxxxxxxxxx |xxxxxxxxxxxxx |xxxxxxxxxxxxx |       0.7869 |       0.7869 |       0.7869 |xxxxxxxxxxxxx |xxxxxxxxxxxxx |xxxxxxxxxxxxx |xxxxxxxxxxxxx |       0.7772 |       0.7772 |       0.7772 |xxxxxxxxxxxxx |xxxxxxxxxxxxx |xxxxxxxxxxxxx |xxxxxxxxxxxxx |       0.7747 |       0.7747 |       0.7747 |xxxxxxxxxxxxx |xxxxxxxxxxxxx |xxxxxxxxxxxxx |xxxxxxxxxxxxx |       0.7714 |       0.7714 |       0.7714 |xxxxxxxxxxxxx |xxxxxxxxxxxxx |xxxxxxxxxxxxx |xxxxxxxxxxxxx |       0.7730 |       0.7730 |       0.7730 |xxxxxxxxxxxxx |xxxxxxxxxxxxx |xxxxxxxxxxxxx |xxxxxxxxxxxxx |       0.7694 |       0.7694 |       0.7694 |
bpred_bimod.bpred_jr_rate                   0.9828 |       0.9828 |       0.9828 |xxxxxxxxxxxxx |xxxxxxxxxxxxx |xxxxxxxxxxxxx |xxxxxxxxxxxxx |       0.9828 |       0.9828 |       0.9828 |xxxxxxxxxxxxx |xxxxxxxxxxxxx |xxxxxxxxxxxxx |xxxxxxxxxxxxx |       0.9828 |       0.9828 |       0.9828 |xxxxxxxxxxxxx |xxxxxxxxxxxxx |xxxxxxxxxxxxx |xxxxxxxxxxxxx |       0.9828 |       0.9828 |       0.9828 |xxxxxxxxxxxxx |xxxxxxxxxxxxx |xxxxxxxxxxxxx |xxxxxxxxxxxxx |       0.9828 |       0.9828 |       0.9828 |xxxxxxxxxxxxx |xxxxxxxxxxxxx |xxxxxxxxxxxxx |xxxxxxxxxxxxx |       0.9828 |       0.9828 |       0.9828 |xxxxxxxxxxxxx |xxxxxxxxxxxxx |xxxxxxxxxxxxx |xxxxxxxxxxxxx |       0.9828 |       0.9828 |       0.9828 |xxxxxxxxxxxxx |xxxxxxxxxxxxx |xxxxxxxxxxxxx |xxxxxxxxxxxxx |       0.9828 |       0.9828 |       0.9828 |xxxxxxxxxxxxx |xxxxxxxxxxxxx |xxxxxxxxxxxxx |xxxxxxxxxxxxx |       0.9828 |       0.9828 |       0.9828 |xxxxxxxxxxxxx |xxxxxxxxxxxxx |xxxxxxxxxxxxx |xxxxxxxxxxxxx |       0.9828 |       0.9828 |       0.9828 |xxxxxxxxxxxxx |xxxxxxxxxxxxx |xxxxxxxxxxxxx |xxxxxxxxxxxxx |       0.9828 |       0.9828 |       0.9828 |
bpred_bimod.bpred_jr_non_ras_rate.PP       <error: |      <error: |      <error: |xxxxxxxxxxxxx |xxxxxxxxxxxxx |xxxxxxxxxxxxx |xxxxxxxxxxxxx |      <error: |      <error: |      <error: |xxxxxxxxxxxxx |xxxxxxxxxxxxx |xxxxxxxxxxxxx |xxxxxxxxxxxxx |      <error: |      <error: |      <error: |xxxxxxxxxxxxx |xxxxxxxxxxxxx |xxxxxxxxxxxxx |xxxxxxxxxxxxx |      <error: |      <error: |      <error: |xxxxxxxxxxxxx |xxxxxxxxxxxxx |xxxxxxxxxxxxx |xxxxxxxxxxxxx |      <error: |      <error: |      <error: |xxxxxxxxxxxxx |xxxxxxxxxxxxx |xxxxxxxxxxxxx |xxxxxxxxxxxxx |      <error: |      <error: |      <error: |xxxxxxxxxxxxx |xxxxxxxxxxxxx |xxxxxxxxxxxxx |xxxxxxxxxxxxx |      <error: |      <error: |      <error: |xxxxxxxxxxxxx |xxxxxxxxxxxxx |xxxxxxxxxxxxx |xxxxxxxxxxxxx |      <error: |      <error: |      <error: |xxxxxxxxxxxxx |xxxxxxxxxxxxx |xxxxxxxxxxxxx |xxxxxxxxxxxxx |      <error: |      <error: |      <error: |xxxxxxxxxxxxx |xxxxxxxxxxxxx |xxxxxxxxxxxxx |xxxxxxxxxxxxx |      <error: |      <error: |      <error: |xxxxxxxxxxxxx |xxxxxxxxxxxxx |xxxxxxxxxxxxx |xxxxxxxxxxxxx |      <error: |      <error: |      <error: |
bpred_bimod.retstack_pushes                     60 |           60 |           60 |xxxxxxxxxxxxx |xxxxxxxxxxxxx |xxxxxxxxxxxxx |xxxxxxxxxxxxx |           60 |           60 |           60 |xxxxxxxxxxxxx |xxxxxxxxxxxxx |xxxxxxxxxxxxx |xxxxxxxxxxxxx |           60 |           60 |           60 |xxxxxxxxxxxxx |xxxxxxxxxxxxx |xxxxxxxxxxxxx |xxxxxxxxxxxxx |           60 |           60 |           60 |xxxxxxxxxxxxx |xxxxxxxxxxxxx |xxxxxxxxxxxxx |xxxxxxxxxxxxx |           60 |           60 |           60 |xxxxxxxxxxxxx |xxxxxxxxxxxxx |xxxxxxxxxxxxx |xxxxxxxxxxxxx |           60 |           60 |           60 |xxxxxxxxxxxxx |xxxxxxxxxxxxx |xxxxxxxxxxxxx |xxxxxxxxxxxxx |           60 |           60 |           60 |xxxxxxxxxxxxx |xxxxxxxxxxxxx |xxxxxxxxxxxxx |xxxxxxxxxxxxx |           60 |           60 |           60 |xxxxxxxxxxxxx |xxxxxxxxxxxxx |xxxxxxxxxxxxx |xxxxxxxxxxxxx |           60 |           60 |           60 |xxxxxxxxxxxxx |xxxxxxxxxxxxx |xxxxxxxxxxxxx |xxxxxxxxxxxxx |           60 |           60 |           60 |xxxxxxxxxxxxx |xxxxxxxxxxxxx |xxxxxxxxxxxxx |xxxxxxxxxxxxx |           60 |           60 |           60 |
bpred_bimod.retstack_pops                       58 |           58 |           58 |xxxxxxxxxxxxx |xxxxxxxxxxxxx |xxxxxxxxxxxxx |xxxxxxxxxxxxx |           58 |           58 |           58 |xxxxxxxxxxxxx |xxxxxxxxxxxxx |xxxxxxxxxxxxx |xxxxxxxxxxxxx |           58 |           58 |           58 |xxxxxxxxxxxxx |xxxxxxxxxxxxx |xxxxxxxxxxxxx |xxxxxxxxxxxxx |           58 |           58 |           58 |xxxxxxxxxxxxx |xxxxxxxxxxxxx |xxxxxxxxxxxxx |xxxxxxxxxxxxx |           58 |           58 |           58 |xxxxxxxxxxxxx |xxxxxxxxxxxxx |xxxxxxxxxxxxx |xxxxxxxxxxxxx |           58 |           58 |           58 |xxxxxxxxxxxxx |xxxxxxxxxxxxx |xxxxxxxxxxxxx |xxxxxxxxxxxxx |           58 |           58 |           58 |xxxxxxxxxxxxx |xxxxxxxxxxxxx |xxxxxxxxxxxxx |xxxxxxxxxxxxx |           58 |           58 |           58 |xxxxxxxxxxxxx |xxxxxxxxxxxxx |xxxxxxxxxxxxx |xxxxxxxxxxxxx |           58 |           58 |           58 |xxxxxxxxxxxxx |xxxxxxxxxxxxx |xxxxxxxxxxxxx |xxxxxxxxxxxxx |           58 |           58 |           58 |xxxxxxxxxxxxx |xxxxxxxxxxxxx |xxxxxxxxxxxxx |xxxxxxxxxxxxx |           58 |           58 |           58 |
bpred_bimod.used_ras.PP                         58 |           58 |           58 |xxxxxxxxxxxxx |xxxxxxxxxxxxx |xxxxxxxxxxxxx |xxxxxxxxxxxxx |           58 |           58 |           58 |xxxxxxxxxxxxx |xxxxxxxxxxxxx |xxxxxxxxxxxxx |xxxxxxxxxxxxx |           58 |           58 |           58 |xxxxxxxxxxxxx |xxxxxxxxxxxxx |xxxxxxxxxxxxx |xxxxxxxxxxxxx |           58 |           58 |           58 |xxxxxxxxxxxxx |xxxxxxxxxxxxx |xxxxxxxxxxxxx |xxxxxxxxxxxxx |           58 |           58 |           58 |xxxxxxxxxxxxx |xxxxxxxxxxxxx |xxxxxxxxxxxxx |xxxxxxxxxxxxx |           58 |           58 |           58 |xxxxxxxxxxxxx |xxxxxxxxxxxxx |xxxxxxxxxxxxx |xxxxxxxxxxxxx |           58 |           58 |           58 |xxxxxxxxxxxxx |xxxxxxxxxxxxx |xxxxxxxxxxxxx |xxxxxxxxxxxxx |           58 |           58 |           58 |xxxxxxxxxxxxx |xxxxxxxxxxxxx |xxxxxxxxxxxxx |xxxxxxxxxxxxx |           58 |           58 |           58 |xxxxxxxxxxxxx |xxxxxxxxxxxxx |xxxxxxxxxxxxx |xxxxxxxxxxxxx |           58 |           58 |           58 |xxxxxxxxxxxxx |xxxxxxxxxxxxx |xxxxxxxxxxxxx |xxxxxxxxxxxxx |           58 |           58 |           58 |
bpred_bimod.ras_hits.PP                         57 |           57 |           57 |xxxxxxxxxxxxx |xxxxxxxxxxxxx |xxxxxxxxxxxxx |xxxxxxxxxxxxx |           57 |           57 |           57 |xxxxxxxxxxxxx |xxxxxxxxxxxxx |xxxxxxxxxxxxx |xxxxxxxxxxxxx |           57 |           57 |           57 |xxxxxxxxxxxxx |xxxxxxxxxxxxx |xxxxxxxxxxxxx |xxxxxxxxxxxxx |           57 |           57 |           57 |xxxxxxxxxxxxx |xxxxxxxxxxxxx |xxxxxxxxxxxxx |xxxxxxxxxxxxx |           57 |           57 |           57 |xxxxxxxxxxxxx |xxxxxxxxxxxxx |xxxxxxxxxxxxx |xxxxxxxxxxxxx |           57 |           57 |           57 |xxxxxxxxxxxxx |xxxxxxxxxxxxx |xxxxxxxxxxxxx |xxxxxxxxxxxxx |           57 |           57 |           57 |xxxxxxxxxxxxx |xxxxxxxxxxxxx |xxxxxxxxxxxxx |xxxxxxxxxxxxx |           57 |           57 |           57 |xxxxxxxxxxxxx |xxxxxxxxxxxxx |xxxxxxxxxxxxx |xxxxxxxxxxxxx |           57 |           57 |           57 |xxxxxxxxxxxxx |xxxxxxxxxxxxx |xxxxxxxxxxxxx |xxxxxxxxxxxxx |           57 |           57 |           57 |xxxxxxxxxxxxx |xxxxxxxxxxxxx |xxxxxxxxxxxxx |xxxxxxxxxxxxx |           57 |           57 |           57 |
bpred_bimod.ras_rate.PP                     0.9828 |       0.9828 |       0.9828 |xxxxxxxxxxxxx |xxxxxxxxxxxxx |xxxxxxxxxxxxx |xxxxxxxxxxxxx |       0.9828 |       0.9828 |       0.9828 |xxxxxxxxxxxxx |xxxxxxxxxxxxx |xxxxxxxxxxxxx |xxxxxxxxxxxxx |       0.9828 |       0.9828 |       0.9828 |xxxxxxxxxxxxx |xxxxxxxxxxxxx |xxxxxxxxxxxxx |xxxxxxxxxxxxx |       0.9828 |       0.9828 |       0.9828 |xxxxxxxxxxxxx |xxxxxxxxxxxxx |xxxxxxxxxxxxx |xxxxxxxxxxxxx |       0.9828 |       0.9828 |       0.9828 |xxxxxxxxxxxxx |xxxxxxxxxxxxx |xxxxxxxxxxxxx |xxxxxxxxxxxxx |       0.9828 |       0.9828 |       0.9828 |xxxxxxxxxxxxx |xxxxxxxxxxxxx |xxxxxxxxxxxxx |xxxxxxxxxxxxx |       0.9828 |       0.9828 |       0.9828 |xxxxxxxxxxxxx |xxxxxxxxxxxxx |xxxxxxxxxxxxx |xxxxxxxxxxxxx |       0.9828 |       0.9828 |       0.9828 |xxxxxxxxxxxxx |xxxxxxxxxxxxx |xxxxxxxxxxxxx |xxxxxxxxxxxxx |       0.9828 |       0.9828 |       0.9828 |xxxxxxxxxxxxx |xxxxxxxxxxxxx |xxxxxxxxxxxxx |xxxxxxxxxxxxx |       0.9828 |       0.9828 |       0.9828 |xxxxxxxxxxxxx |xxxxxxxxxxxxx |xxxxxxxxxxxxx |xxxxxxxxxxxxx |       0.9828 |       0.9828 |       0.9828 |
bpred_2lev.lookups                   xxxxxxxxxxxxx |xxxxxxxxxxxxx |xxxxxxxxxxxxx |       144939 |       144939 |       144939 |       144939 |xxxxxxxxxxxxx |xxxxxxxxxxxxx |xxxxxxxxxxxxx |       327842 |       327842 |       327842 |       327842 |xxxxxxxxxxxxx |xxxxxxxxxxxxx |xxxxxxxxxxxxx |       768011 |       768011 |       768011 |       768011 |xxxxxxxxxxxxx |xxxxxxxxxxxxx |xxxxxxxxxxxxx |      1635681 |      1635681 |      1635681 |      1635681 |xxxxxxxxxxxxx |xxxxxxxxxxxxx |xxxxxxxxxxxxx |      3445027 |      3445027 |      3445027 |      3445027 |xxxxxxxxxxxxx |xxxxxxxxxxxxx |xxxxxxxxxxxxx |      7678841 |      7678841 |      7678841 |      7678841 |xxxxxxxxxxxxx |xxxxxxxxxxxxx |xxxxxxxxxxxxx |     15930036 |     15930036 |     15930036 |     15930036 |xxxxxxxxxxxxx |xxxxxxxxxxxxx |xxxxxxxxxxxxx |     34289368 |     34289368 |     34289368 |     34289368 |xxxxxxxxxxxxx |xxxxxxxxxxxxx |xxxxxxxxxxxxx |     72969172 |     72969172 |     72969172 |     72969172 |xxxxxxxxxxxxx |xxxxxxxxxxxxx |xxxxxxxxxxxxx |    156301761 |    156301761 |    156301761 |    156301761 |xxxxxxxxxxxxx |xxxxxxxxxxxxx |xxxxxxxxxxxxx |    328304359 |    328304359 |    328304359 |    328304359 |
[...]
bpred_2lev.retstack_pushes           xxxxxxxxxxxxx |xxxxxxxxxxxxx |xxxxxxxxxxxxx |           60 |           60 |           60 |           60 |xxxxxxxxxxxxx |xxxxxxxxxxxxx |xxxxxxxxxxxxx |           60 |           60 |           60 |           60 |xxxxxxxxxxxxx |xxxxxxxxxxxxx |xxxxxxxxxxxxx |           60 |           60 |           60 |           60 |xxxxxxxxxxxxx |xxxxxxxxxxxxx |xxxxxxxxxxxxx |           60 |           60 |           60 |           60 |xxxxxxxxxxxxx |xxxxxxxxxxxxx |xxxxxxxxxxxxx |           60 |           60 |           60 |           60 |xxxxxxxxxxxxx |xxxxxxxxxxxxx |xxxxxxxxxxxxx |           60 |           60 |           60 |           60 |xxxxxxxxxxxxx |xxxxxxxxxxxxx |xxxxxxxxxxxxx |           60 |           60 |           60 |           60 |xxxxxxxxxxxxx |xxxxxxxxxxxxx |xxxxxxxxxxxxx |           60 |           60 |           60 |           60 |xxxxxxxxxxxxx |xxxxxxxxxxxxx |xxxxxxxxxxxxx |           60 |           60 |           60 |           60 |xxxxxxxxxxxxx |xxxxxxxxxxxxx |xxxxxxxxxxxxx |           60 |           60 |           60 |           60 |xxxxxxxxxxxxx |xxxxxxxxxxxxx |xxxxxxxxxxxxx |           60 |           60 |           60 |           60 |
bpred_2lev.retstack_pops             xxxxxxxxxxxxx |xxxxxxxxxxxxx |xxxxxxxxxxxxx |           58 |           58 |           58 |           58 |xxxxxxxxxxxxx |xxxxxxxxxxxxx |xxxxxxxxxxxxx |           58 |           58 |           58 |           58 |xxxxxxxxxxxxx |xxxxxxxxxxxxx |xxxxxxxxxxxxx |           58 |           58 |           58 |           58 |xxxxxxxxxxxxx |xxxxxxxxxxxxx |xxxxxxxxxxxxx |           58 |           58 |           58 |           58 |xxxxxxxxxxxxx |xxxxxxxxxxxxx |xxxxxxxxxxxxx |           58 |           58 |           58 |           58 |xxxxxxxxxxxxx |xxxxxxxxxxxxx |xxxxxxxxxxxxx |           58 |           58 |           58 |           58 |xxxxxxxxxxxxx |xxxxxxxxxxxxx |xxxxxxxxxxxxx |           58 |           58 |           58 |           58 |xxxxxxxxxxxxx |xxxxxxxxxxxxx |xxxxxxxxxxxxx |           58 |           58 |           58 |           58 |xxxxxxxxxxxxx |xxxxxxxxxxxxx |xxxxxxxxxxxxx |           58 |           58 |           58 |           58 |xxxxxxxxxxxxx |xxxxxxxxxxxxx |xxxxxxxxxxxxx |           58 |           58 |           58 |           58 |xxxxxxxxxxxxx |xxxxxxxxxxxxx |xxxxxxxxxxxxx |           58 |           58 |           58 |           58 |
bpred_2lev.used_ras.PP               xxxxxxxxxxxxx |xxxxxxxxxxxxx |xxxxxxxxxxxxx |           58 |           58 |           58 |           58 |xxxxxxxxxxxxx |xxxxxxxxxxxxx |xxxxxxxxxxxxx |           58 |           58 |           58 |           58 |xxxxxxxxxxxxx |xxxxxxxxxxxxx |xxxxxxxxxxxxx |           58 |           58 |           58 |           58 |xxxxxxxxxxxxx |xxxxxxxxxxxxx |xxxxxxxxxxxxx |           58 |           58 |           58 |           58 |xxxxxxxxxxxxx |xxxxxxxxxxxxx |xxxxxxxxxxxxx |           58 |           58 |           58 |           58 |xxxxxxxxxxxxx |xxxxxxxxxxxxx |xxxxxxxxxxxxx |           58 |           58 |           58 |           58 |xxxxxxxxxxxxx |xxxxxxxxxxxxx |xxxxxxxxxxxxx |           58 |           58 |           58 |           58 |xxxxxxxxxxxxx |xxxxxxxxxxxxx |xxxxxxxxxxxxx |           58 |           58 |           58 |           58 |xxxxxxxxxxxxx |xxxxxxxxxxxxx |xxxxxxxxxxxxx |           58 |           58 |           58 |           58 |xxxxxxxxxxxxx |xxxxxxxxxxxxx |xxxxxxxxxxxxx |           58 |           58 |           58 |           58 |xxxxxxxxxxxxx |xxxxxxxxxxxxx |xxxxxxxxxxxxx |           58 |           58 |           58 |           58 |
bpred_2lev.ras_hits.PP               xxxxxxxxxxxxx |xxxxxxxxxxxxx |xxxxxxxxxxxxx |           57 |           57 |           57 |           57 |xxxxxxxxxxxxx |xxxxxxxxxxxxx |xxxxxxxxxxxxx |           57 |           57 |           57 |           57 |xxxxxxxxxxxxx |xxxxxxxxxxxxx |xxxxxxxxxxxxx |           57 |           57 |           57 |           57 |xxxxxxxxxxxxx |xxxxxxxxxxxxx |xxxxxxxxxxxxx |           57 |           57 |           57 |           57 |xxxxxxxxxxxxx |xxxxxxxxxxxxx |xxxxxxxxxxxxx |           57 |           57 |           57 |           57 |xxxxxxxxxxxxx |xxxxxxxxxxxxx |xxxxxxxxxxxxx |           57 |           57 |           57 |           57 |xxxxxxxxxxxxx |xxxxxxxxxxxxx |xxxxxxxxxxxxx |           57 |           57 |           57 |           57 |xxxxxxxxxxxxx |xxxxxxxxxxxxx |xxxxxxxxxxxxx |           57 |           57 |           57 |           57 |xxxxxxxxxxxxx |xxxxxxxxxxxxx |xxxxxxxxxxxxx |           57 |           57 |           57 |           57 |xxxxxxxxxxxxx |xxxxxxxxxxxxx |xxxxxxxxxxxxx |           57 |           57 |           57 |           57 |xxxxxxxxxxxxx |xxxxxxxxxxxxx |xxxxxxxxxxxxx |           57 |           57 |           57 |           57 |
bpred_2lev.ras_rate.PP               xxxxxxxxxxxxx |xxxxxxxxxxxxx |xxxxxxxxxxxxx |       0.9828 |       0.9828 |       0.9828 |       0.9828 |xxxxxxxxxxxxx |xxxxxxxxxxxxx |xxxxxxxxxxxxx |       0.9828 |       0.9828 |       0.9828 |       0.9828 |xxxxxxxxxxxxx |xxxxxxxxxxxxx |xxxxxxxxxxxxx |       0.9828 |       0.9828 |       0.9828 |       0.9828 |xxxxxxxxxxxxx |xxxxxxxxxxxxx |xxxxxxxxxxxxx |       0.9828 |       0.9828 |       0.9828 |       0.9828 |xxxxxxxxxxxxx |xxxxxxxxxxxxx |xxxxxxxxxxxxx |       0.9828 |       0.9828 |       0.9828 |       0.9828 |xxxxxxxxxxxxx |xxxxxxxxxxxxx |xxxxxxxxxxxxx |       0.9828 |       0.9828 |       0.9828 |       0.9828 |xxxxxxxxxxxxx |xxxxxxxxxxxxx |xxxxxxxxxxxxx |       0.9828 |       0.9828 |       0.9828 |       0.9828 |xxxxxxxxxxxxx |xxxxxxxxxxxxx |xxxxxxxxxxxxx |       0.9828 |       0.9828 |       0.9828 |       0.9828 |xxxxxxxxxxxxx |xxxxxxxxxxxxx |xxxxxxxxxxxxx |       0.9828 |       0.9828 |       0.9828 |       0.9828 |xxxxxxxxxxxxx |xxxxxxxxxxxxx |xxxxxxxxxxxxx |       0.9828 |       0.9828 |       0.9828 |       0.9828 |xxxxxxxxxxxxx |xxxxxxxxxxxxx |xxxxxxxxxxxxx |       0.9828 |       0.9828 |       0.9828 |       0.9828 |

Command list: 
	sslittle-na-sstrix-gcc -Wall -O3 -funroll-loops -finline-functions  -DRANDOM_SIZE=4096 -DOFFSET=8 -DSORT=improved_shellsort sorts/improved_shellsort1262627296.c simpleMain.c -o improved_shellsort881389953
	sim-cache -cache:dl1 dl1:256:32:1:l -cache:dl2 dl2:131072:32:1:l -cache:il1 il1:256:32:1:l -cache:il2 dl2 improved_shellsort881389953
	sim-cache -cache:dl1 dl1:256:32:1:l -cache:dl2 dl2:65536:32:1:l -cache:il1 il1:256:32:1:l -cache:il2 dl2 improved_shellsort881389953
	sim-cache -cache:dl1 dl1:1:32:256:l -cache:dl2 dl2:1:32:131072:l -cache:il1 il1:1:32:256:l -cache:il2 dl2 improved_shellsort881389953
	sim-cache -cache:dl1 dl1:1:32:256:l -cache:dl2 dl2:1:32:65536:l -cache:il1 il1:1:32:256:l -cache:il2 dl2 improved_shellsort881389953
	sim-bpred -bpred bimod -bpred:bimod 512 improved_shellsort881389953
	sim-bpred -bpred bimod -bpred:bimod 1024 improved_shellsort881389953
	sim-bpred -bpred bimod -bpred:bimod 2048 improved_shellsort881389953
	sim-bpred -bpred 2lev -bpred:2lev 1 512 10 1 improved_shellsort881389953
	sim-bpred -bpred 2lev -bpred:2lev 1 1024 10 1 improved_shellsort881389953
	sim-bpred -bpred 2lev -bpred:2lev 1 2048 10 1 improved_shellsort881389953
	sim-bpred -bpred 2lev -bpred:2lev 1 4096 10 1 improved_shellsort881389953
	sslittle-na-sstrix-gcc -Wall -O3 -funroll-loops -finline-functions  -DRANDOM_SIZE=8192 -DOFFSET=8 -DSORT=improved_shellsort sorts/improved_shellsort1262627296.c simpleMain.c -o improved_shellsort881389953
	sim-cache -cache:dl1 dl1:256:32:1:l -cache:dl2 dl2:131072:32:1:l -cache:il1 il1:256:32:1:l -cache:il2 dl2 improved_shellsort881389953
	sim-cache -cache:dl1 dl1:256:32:1:l -cache:dl2 dl2:65536:32:1:l -cache:il1 il1:256:32:1:l -cache:il2 dl2 improved_shellsort881389953
	sim-cache -cache:dl1 dl1:1:32:256:l -cache:dl2 dl2:1:32:131072:l -cache:il1 il1:1:32:256:l -cache:il2 dl2 improved_shellsort881389953
	sim-cache -cache:dl1 dl1:1:32:256:l -cache:dl2 dl2:1:32:65536:l -cache:il1 il1:1:32:256:l -cache:il2 dl2 improved_shellsort881389953
	sim-bpred -bpred bimod -bpred:bimod 512 improved_shellsort881389953
	sim-bpred -bpred bimod -bpred:bimod 1024 improved_shellsort881389953
	sim-bpred -bpred bimod -bpred:bimod 2048 improved_shellsort881389953
	sim-bpred -bpred 2lev -bpred:2lev 1 512 10 1 improved_shellsort881389953
	sim-bpred -bpred 2lev -bpred:2lev 1 1024 10 1 improved_shellsort881389953
	sim-bpred -bpred 2lev -bpred:2lev 1 2048 10 1 improved_shellsort881389953
	sim-bpred -bpred 2lev -bpred:2lev 1 4096 10 1 improved_shellsort881389953
	sslittle-na-sstrix-gcc -Wall -O3 -funroll-loops -finline-functions  -DRANDOM_SIZE=16384 -DOFFSET=8 -DSORT=improved_shellsort sorts/improved_shellsort1262627296.c simpleMain.c -o improved_shellsort881389953
	sim-cache -cache:dl1 dl1:256:32:1:l -cache:dl2 dl2:131072:32:1:l -cache:il1 il1:256:32:1:l -cache:il2 dl2 improved_shellsort881389953
	sim-cache -cache:dl1 dl1:256:32:1:l -cache:dl2 dl2:65536:32:1:l -cache:il1 il1:256:32:1:l -cache:il2 dl2 improved_shellsort881389953
	sim-cache -cache:dl1 dl1:1:32:256:l -cache:dl2 dl2:1:32:131072:l -cache:il1 il1:1:32:256:l -cache:il2 dl2 improved_shellsort881389953
	sim-cache -cache:dl1 dl1:1:32:256:l -cache:dl2 dl2:1:32:65536:l -cache:il1 il1:1:32:256:l -cache:il2 dl2 improved_shellsort881389953
	sim-bpred -bpred bimod -bpred:bimod 512 improved_shellsort881389953
	sim-bpred -bpred bimod -bpred:bimod 1024 improved_shellsort881389953
	sim-bpred -bpred bimod -bpred:bimod 2048 improved_shellsort881389953
	sim-bpred -bpred 2lev -bpred:2lev 1 512 10 1 improved_shellsort881389953
	sim-bpred -bpred 2lev -bpred:2lev 1 1024 10 1 improved_shellsort881389953
	sim-bpred -bpred 2lev -bpred:2lev 1 2048 10 1 improved_shellsort881389953
	sim-bpred -bpred 2lev -bpred:2lev 1 4096 10 1 improved_shellsort881389953
	sslittle-na-sstrix-gcc -Wall -O3 -funroll-loops -finline-functions  -DRANDOM_SIZE=32768 -DOFFSET=8 -DSORT=improved_shellsort sorts/improved_shellsort1262627296.c simpleMain.c -o improved_shellsort881389953
	sim-cache -cache:dl1 dl1:256:32:1:l -cache:dl2 dl2:131072:32:1:l -cache:il1 il1:256:32:1:l -cache:il2 dl2 improved_shellsort881389953
	sim-cache -cache:dl1 dl1:256:32:1:l -cache:dl2 dl2:65536:32:1:l -cache:il1 il1:256:32:1:l -cache:il2 dl2 improved_shellsort881389953
	sim-cache -cache:dl1 dl1:1:32:256:l -cache:dl2 dl2:1:32:131072:l -cache:il1 il1:1:32:256:l -cache:il2 dl2 improved_shellsort881389953
	sim-cache -cache:dl1 dl1:1:32:256:l -cache:dl2 dl2:1:32:65536:l -cache:il1 il1:1:32:256:l -cache:il2 dl2 improved_shellsort881389953
	sim-bpred -bpred bimod -bpred:bimod 512 improved_shellsort881389953
	sim-bpred -bpred bimod -bpred:bimod 1024 improved_shellsort881389953
	sim-bpred -bpred bimod -bpred:bimod 2048 improved_shellsort881389953
	sim-bpred -bpred 2lev -bpred:2lev 1 512 10 1 improved_shellsort881389953
	sim-bpred -bpred 2lev -bpred:2lev 1 1024 10 1 improved_shellsort881389953
	sim-bpred -bpred 2lev -bpred:2lev 1 2048 10 1 improved_shellsort881389953
	sim-bpred -bpred 2lev -bpred:2lev 1 4096 10 1 improved_shellsort881389953
	sslittle-na-sstrix-gcc -Wall -O3 -funroll-loops -finline-functions  -DRANDOM_SIZE=65536 -DOFFSET=8 -DSORT=improved_shellsort sorts/improved_shellsort1262627296.c simpleMain.c -o improved_shellsort881389953
	sim-cache -cache:dl1 dl1:256:32:1:l -cache:dl2 dl2:131072:32:1:l -cache:il1 il1:256:32:1:l -cache:il2 dl2 improved_shellsort881389953
	sim-cache -cache:dl1 dl1:256:32:1:l -cache:dl2 dl2:65536:32:1:l -cache:il1 il1:256:32:1:l -cache:il2 dl2 improved_shellsort881389953
	sim-cache -cache:dl1 dl1:1:32:256:l -cache:dl2 dl2:1:32:131072:l -cache:il1 il1:1:32:256:l -cache:il2 dl2 improved_shellsort881389953
	sim-cache -cache:dl1 dl1:1:32:256:l -cache:dl2 dl2:1:32:65536:l -cache:il1 il1:1:32:256:l -cache:il2 dl2 improved_shellsort881389953
	sim-bpred -bpred bimod -bpred:bimod 512 improved_shellsort881389953
	sim-bpred -bpred bimod -bpred:bimod 1024 improved_shellsort881389953
	sim-bpred -bpred bimod -bpred:bimod 2048 improved_shellsort881389953
	sim-bpred -bpred 2lev -bpred:2lev 1 512 10 1 improved_shellsort881389953
	sim-bpred -bpred 2lev -bpred:2lev 1 1024 10 1 improved_shellsort881389953
	sim-bpred -bpred 2lev -bpred:2lev 1 2048 10 1 improved_shellsort881389953
	sim-bpred -bpred 2lev -bpred:2lev 1 4096 10 1 improved_shellsort881389953
	sslittle-na-sstrix-gcc -Wall -O3 -funroll-loops -finline-functions  -DRANDOM_SIZE=131072 -DOFFSET=8 -DSORT=improved_shellsort sorts/improved_shellsort1262627296.c simpleMain.c -o improved_shellsort881389953
	sim-cache -cache:dl1 dl1:256:32:1:l -cache:dl2 dl2:131072:32:1:l -cache:il1 il1:256:32:1:l -cache:il2 dl2 improved_shellsort881389953
	sim-cache -cache:dl1 dl1:256:32:1:l -cache:dl2 dl2:65536:32:1:l -cache:il1 il1:256:32:1:l -cache:il2 dl2 improved_shellsort881389953
	sim-cache -cache:dl1 dl1:1:32:256:l -cache:dl2 dl2:1:32:131072:l -cache:il1 il1:1:32:256:l -cache:il2 dl2 improved_shellsort881389953
	sim-cache -cache:dl1 dl1:1:32:256:l -cache:dl2 dl2:1:32:65536:l -cache:il1 il1:1:32:256:l -cache:il2 dl2 improved_shellsort881389953
	sim-bpred -bpred bimod -bpred:bimod 512 improved_shellsort881389953
	sim-bpred -bpred bimod -bpred:bimod 1024 improved_shellsort881389953
	sim-bpred -bpred bimod -bpred:bimod 2048 improved_shellsort881389953
	sim-bpred -bpred 2lev -bpred:2lev 1 512 10 1 improved_shellsort881389953
	sim-bpred -bpred 2lev -bpred:2lev 1 1024 10 1 improved_shellsort881389953
	sim-bpred -bpred 2lev -bpred:2lev 1 2048 10 1 improved_shellsort881389953
	sim-bpred -bpred 2lev -bpred:2lev 1 4096 10 1 improved_shellsort881389953
	sslittle-na-sstrix-gcc -Wall -O3 -funroll-loops -finline-functions  -DRANDOM_SIZE=262144 -DOFFSET=8 -DSORT=improved_shellsort sorts/improved_shellsort1262627296.c simpleMain.c -o improved_shellsort881389953
	sim-cache -cache:dl1 dl1:256:32:1:l -cache:dl2 dl2:131072:32:1:l -cache:il1 il1:256:32:1:l -cache:il2 dl2 improved_shellsort881389953
	sim-cache -cache:dl1 dl1:256:32:1:l -cache:dl2 dl2:65536:32:1:l -cache:il1 il1:256:32:1:l -cache:il2 dl2 improved_shellsort881389953
	sim-cache -cache:dl1 dl1:1:32:256:l -cache:dl2 dl2:1:32:131072:l -cache:il1 il1:1:32:256:l -cache:il2 dl2 improved_shellsort881389953
	sim-cache -cache:dl1 dl1:1:32:256:l -cache:dl2 dl2:1:32:65536:l -cache:il1 il1:1:32:256:l -cache:il2 dl2 improved_shellsort881389953
	sim-bpred -bpred bimod -bpred:bimod 512 improved_shellsort881389953
	sim-bpred -bpred bimod -bpred:bimod 1024 improved_shellsort881389953
	sim-bpred -bpred bimod -bpred:bimod 2048 improved_shellsort881389953
	sim-bpred -bpred 2lev -bpred:2lev 1 512 10 1 improved_shellsort881389953
	sim-bpred -bpred 2lev -bpred:2lev 1 1024 10 1 improved_shellsort881389953
	sim-bpred -bpred 2lev -bpred:2lev 1 2048 10 1 improved_shellsort881389953
	sim-bpred -bpred 2lev -bpred:2lev 1 4096 10 1 improved_shellsort881389953
	sslittle-na-sstrix-gcc -Wall -O3 -funroll-loops -finline-functions  -DRANDOM_SIZE=524288 -DOFFSET=8 -DSORT=improved_shellsort sorts/improved_shellsort1262627296.c simpleMain.c -o improved_shellsort881389953
	sim-cache -cache:dl1 dl1:256:32:1:l -cache:dl2 dl2:131072:32:1:l -cache:il1 il1:256:32:1:l -cache:il2 dl2 improved_shellsort881389953
	sim-cache -cache:dl1 dl1:256:32:1:l -cache:dl2 dl2:65536:32:1:l -cache:il1 il1:256:32:1:l -cache:il2 dl2 improved_shellsort881389953
	sim-cache -cache:dl1 dl1:1:32:256:l -cache:dl2 dl2:1:32:131072:l -cache:il1 il1:1:32:256:l -cache:il2 dl2 improved_shellsort881389953
	sim-cache -cache:dl1 dl1:1:32:256:l -cache:dl2 dl2:1:32:65536:l -cache:il1 il1:1:32:256:l -cache:il2 dl2 improved_shellsort881389953
	sim-bpred -bpred bimod -bpred:bimod 512 improved_shellsort881389953
	sim-bpred -bpred bimod -bpred:bimod 1024 improved_shellsort881389953
	sim-bpred -bpred bimod -bpred:bimod 2048 improved_shellsort881389953
	sim-bpred -bpred 2lev -bpred:2lev 1 512 10 1 improved_shellsort881389953
	sim-bpred -bpred 2lev -bpred:2lev 1 1024 10 1 improved_shellsort881389953
	sim-bpred -bpred 2lev -bpred:2lev 1 2048 10 1 improved_shellsort881389953
	sim-bpred -bpred 2lev -bpred:2lev 1 4096 10 1 improved_shellsort881389953
	sslittle-na-sstrix-gcc -Wall -O3 -funroll-loops -finline-functions  -DRANDOM_SIZE=1048576 -DOFFSET=8 -DSORT=improved_shellsort sorts/improved_shellsort1262627296.c simpleMain.c -o improved_shellsort881389953
	sim-cache -cache:dl1 dl1:256:32:1:l -cache:dl2 dl2:131072:32:1:l -cache:il1 il1:256:32:1:l -cache:il2 dl2 improved_shellsort881389953
	sim-cache -cache:dl1 dl1:256:32:1:l -cache:dl2 dl2:65536:32:1:l -cache:il1 il1:256:32:1:l -cache:il2 dl2 improved_shellsort881389953
	sim-cache -cache:dl1 dl1:1:32:256:l -cache:dl2 dl2:1:32:131072:l -cache:il1 il1:1:32:256:l -cache:il2 dl2 improved_shellsort881389953
	sim-cache -cache:dl1 dl1:1:32:256:l -cache:dl2 dl2:1:32:65536:l -cache:il1 il1:1:32:256:l -cache:il2 dl2 improved_shellsort881389953
	sim-bpred -bpred bimod -bpred:bimod 512 improved_shellsort881389953
	sim-bpred -bpred bimod -bpred:bimod 1024 improved_shellsort881389953
	sim-bpred -bpred bimod -bpred:bimod 2048 improved_shellsort881389953
	sim-bpred -bpred 2lev -bpred:2lev 1 512 10 1 improved_shellsort881389953
	sim-bpred -bpred 2lev -bpred:2lev 1 1024 10 1 improved_shellsort881389953
	sim-bpred -bpred 2lev -bpred:2lev 1 2048 10 1 improved_shellsort881389953
	sim-bpred -bpred 2lev -bpred:2lev 1 4096 10 1 improved_shellsort881389953
	sslittle-na-sstrix-gcc -Wall -O3 -funroll-loops -finline-functions  -DRANDOM_SIZE=2097152 -DOFFSET=8 -DSORT=improved_shellsort sorts/improved_shellsort1262627296.c simpleMain.c -o improved_shellsort881389953
	sim-cache -cache:dl1 dl1:256:32:1:l -cache:dl2 dl2:131072:32:1:l -cache:il1 il1:256:32:1:l -cache:il2 dl2 improved_shellsort881389953
	sim-cache -cache:dl1 dl1:256:32:1:l -cache:dl2 dl2:65536:32:1:l -cache:il1 il1:256:32:1:l -cache:il2 dl2 improved_shellsort881389953
	sim-cache -cache:dl1 dl1:1:32:256:l -cache:dl2 dl2:1:32:131072:l -cache:il1 il1:1:32:256:l -cache:il2 dl2 improved_shellsort881389953
	sim-cache -cache:dl1 dl1:1:32:256:l -cache:dl2 dl2:1:32:65536:l -cache:il1 il1:1:32:256:l -cache:il2 dl2 improved_shellsort881389953
	sim-bpred -bpred bimod -bpred:bimod 512 improved_shellsort881389953
	sim-bpred -bpred bimod -bpred:bimod 1024 improved_shellsort881389953
	sim-bpred -bpred bimod -bpred:bimod 2048 improved_shellsort881389953
	sim-bpred -bpred 2lev -bpred:2lev 1 512 10 1 improved_shellsort881389953
	sim-bpred -bpred 2lev -bpred:2lev 1 1024 10 1 improved_shellsort881389953
	sim-bpred -bpred 2lev -bpred:2lev 1 2048 10 1 improved_shellsort881389953
	sim-bpred -bpred 2lev -bpred:2lev 1 4096 10 1 improved_shellsort881389953
	sslittle-na-sstrix-gcc -Wall -O3 -funroll-loops -finline-functions  -DRANDOM_SIZE=4194304 -DOFFSET=8 -DSORT=improved_shellsort sorts/improved_shellsort1262627296.c simpleMain.c -o improved_shellsort881389953
	sim-cache -cache:dl1 dl1:256:32:1:l -cache:dl2 dl2:131072:32:1:l -cache:il1 il1:256:32:1:l -cache:il2 dl2 improved_shellsort881389953
	sim-cache -cache:dl1 dl1:256:32:1:l -cache:dl2 dl2:65536:32:1:l -cache:il1 il1:256:32:1:l -cache:il2 dl2 improved_shellsort881389953
	sim-cache -cache:dl1 dl1:1:32:256:l -cache:dl2 dl2:1:32:131072:l -cache:il1 il1:1:32:256:l -cache:il2 dl2 improved_shellsort881389953
	sim-cache -cache:dl1 dl1:1:32:256:l -cache:dl2 dl2:1:32:65536:l -cache:il1 il1:1:32:256:l -cache:il2 dl2 improved_shellsort881389953
	sim-bpred -bpred bimod -bpred:bimod 512 improved_shellsort881389953
	sim-bpred -bpred bimod -bpred:bimod 1024 improved_shellsort881389953
	sim-bpred -bpred bimod -bpred:bimod 2048 improved_shellsort881389953
	sim-bpred -bpred 2lev -bpred:2lev 1 512 10 1 improved_shellsort881389953
	sim-bpred -bpred 2lev -bpred:2lev 1 1024 10 1 improved_shellsort881389953
	sim-bpred -bpred 2lev -bpred:2lev 1 2048 10 1 improved_shellsort881389953
	sim-bpred -bpred 2lev -bpred:2lev 1 4096 10 1 improved_shellsort881389953
