Thu Jul 21 00:54:30 2005
Run as: "./do_simple -c random.org6 -o 6 improved_shellsort"
-------------------------------------------------------------------------------------------------
sim-cache                                     4096 |         4096 |         4096 |         4096 |         8192 |         8192 |         8192 |         8192 |        16384 |        16384 |        16384 |        16384 |        32768 |        32768 |        32768 |        32768 |        65536 |        65536 |        65536 |        65536 |       131072 |       131072 |       131072 |       131072 |       262144 |       262144 |       262144 |       262144 |       524288 |       524288 |       524288 |       524288 |      1048576 |      1048576 |      1048576 |      1048576 |      2097152 |      2097152 |      2097152 |      2097152 |      4194304 |      4194304 |      4194304 |      4194304 |
-cache:dl1 dl1:256:32:1:l -cache:dl2 dl2:131072:32:1:l -cache:il1 il1:256:32:1:l -cache:il2 dl2
-cache:dl1 dl1:256:32:1:l -cache:dl2 dl2:65536:32:1:l -cache:il1 il1:256:32:1:l -cache:il2 dl2
-cache:dl1 dl1:1:32:256:l -cache:dl2 dl2:1:32:131072:l -cache:il1 il1:1:32:256:l -cache:il2 dl2
-cache:dl1 dl1:1:32:256:l -cache:dl2 dl2:1:32:65536:l -cache:il1 il1:1:32:256:l -cache:il2 dl2
-------------------------------------------------------------------------------------------------
sim_num_insn                                905352 |       905352 |       905352 |       905352 |      2024162 |      2024162 |      2024162 |      2024162 |      4577000 |      4577000 |      4577000 |      4577000 |      9982720 |      9982720 |      9982720 |      9982720 |     21187613 |     21187613 |     21187613 |     21187613 |     47451822 |     47451822 |     47451822 |     47451822 |     97645139 |     97645139 |     97645139 |     97645139 |    209246988 |    209246988 |    209246988 |    209246988 |    444200619 |    444200619 |    444200619 |    444200619 |    953418995 |    953418995 |    953418995 |    953418995 |   1995101599 |   1995101599 |   1995101599 |   1995101599 |
sim_num_refs                                193036 |       193036 |       193036 |       193036 |       422302 |       422302 |       422302 |       422302 |       922934 |       922934 |       922934 |       922934 |      1994078 |      1994078 |      1994078 |      1994078 |      4619307 |      4619307 |      4619307 |      4619307 |     10134478 |     10134478 |     10134478 |     10134478 |     20135889 |     20135889 |     20135889 |     20135889 |     42483683 |     42483683 |     42483683 |     42483683 |     88455186 |     88455186 |     88455186 |     88455186 |    190824274 |    190824274 |    190824274 |    190824274 |    386434604 |    386434604 |    386434604 |    386434604 |
sim_elapsed_time                                 1 |            1 |            7 |            4 |            1 |            1 |           10 |            5 |            1 |            1 |           16 |            8 |            3 |            2 |           27 |           15 |            6 |            5 |           51 |           27 |           12 |           12 |           96 |           51 |           25 |           25 |          177 |           91 |           54 |           53 |          312 |          141 |          113 |          113 |          459 |          208 |          242 |          243 |          607 |          354 |          505 |          504 |          903 |          650 |
sim_inst_rate                          905352.0000 |  905352.0000 |  129336.0000 |  226338.0000 | 2024162.0000 | 2024162.0000 |  202416.2000 |  404832.4000 | 4577000.0000 | 4577000.0000 |  286062.5000 |  572125.0000 | 3327573.3333 | 4991360.0000 |  369730.3704 |  665514.6667 | 3531268.8333 | 4237522.6000 |  415443.3922 |  784726.4074 | 3954318.5000 | 3954318.5000 |  494289.8125 |  930427.8824 | 3905805.5600 | 3905805.5600 |  551667.4520 | 1073023.5055 | 3874944.2222 | 3948056.3774 |  670663.4231 | 1484021.1915 | 3930978.9292 | 3930978.9292 |  967757.3399 | 2135579.8990 | 3939747.9132 | 3923534.9588 | 1570706.7463 | 2693273.9972 | 3950696.2356 | 3958534.9187 | 2209414.8383 | 3069387.0754 |
il1.accesses                                905352 |       905352 |       905352 |       905352 |      2024162 |      2024162 |      2024162 |      2024162 |      4577000 |      4577000 |      4577000 |      4577000 |      9982720 |      9982720 |      9982720 |      9982720 |     21187613 |     21187613 |     21187613 |     21187613 |     47451822 |     47451822 |     47451822 |     47451822 |     97645139 |     97645139 |     97645139 |     97645139 |    209246988 |    209246988 |    209246988 |    209246988 |    444200619 |    444200619 |    444200619 |    444200619 |    953418995 |    953418995 |    953418995 |    953418995 |   1995101599 |   1995101599 |   1995101599 |   1995101599 |
il1.hits                                    904931 |       904931 |       904991 |       904991 |      2023739 |      2023739 |      2023799 |      2023799 |      4576586 |      4576586 |      4576640 |      4576640 |      9982296 |      9982296 |      9982356 |      9982356 |     21187189 |     21187189 |     21187249 |     21187249 |     47451399 |     47451399 |     47451459 |     47451459 |     97644716 |     97644716 |     97644776 |     97644776 |    209246566 |    209246566 |    209246626 |    209246626 |    444200196 |    444200196 |    444200256 |    444200256 |    953418572 |    953418572 |    953418632 |    953418632 |   1995101176 |   1995101176 |   1995101236 |   1995101236 |
il1.misses                                     421 |          421 |          361 |          361 |          423 |          423 |          363 |          363 |          414 |          414 |          360 |          360 |          424 |          424 |          364 |          364 |          424 |          424 |          364 |          364 |          423 |          423 |          363 |          363 |          423 |          423 |          363 |          363 |          422 |          422 |          362 |          362 |          423 |          423 |          363 |          363 |          423 |          423 |          363 |          363 |          423 |          423 |          363 |          363 |
il1.replacements                               210 |          210 |          105 |          105 |          210 |          210 |          107 |          107 |          204 |          204 |          104 |          104 |          210 |          210 |          108 |          108 |          210 |          210 |          108 |          108 |          209 |          209 |          107 |          107 |          209 |          209 |          107 |          107 |          209 |          209 |          106 |          106 |          209 |          209 |          107 |          107 |          209 |          209 |          107 |          107 |          209 |          209 |          107 |          107 |
il1.writebacks                                   0 |            0 |            0 |            0 |            0 |            0 |            0 |            0 |            0 |            0 |            0 |            0 |            0 |            0 |            0 |            0 |            0 |            0 |            0 |            0 |            0 |            0 |            0 |            0 |            0 |            0 |            0 |            0 |            0 |            0 |            0 |            0 |            0 |            0 |            0 |            0 |            0 |            0 |            0 |            0 |            0 |            0 |            0 |            0 |
il1.invalidations                                0 |            0 |            0 |            0 |            0 |            0 |            0 |            0 |            0 |            0 |            0 |            0 |            0 |            0 |            0 |            0 |            0 |            0 |            0 |            0 |            0 |            0 |            0 |            0 |            0 |            0 |            0 |            0 |            0 |            0 |            0 |            0 |            0 |            0 |            0 |            0 |            0 |            0 |            0 |            0 |            0 |            0 |            0 |            0 |
il1.miss_rate                               0.0005 |       0.0005 |       0.0004 |       0.0004 |       0.0002 |       0.0002 |       0.0002 |       0.0002 |       0.0001 |       0.0001 |       0.0001 |       0.0001 |       0.0000 |       0.0000 |       0.0000 |       0.0000 |       0.0000 |       0.0000 |       0.0000 |       0.0000 |       0.0000 |       0.0000 |       0.0000 |       0.0000 |       0.0000 |       0.0000 |       0.0000 |       0.0000 |       0.0000 |       0.0000 |       0.0000 |       0.0000 |       0.0000 |       0.0000 |       0.0000 |       0.0000 |       0.0000 |       0.0000 |       0.0000 |       0.0000 |       0.0000 |       0.0000 |       0.0000 |       0.0000 |
il1.repl_rate                               0.0002 |       0.0002 |       0.0001 |       0.0001 |       0.0001 |       0.0001 |       0.0001 |       0.0001 |       0.0000 |       0.0000 |       0.0000 |       0.0000 |       0.0000 |       0.0000 |       0.0000 |       0.0000 |       0.0000 |       0.0000 |       0.0000 |       0.0000 |       0.0000 |       0.0000 |       0.0000 |       0.0000 |       0.0000 |       0.0000 |       0.0000 |       0.0000 |       0.0000 |       0.0000 |       0.0000 |       0.0000 |       0.0000 |       0.0000 |       0.0000 |       0.0000 |       0.0000 |       0.0000 |       0.0000 |       0.0000 |       0.0000 |       0.0000 |       0.0000 |       0.0000 |
il1.wb_rate                                 0.0000 |       0.0000 |       0.0000 |       0.0000 |       0.0000 |       0.0000 |       0.0000 |       0.0000 |       0.0000 |       0.0000 |       0.0000 |       0.0000 |       0.0000 |       0.0000 |       0.0000 |       0.0000 |       0.0000 |       0.0000 |       0.0000 |       0.0000 |       0.0000 |       0.0000 |       0.0000 |       0.0000 |       0.0000 |       0.0000 |       0.0000 |       0.0000 |       0.0000 |       0.0000 |       0.0000 |       0.0000 |       0.0000 |       0.0000 |       0.0000 |       0.0000 |       0.0000 |       0.0000 |       0.0000 |       0.0000 |       0.0000 |       0.0000 |       0.0000 |       0.0000 |
il1.inv_rate                                0.0000 |       0.0000 |       0.0000 |       0.0000 |       0.0000 |       0.0000 |       0.0000 |       0.0000 |       0.0000 |       0.0000 |       0.0000 |       0.0000 |       0.0000 |       0.0000 |       0.0000 |       0.0000 |       0.0000 |       0.0000 |       0.0000 |       0.0000 |       0.0000 |       0.0000 |       0.0000 |       0.0000 |       0.0000 |       0.0000 |       0.0000 |       0.0000 |       0.0000 |       0.0000 |       0.0000 |       0.0000 |       0.0000 |       0.0000 |       0.0000 |       0.0000 |       0.0000 |       0.0000 |       0.0000 |       0.0000 |       0.0000 |       0.0000 |       0.0000 |       0.0000 |
dl1.accesses                                209502 |       209502 |       209502 |       209502 |       455152 |       455152 |       455152 |       455152 |       988552 |       988552 |       988552 |       988552 |      2125232 |      2125232 |      2125232 |      2125232 |      4881533 |      4881533 |      4881533 |      4881533 |     10658848 |     10658848 |     10658848 |     10658848 |     21184547 |     21184547 |     21184547 |     21184547 |     44580917 |     44580917 |     44580917 |     44580917 |     92649572 |     92649572 |     92649572 |     92649572 |    199212964 |    199212964 |    199212964 |    199212964 |    403211902 |    403211902 |    403211902 |    403211902 |
dl1.hits                                    203514 |       203514 |       203128 |       203128 |       439388 |       439388 |       438763 |       438763 |       948060 |       948060 |       946762 |       946762 |      2028719 |      2028719 |      2021950 |      2021950 |      4653837 |      4653837 |      4640934 |      4640934 |     10110140 |     10110140 |     10086041 |     10086041 |     19951637 |     19951637 |     19859875 |     19859875 |     41749520 |     41749520 |     41555858 |     41555858 |     86378636 |     86378636 |     85867653 |     85867653 |    185181584 |    185181584 |    184757785 |    184757785 |    372427238 |    372427238 |    372239250 |    372239250 |
dl1.misses                                    5988 |         5988 |         6374 |         6374 |        15764 |        15764 |        16389 |        16389 |        40492 |        40492 |        41790 |        41790 |        96513 |        96513 |       103282 |       103282 |       227696 |       227696 |       240599 |       240599 |       548708 |       548708 |       572807 |       572807 |      1232910 |      1232910 |      1324672 |      1324672 |      2831397 |      2831397 |      3025059 |      3025059 |      6270936 |      6270936 |      6781919 |      6781919 |     14031380 |     14031380 |     14455179 |     14455179 |     30784664 |     30784664 |     30972652 |     30972652 |
dl1.replacements                              5732 |         5732 |         6118 |         6118 |        15508 |        15508 |        16133 |        16133 |        40236 |        40236 |        41534 |        41534 |        96257 |        96257 |       103026 |       103026 |       227440 |       227440 |       240343 |       240343 |       548452 |       548452 |       572551 |       572551 |      1232654 |      1232654 |      1324416 |      1324416 |      2831141 |      2831141 |      3024803 |      3024803 |      6270680 |      6270680 |      6781663 |      6781663 |     14031124 |     14031124 |     14454923 |     14454923 |     30784408 |     30784408 |     30972396 |     30972396 |
dl1.writebacks                                5621 |         5621 |         5908 |         5908 |        14416 |        14416 |        14924 |        14924 |        36227 |        36227 |        37288 |        37288 |        85326 |        85326 |        90845 |        90845 |       197480 |       197480 |       208275 |       208275 |       472267 |       472267 |       492991 |       492991 |      1057112 |      1057112 |      1132833 |      1132833 |      2414224 |      2414224 |      2577097 |      2577097 |      5339632 |      5339632 |      5757421 |      5757421 |     11908565 |     11908565 |     12261205 |     12261205 |     26087287 |     26087287 |     26216624 |     26216624 |
dl1.invalidations                                0 |            0 |            0 |            0 |            0 |            0 |            0 |            0 |            0 |            0 |            0 |            0 |            0 |            0 |            0 |            0 |            0 |            0 |            0 |            0 |            0 |            0 |            0 |            0 |            0 |            0 |            0 |            0 |            0 |            0 |            0 |            0 |            0 |            0 |            0 |            0 |            0 |            0 |            0 |            0 |            0 |            0 |            0 |            0 |
dl1.miss_rate                               0.0286 |       0.0286 |       0.0304 |       0.0304 |       0.0346 |       0.0346 |       0.0360 |       0.0360 |       0.0410 |       0.0410 |       0.0423 |       0.0423 |       0.0454 |       0.0454 |       0.0486 |       0.0486 |       0.0466 |       0.0466 |       0.0493 |       0.0493 |       0.0515 |       0.0515 |       0.0537 |       0.0537 |       0.0582 |       0.0582 |       0.0625 |       0.0625 |       0.0635 |       0.0635 |       0.0679 |       0.0679 |       0.0677 |       0.0677 |       0.0732 |       0.0732 |       0.0704 |       0.0704 |       0.0726 |       0.0726 |       0.0763 |       0.0763 |       0.0768 |       0.0768 |
dl1.repl_rate                               0.0274 |       0.0274 |       0.0292 |       0.0292 |       0.0341 |       0.0341 |       0.0354 |       0.0354 |       0.0407 |       0.0407 |       0.0420 |       0.0420 |       0.0453 |       0.0453 |       0.0485 |       0.0485 |       0.0466 |       0.0466 |       0.0492 |       0.0492 |       0.0515 |       0.0515 |       0.0537 |       0.0537 |       0.0582 |       0.0582 |       0.0625 |       0.0625 |       0.0635 |       0.0635 |       0.0678 |       0.0678 |       0.0677 |       0.0677 |       0.0732 |       0.0732 |       0.0704 |       0.0704 |       0.0726 |       0.0726 |       0.0763 |       0.0763 |       0.0768 |       0.0768 |
dl1.wb_rate                                 0.0268 |       0.0268 |       0.0282 |       0.0282 |       0.0317 |       0.0317 |       0.0328 |       0.0328 |       0.0366 |       0.0366 |       0.0377 |       0.0377 |       0.0401 |       0.0401 |       0.0427 |       0.0427 |       0.0405 |       0.0405 |       0.0427 |       0.0427 |       0.0443 |       0.0443 |       0.0463 |       0.0463 |       0.0499 |       0.0499 |       0.0535 |       0.0535 |       0.0542 |       0.0542 |       0.0578 |       0.0578 |       0.0576 |       0.0576 |       0.0621 |       0.0621 |       0.0598 |       0.0598 |       0.0615 |       0.0615 |       0.0647 |       0.0647 |       0.0650 |       0.0650 |
dl1.inv_rate                                0.0000 |       0.0000 |       0.0000 |       0.0000 |       0.0000 |       0.0000 |       0.0000 |       0.0000 |       0.0000 |       0.0000 |       0.0000 |       0.0000 |       0.0000 |       0.0000 |       0.0000 |       0.0000 |       0.0000 |       0.0000 |       0.0000 |       0.0000 |       0.0000 |       0.0000 |       0.0000 |       0.0000 |       0.0000 |       0.0000 |       0.0000 |       0.0000 |       0.0000 |       0.0000 |       0.0000 |       0.0000 |       0.0000 |       0.0000 |       0.0000 |       0.0000 |       0.0000 |       0.0000 |       0.0000 |       0.0000 |       0.0000 |       0.0000 |       0.0000 |       0.0000 |
dl2.accesses                                 12030 |        12030 |        12643 |        12643 |        30603 |        30603 |        31676 |        31676 |        77133 |        77133 |        79438 |        79438 |       182263 |       182263 |       194491 |       194491 |       425600 |       425600 |       449238 |       449238 |      1021398 |      1021398 |      1066161 |      1066161 |      2290445 |      2290445 |      2457868 |      2457868 |      5246043 |      5246043 |      5602518 |      5602518 |     11610991 |     11610991 |     12539703 |     12539703 |     25940368 |     25940368 |     26716747 |     26716747 |     56872374 |     56872374 |     57189639 |     57189639 |
dl2.hits                                     10741 |        10741 |        11358 |        11358 |        28800 |        28800 |        29877 |        29877 |        74310 |        74310 |        76621 |        76621 |       177387 |       177387 |       189619 |       189619 |       416628 |       416628 |       440270 |       440270 |      1004235 |      1004235 |      1049002 |      1049002 |      2256898 |      2256898 |      2424325 |      2424325 |      5179729 |      5179623 |      5536208 |      5303051 |     11479031 |      9284078 |     11927764 |     10110017 |     21024701 |     20201194 |     21595775 |     20816497 |     44873343 |     42958665 |     44867202 |     42926823 |
dl2.misses                                    1289 |         1289 |         1285 |         1285 |         1803 |         1803 |         1799 |         1799 |         2823 |         2823 |         2817 |         2817 |         4876 |         4876 |         4872 |         4872 |         8972 |         8972 |         8968 |         8968 |        17163 |        17163 |        17159 |        17159 |        33547 |        33547 |        33543 |        33543 |        66314 |        66420 |        66310 |       299467 |       131960 |      2326913 |       611939 |      2429686 |      4915667 |      5739174 |      5120972 |      5900250 |     11999031 |     13913709 |     12322437 |     14262816 |
dl2.replacements                                57 |           57 |            0 |            0 |           58 |           58 |            0 |            0 |           63 |           63 |            0 |            0 |           59 |           59 |            0 |            0 |           59 |           59 |            0 |            0 |           59 |           59 |            0 |            0 |           59 |           59 |            0 |            0 |           59 |          884 |            0 |       233931 |          888 |      2261377 |       480867 |      2364150 |      4784595 |      5673638 |      4989900 |      5834714 |     11867959 |     13848173 |     12191365 |     14197280 |
dl2.writebacks                                   2 |            2 |            0 |            0 |            2 |            2 |            0 |            0 |            2 |            2 |            0 |            0 |            2 |            2 |            0 |            0 |            2 |            2 |            0 |            0 |            2 |            2 |            0 |            0 |            2 |            2 |            0 |            0 |            2 |          695 |            0 |       233789 |          699 |      2235703 |       480722 |      2314173 |      4733190 |      5395606 |      4889887 |      5526965 |     11312231 |     12831551 |     11576422 |     13107636 |
dl2.invalidations                                0 |            0 |            0 |            0 |            0 |            0 |            0 |            0 |            0 |            0 |            0 |            0 |            0 |            0 |            0 |            0 |            0 |            0 |            0 |            0 |            0 |            0 |            0 |            0 |            0 |            0 |            0 |            0 |            0 |            0 |            0 |            0 |            0 |            0 |            0 |            0 |            0 |            0 |            0 |            0 |            0 |            0 |            0 |            0 |
dl2.miss_rate                               0.1071 |       0.1071 |       0.1016 |       0.1016 |       0.0589 |       0.0589 |       0.0568 |       0.0568 |       0.0366 |       0.0366 |       0.0355 |       0.0355 |       0.0268 |       0.0268 |       0.0251 |       0.0251 |       0.0211 |       0.0211 |       0.0200 |       0.0200 |       0.0168 |       0.0168 |       0.0161 |       0.0161 |       0.0146 |       0.0146 |       0.0136 |       0.0136 |       0.0126 |       0.0127 |       0.0118 |       0.0535 |       0.0114 |       0.2004 |       0.0488 |       0.1938 |       0.1895 |       0.2212 |       0.1917 |       0.2208 |       0.2110 |       0.2446 |       0.2155 |       0.2494 |
dl2.repl_rate                               0.0047 |       0.0047 |       0.0000 |       0.0000 |       0.0019 |       0.0019 |       0.0000 |       0.0000 |       0.0008 |       0.0008 |       0.0000 |       0.0000 |       0.0003 |       0.0003 |       0.0000 |       0.0000 |       0.0001 |       0.0001 |       0.0000 |       0.0000 |       0.0001 |       0.0001 |       0.0000 |       0.0000 |       0.0000 |       0.0000 |       0.0000 |       0.0000 |       0.0000 |       0.0002 |       0.0000 |       0.0418 |       0.0001 |       0.1948 |       0.0383 |       0.1885 |       0.1844 |       0.2187 |       0.1868 |       0.2184 |       0.2087 |       0.2435 |       0.2132 |       0.2482 |
dl2.wb_rate                                 0.0002 |       0.0002 |       0.0000 |       0.0000 |       0.0001 |       0.0001 |       0.0000 |       0.0000 |       0.0000 |       0.0000 |       0.0000 |       0.0000 |       0.0000 |       0.0000 |       0.0000 |       0.0000 |       0.0000 |       0.0000 |       0.0000 |       0.0000 |       0.0000 |       0.0000 |       0.0000 |       0.0000 |       0.0000 |       0.0000 |       0.0000 |       0.0000 |       0.0000 |       0.0001 |       0.0000 |       0.0417 |       0.0001 |       0.1926 |       0.0383 |       0.1845 |       0.1825 |       0.2080 |       0.1830 |       0.2069 |       0.1989 |       0.2256 |       0.2024 |       0.2292 |
dl2.inv_rate                                0.0000 |       0.0000 |       0.0000 |       0.0000 |       0.0000 |       0.0000 |       0.0000 |       0.0000 |       0.0000 |       0.0000 |       0.0000 |       0.0000 |       0.0000 |       0.0000 |       0.0000 |       0.0000 |       0.0000 |       0.0000 |       0.0000 |       0.0000 |       0.0000 |       0.0000 |       0.0000 |       0.0000 |       0.0000 |       0.0000 |       0.0000 |       0.0000 |       0.0000 |       0.0000 |       0.0000 |       0.0000 |       0.0000 |       0.0000 |       0.0000 |       0.0000 |       0.0000 |       0.0000 |       0.0000 |       0.0000 |       0.0000 |       0.0000 |       0.0000 |       0.0000 |
itlb.accesses                               905352 |       905352 |       905352 |       905352 |      2024162 |      2024162 |      2024162 |      2024162 |      4577000 |      4577000 |      4577000 |      4577000 |      9982720 |      9982720 |      9982720 |      9982720 |     21187613 |     21187613 |     21187613 |     21187613 |     47451822 |     47451822 |     47451822 |     47451822 |     97645139 |     97645139 |     97645139 |     97645139 |    209246988 |    209246988 |    209246988 |    209246988 |    444200619 |    444200619 |    444200619 |    444200619 |    953418995 |    953418995 |    953418995 |    953418995 |   1995101599 |   1995101599 |   1995101599 |   1995101599 |
itlb.hits                                   905343 |       905343 |       905343 |       905343 |      2024153 |      2024153 |      2024153 |      2024153 |      4576991 |      4576991 |      4576991 |      4576991 |      9982710 |      9982710 |      9982710 |      9982710 |     21187603 |     21187603 |     21187603 |     21187603 |     47451812 |     47451812 |     47451812 |     47451812 |     97645129 |     97645129 |     97645129 |     97645129 |    209246978 |    209246978 |    209246978 |    209246978 |    444200609 |    444200609 |    444200609 |    444200609 |    953418985 |    953418985 |    953418985 |    953418985 |   1995101589 |   1995101589 |   1995101589 |   1995101589 |
itlb.misses                                      9 |            9 |            9 |            9 |            9 |            9 |            9 |            9 |            9 |            9 |            9 |            9 |           10 |           10 |           10 |           10 |           10 |           10 |           10 |           10 |           10 |           10 |           10 |           10 |           10 |           10 |           10 |           10 |           10 |           10 |           10 |           10 |           10 |           10 |           10 |           10 |           10 |           10 |           10 |           10 |           10 |           10 |           10 |           10 |
itlb.replacements                                0 |            0 |            0 |            0 |            0 |            0 |            0 |            0 |            0 |            0 |            0 |            0 |            0 |            0 |            0 |            0 |            0 |            0 |            0 |            0 |            0 |            0 |            0 |            0 |            0 |            0 |            0 |            0 |            0 |            0 |            0 |            0 |            0 |            0 |            0 |            0 |            0 |            0 |            0 |            0 |            0 |            0 |            0 |            0 |
itlb.writebacks                                  0 |            0 |            0 |            0 |            0 |            0 |            0 |            0 |            0 |            0 |            0 |            0 |            0 |            0 |            0 |            0 |            0 |            0 |            0 |            0 |            0 |            0 |            0 |            0 |            0 |            0 |            0 |            0 |            0 |            0 |            0 |            0 |            0 |            0 |            0 |            0 |            0 |            0 |            0 |            0 |            0 |            0 |            0 |            0 |
itlb.invalidations                               0 |            0 |            0 |            0 |            0 |            0 |            0 |            0 |            0 |            0 |            0 |            0 |            0 |            0 |            0 |            0 |            0 |            0 |            0 |            0 |            0 |            0 |            0 |            0 |            0 |            0 |            0 |            0 |            0 |            0 |            0 |            0 |            0 |            0 |            0 |            0 |            0 |            0 |            0 |            0 |            0 |            0 |            0 |            0 |
itlb.miss_rate                              0.0000 |       0.0000 |       0.0000 |       0.0000 |       0.0000 |       0.0000 |       0.0000 |       0.0000 |       0.0000 |       0.0000 |       0.0000 |       0.0000 |       0.0000 |       0.0000 |       0.0000 |       0.0000 |       0.0000 |       0.0000 |       0.0000 |       0.0000 |       0.0000 |       0.0000 |       0.0000 |       0.0000 |       0.0000 |       0.0000 |       0.0000 |       0.0000 |       0.0000 |       0.0000 |       0.0000 |       0.0000 |       0.0000 |       0.0000 |       0.0000 |       0.0000 |       0.0000 |       0.0000 |       0.0000 |       0.0000 |       0.0000 |       0.0000 |       0.0000 |       0.0000 |
itlb.repl_rate                              0.0000 |       0.0000 |       0.0000 |       0.0000 |       0.0000 |       0.0000 |       0.0000 |       0.0000 |       0.0000 |       0.0000 |       0.0000 |       0.0000 |       0.0000 |       0.0000 |       0.0000 |       0.0000 |       0.0000 |       0.0000 |       0.0000 |       0.0000 |       0.0000 |       0.0000 |       0.0000 |       0.0000 |       0.0000 |       0.0000 |       0.0000 |       0.0000 |       0.0000 |       0.0000 |       0.0000 |       0.0000 |       0.0000 |       0.0000 |       0.0000 |       0.0000 |       0.0000 |       0.0000 |       0.0000 |       0.0000 |       0.0000 |       0.0000 |       0.0000 |       0.0000 |
itlb.wb_rate                                0.0000 |       0.0000 |       0.0000 |       0.0000 |       0.0000 |       0.0000 |       0.0000 |       0.0000 |       0.0000 |       0.0000 |       0.0000 |       0.0000 |       0.0000 |       0.0000 |       0.0000 |       0.0000 |       0.0000 |       0.0000 |       0.0000 |       0.0000 |       0.0000 |       0.0000 |       0.0000 |       0.0000 |       0.0000 |       0.0000 |       0.0000 |       0.0000 |       0.0000 |       0.0000 |       0.0000 |       0.0000 |       0.0000 |       0.0000 |       0.0000 |       0.0000 |       0.0000 |       0.0000 |       0.0000 |       0.0000 |       0.0000 |       0.0000 |       0.0000 |       0.0000 |
itlb.inv_rate                               0.0000 |       0.0000 |       0.0000 |       0.0000 |       0.0000 |       0.0000 |       0.0000 |       0.0000 |       0.0000 |       0.0000 |       0.0000 |       0.0000 |       0.0000 |       0.0000 |       0.0000 |       0.0000 |       0.0000 |       0.0000 |       0.0000 |       0.0000 |       0.0000 |       0.0000 |       0.0000 |       0.0000 |       0.0000 |       0.0000 |       0.0000 |       0.0000 |       0.0000 |       0.0000 |       0.0000 |       0.0000 |       0.0000 |       0.0000 |       0.0000 |       0.0000 |       0.0000 |       0.0000 |       0.0000 |       0.0000 |       0.0000 |       0.0000 |       0.0000 |       0.0000 |
dtlb.accesses                               209502 |       209502 |       209502 |       209502 |       455152 |       455152 |       455152 |       455152 |       988552 |       988552 |       988552 |       988552 |      2125232 |      2125232 |      2125232 |      2125232 |      4881533 |      4881533 |      4881533 |      4881533 |     10658848 |     10658848 |     10658848 |     10658848 |     21184547 |     21184547 |     21184547 |     21184547 |     44580917 |     44580917 |     44580917 |     44580917 |     92649572 |     92649572 |     92649572 |     92649572 |    199212964 |    199212964 |    199212964 |    199212964 |    403211902 |    403211902 |    403211902 |    403211902 |
dtlb.hits                                   209491 |       209491 |       209491 |       209491 |       455137 |       455137 |       455137 |       455137 |       988529 |       988529 |       988529 |       988529 |      2125193 |      2125193 |      2125193 |      2125193 |      4881462 |      4881462 |      4881462 |      4881462 |     10658649 |     10658649 |     10658649 |     10658649 |     21179539 |     21179539 |     21179539 |     21179539 |     44566560 |     44566560 |     44566560 |     44566560 |     92503135 |     92503135 |     92503135 |     92503135 |    199116966 |    199116966 |    199116966 |    199116966 |    402979068 |    402979068 |    402979068 |    402979068 |
dtlb.misses                                     11 |           11 |           11 |           11 |           15 |           15 |           15 |           15 |           23 |           23 |           23 |           23 |           39 |           39 |           39 |           39 |           71 |           71 |           71 |           71 |          199 |          199 |          199 |          199 |         5008 |         5008 |         5008 |         5008 |        14357 |        14357 |        14357 |        14357 |       146437 |       146437 |       146437 |       146437 |        95998 |        95998 |        95998 |        95998 |       232834 |       232834 |       232834 |       232834 |
dtlb.replacements                                0 |            0 |            0 |            0 |            0 |            0 |            0 |            0 |            0 |            0 |            0 |            0 |            0 |            0 |            0 |            0 |            0 |            0 |            0 |            0 |           71 |           71 |           71 |           71 |         4880 |         4880 |         4880 |         4880 |        14229 |        14229 |        14229 |        14229 |       146309 |       146309 |       146309 |       146309 |        95870 |        95870 |        95870 |        95870 |       232706 |       232706 |       232706 |       232706 |
dtlb.writebacks                                  0 |            0 |            0 |            0 |            0 |            0 |            0 |            0 |            0 |            0 |            0 |            0 |            0 |            0 |            0 |            0 |            0 |            0 |            0 |            0 |           69 |           69 |           69 |           69 |         4796 |         4796 |         4796 |         4796 |        13665 |        13665 |        13665 |        13665 |       125212 |       125212 |       125212 |       125212 |        90066 |        90066 |        90066 |        90066 |       217067 |       217067 |       217067 |       217067 |
dtlb.invalidations                               0 |            0 |            0 |            0 |            0 |            0 |            0 |            0 |            0 |            0 |            0 |            0 |            0 |            0 |            0 |            0 |            0 |            0 |            0 |            0 |            0 |            0 |            0 |            0 |            0 |            0 |            0 |            0 |            0 |            0 |            0 |            0 |            0 |            0 |            0 |            0 |            0 |            0 |            0 |            0 |            0 |            0 |            0 |            0 |
dtlb.miss_rate                              0.0001 |       0.0001 |       0.0001 |       0.0001 |       0.0000 |       0.0000 |       0.0000 |       0.0000 |       0.0000 |       0.0000 |       0.0000 |       0.0000 |       0.0000 |       0.0000 |       0.0000 |       0.0000 |       0.0000 |       0.0000 |       0.0000 |       0.0000 |       0.0000 |       0.0000 |       0.0000 |       0.0000 |       0.0002 |       0.0002 |       0.0002 |       0.0002 |       0.0003 |       0.0003 |       0.0003 |       0.0003 |       0.0016 |       0.0016 |       0.0016 |       0.0016 |       0.0005 |       0.0005 |       0.0005 |       0.0005 |       0.0006 |       0.0006 |       0.0006 |       0.0006 |
dtlb.repl_rate                              0.0000 |       0.0000 |       0.0000 |       0.0000 |       0.0000 |       0.0000 |       0.0000 |       0.0000 |       0.0000 |       0.0000 |       0.0000 |       0.0000 |       0.0000 |       0.0000 |       0.0000 |       0.0000 |       0.0000 |       0.0000 |       0.0000 |       0.0000 |       0.0000 |       0.0000 |       0.0000 |       0.0000 |       0.0002 |       0.0002 |       0.0002 |       0.0002 |       0.0003 |       0.0003 |       0.0003 |       0.0003 |       0.0016 |       0.0016 |       0.0016 |       0.0016 |       0.0005 |       0.0005 |       0.0005 |       0.0005 |       0.0006 |       0.0006 |       0.0006 |       0.0006 |
dtlb.wb_rate                                0.0000 |       0.0000 |       0.0000 |       0.0000 |       0.0000 |       0.0000 |       0.0000 |       0.0000 |       0.0000 |       0.0000 |       0.0000 |       0.0000 |       0.0000 |       0.0000 |       0.0000 |       0.0000 |       0.0000 |       0.0000 |       0.0000 |       0.0000 |       0.0000 |       0.0000 |       0.0000 |       0.0000 |       0.0002 |       0.0002 |       0.0002 |       0.0002 |       0.0003 |       0.0003 |       0.0003 |       0.0003 |       0.0014 |       0.0014 |       0.0014 |       0.0014 |       0.0005 |       0.0005 |       0.0005 |       0.0005 |       0.0005 |       0.0005 |       0.0005 |       0.0005 |
dtlb.inv_rate                               0.0000 |       0.0000 |       0.0000 |       0.0000 |       0.0000 |       0.0000 |       0.0000 |       0.0000 |       0.0000 |       0.0000 |       0.0000 |       0.0000 |       0.0000 |       0.0000 |       0.0000 |       0.0000 |       0.0000 |       0.0000 |       0.0000 |       0.0000 |       0.0000 |       0.0000 |       0.0000 |       0.0000 |       0.0000 |       0.0000 |       0.0000 |       0.0000 |       0.0000 |       0.0000 |       0.0000 |       0.0000 |       0.0000 |       0.0000 |       0.0000 |       0.0000 |       0.0000 |       0.0000 |       0.0000 |       0.0000 |       0.0000 |       0.0000 |       0.0000 |       0.0000 |
ld_text_base                            0x00400000 |   0x00400000 |   0x00400000 |   0x00400000 |   0x00400000 |   0x00400000 |   0x00400000 |   0x00400000 |   0x00400000 |   0x00400000 |   0x00400000 |   0x00400000 |   0x00400000 |   0x00400000 |   0x00400000 |   0x00400000 |   0x00400000 |   0x00400000 |   0x00400000 |   0x00400000 |   0x00400000 |   0x00400000 |   0x00400000 |   0x00400000 |   0x00400000 |   0x00400000 |   0x00400000 |   0x00400000 |   0x00400000 |   0x00400000 |   0x00400000 |   0x00400000 |   0x00400000 |   0x00400000 |   0x00400000 |   0x00400000 |   0x00400000 |   0x00400000 |   0x00400000 |   0x00400000 |   0x00400000 |   0x00400000 |   0x00400000 |   0x00400000 |
ld_text_size                                 72720 |        72720 |        72720 |        72720 |        72752 |        72752 |        72752 |        72752 |        72768 |        72768 |        72768 |        72768 |        72784 |        72784 |        72784 |        72784 |        72784 |        72784 |        72784 |        72784 |        72784 |        72784 |        72784 |        72784 |        72784 |        72784 |        72784 |        72784 |        72784 |        72784 |        72784 |        72784 |        72784 |        72784 |        72784 |        72784 |        72784 |        72784 |        72784 |        72784 |        72784 |        72784 |        72784 |        72784 |
ld_data_base                            0x10000000 |   0x10000000 |   0x10000000 |   0x10000000 |   0x10000000 |   0x10000000 |   0x10000000 |   0x10000000 |   0x10000000 |   0x10000000 |   0x10000000 |   0x10000000 |   0x10000000 |   0x10000000 |   0x10000000 |   0x10000000 |   0x10000000 |   0x10000000 |   0x10000000 |   0x10000000 |   0x10000000 |   0x10000000 |   0x10000000 |   0x10000000 |   0x10000000 |   0x10000000 |   0x10000000 |   0x10000000 |   0x10000000 |   0x10000000 |   0x10000000 |   0x10000000 |   0x10000000 |   0x10000000 |   0x10000000 |   0x10000000 |   0x10000000 |   0x10000000 |   0x10000000 |   0x10000000 |   0x10000000 |   0x10000000 |   0x10000000 |   0x10000000 |
ld_data_size                                  8192 |         8192 |         8192 |         8192 |         8192 |         8192 |         8192 |         8192 |         8192 |         8192 |         8192 |         8192 |         8192 |         8192 |         8192 |         8192 |         8192 |         8192 |         8192 |         8192 |         8192 |         8192 |         8192 |         8192 |         8192 |         8192 |         8192 |         8192 |         8192 |         8192 |         8192 |         8192 |         8192 |         8192 |         8192 |         8192 |         8192 |         8192 |         8192 |         8192 |         8192 |         8192 |         8192 |         8192 |
ld_stack_base                           0x7fffc000 |   0x7fffc000 |   0x7fffc000 |   0x7fffc000 |   0x7fffc000 |   0x7fffc000 |   0x7fffc000 |   0x7fffc000 |   0x7fffc000 |   0x7fffc000 |   0x7fffc000 |   0x7fffc000 |   0x7fffc000 |   0x7fffc000 |   0x7fffc000 |   0x7fffc000 |   0x7fffc000 |   0x7fffc000 |   0x7fffc000 |   0x7fffc000 |   0x7fffc000 |   0x7fffc000 |   0x7fffc000 |   0x7fffc000 |   0x7fffc000 |   0x7fffc000 |   0x7fffc000 |   0x7fffc000 |   0x7fffc000 |   0x7fffc000 |   0x7fffc000 |   0x7fffc000 |   0x7fffc000 |   0x7fffc000 |   0x7fffc000 |   0x7fffc000 |   0x7fffc000 |   0x7fffc000 |   0x7fffc000 |   0x7fffc000 |   0x7fffc000 |   0x7fffc000 |   0x7fffc000 |   0x7fffc000 |
ld_stack_size                                16384 |        16384 |        16384 |        16384 |        16384 |        16384 |        16384 |        16384 |        16384 |        16384 |        16384 |        16384 |        16384 |        16384 |        16384 |        16384 |        16384 |        16384 |        16384 |        16384 |        16384 |        16384 |        16384 |        16384 |        16384 |        16384 |        16384 |        16384 |        16384 |        16384 |        16384 |        16384 |        16384 |        16384 |        16384 |        16384 |        16384 |        16384 |        16384 |        16384 |        16384 |        16384 |        16384 |        16384 |
ld_prog_entry                           0x00400140 |   0x00400140 |   0x00400140 |   0x00400140 |   0x00400140 |   0x00400140 |   0x00400140 |   0x00400140 |   0x00400140 |   0x00400140 |   0x00400140 |   0x00400140 |   0x00400140 |   0x00400140 |   0x00400140 |   0x00400140 |   0x00400140 |   0x00400140 |   0x00400140 |   0x00400140 |   0x00400140 |   0x00400140 |   0x00400140 |   0x00400140 |   0x00400140 |   0x00400140 |   0x00400140 |   0x00400140 |   0x00400140 |   0x00400140 |   0x00400140 |   0x00400140 |   0x00400140 |   0x00400140 |   0x00400140 |   0x00400140 |   0x00400140 |   0x00400140 |   0x00400140 |   0x00400140 |   0x00400140 |   0x00400140 |   0x00400140 |   0x00400140 |
ld_environ_base                         0x7fff8000 |   0x7fff8000 |   0x7fff8000 |   0x7fff8000 |   0x7fff8000 |   0x7fff8000 |   0x7fff8000 |   0x7fff8000 |   0x7fff8000 |   0x7fff8000 |   0x7fff8000 |   0x7fff8000 |   0x7fff8000 |   0x7fff8000 |   0x7fff8000 |   0x7fff8000 |   0x7fff8000 |   0x7fff8000 |   0x7fff8000 |   0x7fff8000 |   0x7fff8000 |   0x7fff8000 |   0x7fff8000 |   0x7fff8000 |   0x7fff8000 |   0x7fff8000 |   0x7fff8000 |   0x7fff8000 |   0x7fff8000 |   0x7fff8000 |   0x7fff8000 |   0x7fff8000 |   0x7fff8000 |   0x7fff8000 |   0x7fff8000 |   0x7fff8000 |   0x7fff8000 |   0x7fff8000 |   0x7fff8000 |   0x7fff8000 |   0x7fff8000 |   0x7fff8000 |   0x7fff8000 |   0x7fff8000 |
ld_target_big_endian                             0 |            0 |            0 |            0 |            0 |            0 |            0 |            0 |            0 |            0 |            0 |            0 |            0 |            0 |            0 |            0 |            0 |            0 |            0 |            0 |            0 |            0 |            0 |            0 |            0 |            0 |            0 |            0 |            0 |            0 |            0 |            0 |            0 |            0 |            0 |            0 |            0 |            0 |            0 |            0 |            0 |            0 |            0 |            0 |
mem.page_count                                  29 |           29 |           29 |           29 |           33 |           33 |           33 |           33 |           41 |           41 |           41 |           41 |           57 |           57 |           57 |           57 |           89 |           89 |           89 |           89 |          153 |          153 |          153 |          153 |          281 |          281 |          281 |          281 |          537 |          537 |          537 |          537 |         1049 |         1049 |         1049 |         1049 |         2073 |         2073 |         2073 |         2073 |         4121 |         4121 |         4121 |         4121 |
mem.page_mem                                  116k |         116k |         116k |         116k |         132k |         132k |         132k |         132k |         164k |         164k |         164k |         164k |         228k |         228k |         228k |         228k |         356k |         356k |         356k |         356k |         612k |         612k |         612k |         612k |        1124k |        1124k |        1124k |        1124k |        2148k |        2148k |        2148k |        2148k |        4196k |        4196k |        4196k |        4196k |        8292k |        8292k |        8292k |        8292k |       16484k |       16484k |       16484k |       16484k |
mem.ptab_misses                                 29 |           29 |           29 |           29 |           33 |           33 |           33 |           33 |           41 |           41 |           41 |           41 |           57 |           57 |           57 |           57 |           89 |           89 |           89 |           89 |          153 |          153 |          153 |          153 |          281 |          281 |          281 |          281 |          537 |          537 |          537 |          537 |         1049 |         1049 |         1049 |         1049 |         2073 |         2073 |         2073 |         2073 |         4121 |         4121 |         4121 |         4121 |
mem.ptab_accesses                          4491318 |      4491318 |      4491318 |      4491318 |      9458050 |      9458050 |      9458050 |      9458050 |     20736298 |     20736298 |     20736298 |     20736298 |     44632634 |     44632634 |     44632634 |     44632634 |     94964808 |     94964808 |     94964808 |     94964808 |    211576274 |    211576274 |    211576274 |    211576274 |    433400940 |    433400940 |    433400940 |    433400940 |    926601076 |    926601076 |    926601076 |    926601076 |   1962552910 |   1962552910 |   1962552910 |   1962552910 |   4212553198 |   4212553198 |   4212553198 |   4212553198 |   8787281490 |   8787281490 |   8787281490 |   8787281490 |
mem.ptab_miss_rate                          0.0000 |       0.0000 |       0.0000 |       0.0000 |       0.0000 |       0.0000 |       0.0000 |       0.0000 |       0.0000 |       0.0000 |       0.0000 |       0.0000 |       0.0000 |       0.0000 |       0.0000 |       0.0000 |       0.0000 |       0.0000 |       0.0000 |       0.0000 |       0.0000 |       0.0000 |       0.0000 |       0.0000 |       0.0000 |       0.0000 |       0.0000 |       0.0000 |       0.0000 |       0.0000 |       0.0000 |       0.0000 |       0.0000 |       0.0000 |       0.0000 |       0.0000 |       0.0000 |       0.0000 |       0.0000 |       0.0000 |       0.0000 |       0.0000 |       0.0000 |       0.0000 |
-------------------------------------------------------------------------------------------------
sim-bpred                                     4096 |         4096 |         4096 |         4096 |         4096 |         4096 |         4096 |         8192 |         8192 |         8192 |         8192 |         8192 |         8192 |         8192 |        16384 |        16384 |        16384 |        16384 |        16384 |        16384 |        16384 |        32768 |        32768 |        32768 |        32768 |        32768 |        32768 |        32768 |        65536 |        65536 |        65536 |        65536 |        65536 |        65536 |        65536 |       131072 |       131072 |       131072 |       131072 |       131072 |       131072 |       131072 |       262144 |       262144 |       262144 |       262144 |       262144 |       262144 |       262144 |       524288 |       524288 |       524288 |       524288 |       524288 |       524288 |       524288 |      1048576 |      1048576 |      1048576 |      1048576 |      1048576 |      1048576 |      1048576 |      2097152 |      2097152 |      2097152 |      2097152 |      2097152 |      2097152 |      2097152 |      4194304 |      4194304 |      4194304 |      4194304 |      4194304 |      4194304 |      4194304 |
-bpred bimod -bpred:bimod 512
-bpred bimod -bpred:bimod 1024
-bpred bimod -bpred:bimod 2048
-bpred 2lev -bpred:2lev 1 512 10 1
-bpred 2lev -bpred:2lev 1 1024 10 1
-bpred 2lev -bpred:2lev 1 2048 10 1
-bpred 2lev -bpred:2lev 1 4096 10 1
-------------------------------------------------------------------------------------------------
sim_num_insn                                905352 |       905352 |       905352 |       905352 |       905352 |       905352 |       905352 |      2024162 |      2024162 |      2024162 |      2024162 |      2024162 |      2024162 |      2024162 |      4577000 |      4577000 |      4577000 |      4577000 |      4577000 |      4577000 |      4577000 |      9982720 |      9982720 |      9982720 |      9982720 |      9982720 |      9982720 |      9982720 |     21187613 |     21187613 |     21187613 |     21187613 |     21187613 |     21187613 |     21187613 |     47451822 |     47451822 |     47451822 |     47451822 |     47451822 |     47451822 |     47451822 |     97645139 |     97645139 |     97645139 |     97645139 |     97645139 |     97645139 |     97645139 |    209246988 |    209246988 |    209246988 |    209246988 |    209246988 |    209246988 |    209246988 |    444200619 |    444200619 |    444200619 |    444200619 |    444200619 |    444200619 |    444200619 |    953418995 |    953418995 |    953418995 |    953418995 |    953418995 |    953418995 |    953418995 |   1995101599 |   1995101599 |   1995101599 |   1995101599 |   1995101599 |   1995101599 |   1995101599 |
sim_num_refs                                193036 |       193036 |       193036 |       193036 |       193036 |       193036 |       193036 |       422302 |       422302 |       422302 |       422302 |       422302 |       422302 |       422302 |       922934 |       922934 |       922934 |       922934 |       922934 |       922934 |       922934 |      1994078 |      1994078 |      1994078 |      1994078 |      1994078 |      1994078 |      1994078 |      4619307 |      4619307 |      4619307 |      4619307 |      4619307 |      4619307 |      4619307 |     10134478 |     10134478 |     10134478 |     10134478 |     10134478 |     10134478 |     10134478 |     20135889 |     20135889 |     20135889 |     20135889 |     20135889 |     20135889 |     20135889 |     42483683 |     42483683 |     42483683 |     42483683 |     42483683 |     42483683 |     42483683 |     88455186 |     88455186 |     88455186 |     88455186 |     88455186 |     88455186 |     88455186 |    190824274 |    190824274 |    190824274 |    190824274 |    190824274 |    190824274 |    190824274 |    386434604 |    386434604 |    386434604 |    386434604 |    386434604 |    386434604 |    386434604 |
sim_elapsed_time                                 1 |            1 |            1 |            1 |            1 |            1 |            1 |            1 |            1 |            1 |            1 |            1 |            1 |            1 |            1 |            1 |            1 |            1 |            1 |            1 |            1 |            1 |            1 |            1 |            1 |            2 |            1 |            1 |            2 |            2 |            2 |            3 |            3 |            2 |            3 |            6 |            5 |            6 |            5 |            6 |            6 |            5 |           12 |           11 |           11 |           12 |           12 |           11 |           12 |           25 |           24 |           25 |           24 |           24 |           25 |           25 |           52 |           52 |           51 |           53 |           53 |           53 |           53 |          111 |          111 |          111 |          113 |          114 |          113 |          113 |          233 |          233 |          233 |          237 |          237 |          237 |          236 |
sim_inst_rate                          905352.0000 |  905352.0000 |  905352.0000 |  905352.0000 |  905352.0000 |  905352.0000 |  905352.0000 | 2024162.0000 | 2024162.0000 | 2024162.0000 | 2024162.0000 | 2024162.0000 | 2024162.0000 | 2024162.0000 | 4577000.0000 | 4577000.0000 | 4577000.0000 | 4577000.0000 | 4577000.0000 | 4577000.0000 | 4577000.0000 | 9982720.0000 | 9982720.0000 | 9982720.0000 | 9982720.0000 | 4991360.0000 | 9982720.0000 | 9982720.0000 |10593806.5000 |10593806.5000 |10593806.5000 | 7062537.6667 | 7062537.6667 |10593806.5000 | 7062537.6667 | 7908637.0000 | 9490364.4000 | 7908637.0000 | 9490364.4000 | 7908637.0000 | 7908637.0000 | 9490364.4000 | 8137094.9167 | 8876830.8182 | 8876830.8182 | 8137094.9167 | 8137094.9167 | 8876830.8182 | 8137094.9167 | 8369879.5200 | 8718624.5000 | 8369879.5200 | 8718624.5000 | 8718624.5000 | 8369879.5200 | 8369879.5200 | 8542319.5962 | 8542319.5962 | 8709816.0588 | 8381143.7547 | 8381143.7547 | 8381143.7547 | 8381143.7547 | 8589360.3153 | 8589360.3153 | 8589360.3153 | 8437336.2389 | 8363324.5175 | 8437336.2389 | 8437336.2389 | 8562667.8069 | 8562667.8069 | 8562667.8069 | 8418150.2068 | 8418150.2068 | 8418150.2068 | 8453820.3347 |
sim_num_branches                            146283 |       146283 |       146283 |       146283 |       146283 |       146283 |       146283 |       328518 |       328518 |       328518 |       328518 |       328518 |       328518 |       328518 |       746845 |       746845 |       746845 |       746845 |       746845 |       746845 |       746845 |      1632451 |      1632451 |      1632451 |      1632451 |      1632451 |      1632451 |      1632451 |      3429806 |      3429806 |      3429806 |      3429806 |      3429806 |      3429806 |      3429806 |      7707211 |      7707211 |      7707211 |      7707211 |      7707211 |      7707211 |      7707211 |     15936958 |     15936958 |     15936958 |     15936958 |     15936958 |     15936958 |     15936958 |     34234316 |     34234316 |     34234316 |     34234316 |     34234316 |     34234316 |     34234316 |     72873225 |     72873225 |     72873225 |     72873225 |     72873225 |     72873225 |     72873225 |    156398360 |    156398360 |    156398360 |    156398360 |    156398360 |    156398360 |    156398360 |    328600274 |    328600274 |    328600274 |    328600274 |    328600274 |    328600274 |    328600274 |
sim_IPB                                     6.1890 |       6.1890 |       6.1890 |       6.1890 |       6.1890 |       6.1890 |       6.1890 |       6.1615 |       6.1615 |       6.1615 |       6.1615 |       6.1615 |       6.1615 |       6.1615 |       6.1284 |       6.1284 |       6.1284 |       6.1284 |       6.1284 |       6.1284 |       6.1284 |       6.1152 |       6.1152 |       6.1152 |       6.1152 |       6.1152 |       6.1152 |       6.1152 |       6.1775 |       6.1775 |       6.1775 |       6.1775 |       6.1775 |       6.1775 |       6.1775 |       6.1568 |       6.1568 |       6.1568 |       6.1568 |       6.1568 |       6.1568 |       6.1568 |       6.1270 |       6.1270 |       6.1270 |       6.1270 |       6.1270 |       6.1270 |       6.1270 |       6.1122 |       6.1122 |       6.1122 |       6.1122 |       6.1122 |       6.1122 |       6.1122 |       6.0955 |       6.0955 |       6.0955 |       6.0955 |       6.0955 |       6.0955 |       6.0955 |       6.0961 |       6.0961 |       6.0961 |       6.0961 |       6.0961 |       6.0961 |       6.0961 |       6.0715 |       6.0715 |       6.0715 |       6.0715 |       6.0715 |       6.0715 |       6.0715 |
bpred_bimod.lookups                         146283 |       146283 |       146283 |xxxxxxxxxxxxx |xxxxxxxxxxxxx |xxxxxxxxxxxxx |xxxxxxxxxxxxx |       328518 |       328518 |       328518 |xxxxxxxxxxxxx |xxxxxxxxxxxxx |xxxxxxxxxxxxx |xxxxxxxxxxxxx |       746845 |       746845 |       746845 |xxxxxxxxxxxxx |xxxxxxxxxxxxx |xxxxxxxxxxxxx |xxxxxxxxxxxxx |      1632451 |      1632451 |      1632451 |xxxxxxxxxxxxx |xxxxxxxxxxxxx |xxxxxxxxxxxxx |xxxxxxxxxxxxx |      3429806 |      3429806 |      3429806 |xxxxxxxxxxxxx |xxxxxxxxxxxxx |xxxxxxxxxxxxx |xxxxxxxxxxxxx |      7707211 |      7707211 |      7707211 |xxxxxxxxxxxxx |xxxxxxxxxxxxx |xxxxxxxxxxxxx |xxxxxxxxxxxxx |     15936958 |     15936958 |     15936958 |xxxxxxxxxxxxx |xxxxxxxxxxxxx |xxxxxxxxxxxxx |xxxxxxxxxxxxx |     34234316 |     34234316 |     34234316 |xxxxxxxxxxxxx |xxxxxxxxxxxxx |xxxxxxxxxxxxx |xxxxxxxxxxxxx |     72873225 |     72873225 |     72873225 |xxxxxxxxxxxxx |xxxxxxxxxxxxx |xxxxxxxxxxxxx |xxxxxxxxxxxxx |    156398360 |    156398360 |    156398360 |xxxxxxxxxxxxx |xxxxxxxxxxxxx |xxxxxxxxxxxxx |xxxxxxxxxxxxx |    328600274 |    328600274 |    328600274 |
bpred_bimod.updates                         146283 |       146283 |       146283 |xxxxxxxxxxxxx |xxxxxxxxxxxxx |xxxxxxxxxxxxx |xxxxxxxxxxxxx |       328518 |       328518 |       328518 |xxxxxxxxxxxxx |xxxxxxxxxxxxx |xxxxxxxxxxxxx |xxxxxxxxxxxxx |       746845 |       746845 |       746845 |xxxxxxxxxxxxx |xxxxxxxxxxxxx |xxxxxxxxxxxxx |xxxxxxxxxxxxx |      1632451 |      1632451 |      1632451 |xxxxxxxxxxxxx |xxxxxxxxxxxxx |xxxxxxxxxxxxx |xxxxxxxxxxxxx |      3429806 |      3429806 |      3429806 |xxxxxxxxxxxxx |xxxxxxxxxxxxx |xxxxxxxxxxxxx |xxxxxxxxxxxxx |      7707211 |      7707211 |      7707211 |xxxxxxxxxxxxx |xxxxxxxxxxxxx |xxxxxxxxxxxxx |xxxxxxxxxxxxx |     15936958 |     15936958 |     15936958 |xxxxxxxxxxxxx |xxxxxxxxxxxxx |xxxxxxxxxxxxx |xxxxxxxxxxxxx |     34234316 |     34234316 |     34234316 |xxxxxxxxxxxxx |xxxxxxxxxxxxx |xxxxxxxxxxxxx |xxxxxxxxxxxxx |     72873225 |     72873225 |     72873225 |xxxxxxxxxxxxx |xxxxxxxxxxxxx |xxxxxxxxxxxxx |xxxxxxxxxxxxx |    156398360 |    156398360 |    156398360 |xxxxxxxxxxxxx |xxxxxxxxxxxxx |xxxxxxxxxxxxx |xxxxxxxxxxxxx |    328600274 |    328600274 |    328600274 |
bpred_bimod.addr_hits                       111830 |       111836 |       111838 |xxxxxxxxxxxxx |xxxxxxxxxxxxx |xxxxxxxxxxxxx |xxxxxxxxxxxxx |       252537 |       252541 |       252541 |xxxxxxxxxxxxx |xxxxxxxxxxxxx |xxxxxxxxxxxxx |xxxxxxxxxxxxx |       574365 |       574369 |       574369 |xxxxxxxxxxxxx |xxxxxxxxxxxxx |xxxxxxxxxxxxx |xxxxxxxxxxxxx |      1256079 |      1256081 |      1256082 |xxxxxxxxxxxxx |xxxxxxxxxxxxx |xxxxxxxxxxxxx |xxxxxxxxxxxxx |      2686920 |      2686922 |      2686923 |xxxxxxxxxxxxx |xxxxxxxxxxxxx |xxxxxxxxxxxxx |xxxxxxxxxxxxx |      6069707 |      6069709 |      6069710 |xxxxxxxxxxxxx |xxxxxxxxxxxxx |xxxxxxxxxxxxx |xxxxxxxxxxxxx |     12382731 |     12382733 |     12382734 |xxxxxxxxxxxxx |xxxxxxxxxxxxx |xxxxxxxxxxxxx |xxxxxxxxxxxxx |     26514197 |     26514199 |     26514200 |xxxxxxxxxxxxx |xxxxxxxxxxxxx |xxxxxxxxxxxxx |xxxxxxxxxxxxx |     56199320 |     56199322 |     56199323 |xxxxxxxxxxxxx |xxxxxxxxxxxxx |xxxxxxxxxxxxx |xxxxxxxxxxxxx |    120900594 |    120900596 |    120900597 |xxxxxxxxxxxxx |xxxxxxxxxxxxx |xxxxxxxxxxxxx |xxxxxxxxxxxxx |    252806260 |    252806262 |    252806263 |
bpred_bimod.dir_hits                        111933 |       111937 |       111937 |xxxxxxxxxxxxx |xxxxxxxxxxxxx |xxxxxxxxxxxxx |xxxxxxxxxxxxx |       252638 |       252641 |       252640 |xxxxxxxxxxxxx |xxxxxxxxxxxxx |xxxxxxxxxxxxx |xxxxxxxxxxxxx |       574467 |       574470 |       574468 |xxxxxxxxxxxxx |xxxxxxxxxxxxx |xxxxxxxxxxxxx |xxxxxxxxxxxxx |      1256181 |      1256182 |      1256181 |xxxxxxxxxxxxx |xxxxxxxxxxxxx |xxxxxxxxxxxxx |xxxxxxxxxxxxx |      2687022 |      2687024 |      2687023 |xxxxxxxxxxxxx |xxxxxxxxxxxxx |xxxxxxxxxxxxx |xxxxxxxxxxxxx |      6069810 |      6069812 |      6069811 |xxxxxxxxxxxxx |xxxxxxxxxxxxx |xxxxxxxxxxxxx |xxxxxxxxxxxxx |     12382835 |     12382837 |     12382836 |xxxxxxxxxxxxx |xxxxxxxxxxxxx |xxxxxxxxxxxxx |xxxxxxxxxxxxx |     26514299 |     26514300 |     26514299 |xxxxxxxxxxxxx |xxxxxxxxxxxxx |xxxxxxxxxxxxx |xxxxxxxxxxxxx |     56199423 |     56199424 |     56199423 |xxxxxxxxxxxxx |xxxxxxxxxxxxx |xxxxxxxxxxxxx |xxxxxxxxxxxxx |    120900699 |    120900700 |    120900699 |xxxxxxxxxxxxx |xxxxxxxxxxxxx |xxxxxxxxxxxxx |xxxxxxxxxxxxx |    252806364 |    252806365 |    252806364 |
bpred_bimod.misses                           34350 |        34346 |        34346 |xxxxxxxxxxxxx |xxxxxxxxxxxxx |xxxxxxxxxxxxx |xxxxxxxxxxxxx |        75880 |        75877 |        75878 |xxxxxxxxxxxxx |xxxxxxxxxxxxx |xxxxxxxxxxxxx |xxxxxxxxxxxxx |       172378 |       172375 |       172377 |xxxxxxxxxxxxx |xxxxxxxxxxxxx |xxxxxxxxxxxxx |xxxxxxxxxxxxx |       376270 |       376269 |       376270 |xxxxxxxxxxxxx |xxxxxxxxxxxxx |xxxxxxxxxxxxx |xxxxxxxxxxxxx |       742784 |       742782 |       742783 |xxxxxxxxxxxxx |xxxxxxxxxxxxx |xxxxxxxxxxxxx |xxxxxxxxxxxxx |      1637401 |      1637399 |      1637400 |xxxxxxxxxxxxx |xxxxxxxxxxxxx |xxxxxxxxxxxxx |xxxxxxxxxxxxx |      3554123 |      3554121 |      3554122 |xxxxxxxxxxxxx |xxxxxxxxxxxxx |xxxxxxxxxxxxx |xxxxxxxxxxxxx |      7720017 |      7720016 |      7720017 |xxxxxxxxxxxxx |xxxxxxxxxxxxx |xxxxxxxxxxxxx |xxxxxxxxxxxxx |     16673802 |     16673801 |     16673802 |xxxxxxxxxxxxx |xxxxxxxxxxxxx |xxxxxxxxxxxxx |xxxxxxxxxxxxx |     35497661 |     35497660 |     35497661 |xxxxxxxxxxxxx |xxxxxxxxxxxxx |xxxxxxxxxxxxx |xxxxxxxxxxxxx |     75793910 |     75793909 |     75793910 |
bpred_bimod.jr_hits                             57 |           57 |           57 |xxxxxxxxxxxxx |xxxxxxxxxxxxx |xxxxxxxxxxxxx |xxxxxxxxxxxxx |           57 |           57 |           57 |xxxxxxxxxxxxx |xxxxxxxxxxxxx |xxxxxxxxxxxxx |xxxxxxxxxxxxx |           57 |           57 |           57 |xxxxxxxxxxxxx |xxxxxxxxxxxxx |xxxxxxxxxxxxx |xxxxxxxxxxxxx |           57 |           57 |           57 |xxxxxxxxxxxxx |xxxxxxxxxxxxx |xxxxxxxxxxxxx |xxxxxxxxxxxxx |           57 |           57 |           57 |xxxxxxxxxxxxx |xxxxxxxxxxxxx |xxxxxxxxxxxxx |xxxxxxxxxxxxx |           57 |           57 |           57 |xxxxxxxxxxxxx |xxxxxxxxxxxxx |xxxxxxxxxxxxx |xxxxxxxxxxxxx |           57 |           57 |           57 |xxxxxxxxxxxxx |xxxxxxxxxxxxx |xxxxxxxxxxxxx |xxxxxxxxxxxxx |           57 |           57 |           57 |xxxxxxxxxxxxx |xxxxxxxxxxxxx |xxxxxxxxxxxxx |xxxxxxxxxxxxx |           57 |           57 |           57 |xxxxxxxxxxxxx |xxxxxxxxxxxxx |xxxxxxxxxxxxx |xxxxxxxxxxxxx |           57 |           57 |           57 |xxxxxxxxxxxxx |xxxxxxxxxxxxx |xxxxxxxxxxxxx |xxxxxxxxxxxxx |           57 |           57 |           57 |
bpred_bimod.jr_seen                             58 |           58 |           58 |xxxxxxxxxxxxx |xxxxxxxxxxxxx |xxxxxxxxxxxxx |xxxxxxxxxxxxx |           58 |           58 |           58 |xxxxxxxxxxxxx |xxxxxxxxxxxxx |xxxxxxxxxxxxx |xxxxxxxxxxxxx |           58 |           58 |           58 |xxxxxxxxxxxxx |xxxxxxxxxxxxx |xxxxxxxxxxxxx |xxxxxxxxxxxxx |           58 |           58 |           58 |xxxxxxxxxxxxx |xxxxxxxxxxxxx |xxxxxxxxxxxxx |xxxxxxxxxxxxx |           58 |           58 |           58 |xxxxxxxxxxxxx |xxxxxxxxxxxxx |xxxxxxxxxxxxx |xxxxxxxxxxxxx |           58 |           58 |           58 |xxxxxxxxxxxxx |xxxxxxxxxxxxx |xxxxxxxxxxxxx |xxxxxxxxxxxxx |           58 |           58 |           58 |xxxxxxxxxxxxx |xxxxxxxxxxxxx |xxxxxxxxxxxxx |xxxxxxxxxxxxx |           58 |           58 |           58 |xxxxxxxxxxxxx |xxxxxxxxxxxxx |xxxxxxxxxxxxx |xxxxxxxxxxxxx |           58 |           58 |           58 |xxxxxxxxxxxxx |xxxxxxxxxxxxx |xxxxxxxxxxxxx |xxxxxxxxxxxxx |           58 |           58 |           58 |xxxxxxxxxxxxx |xxxxxxxxxxxxx |xxxxxxxxxxxxx |xxxxxxxxxxxxx |           58 |           58 |           58 |
bpred_bimod.jr_non_ras_hits.PP                   0 |            0 |            0 |xxxxxxxxxxxxx |xxxxxxxxxxxxx |xxxxxxxxxxxxx |xxxxxxxxxxxxx |            0 |            0 |            0 |xxxxxxxxxxxxx |xxxxxxxxxxxxx |xxxxxxxxxxxxx |xxxxxxxxxxxxx |            0 |            0 |            0 |xxxxxxxxxxxxx |xxxxxxxxxxxxx |xxxxxxxxxxxxx |xxxxxxxxxxxxx |            0 |            0 |            0 |xxxxxxxxxxxxx |xxxxxxxxxxxxx |xxxxxxxxxxxxx |xxxxxxxxxxxxx |            0 |            0 |            0 |xxxxxxxxxxxxx |xxxxxxxxxxxxx |xxxxxxxxxxxxx |xxxxxxxxxxxxx |            0 |            0 |            0 |xxxxxxxxxxxxx |xxxxxxxxxxxxx |xxxxxxxxxxxxx |xxxxxxxxxxxxx |            0 |            0 |            0 |xxxxxxxxxxxxx |xxxxxxxxxxxxx |xxxxxxxxxxxxx |xxxxxxxxxxxxx |            0 |            0 |            0 |xxxxxxxxxxxxx |xxxxxxxxxxxxx |xxxxxxxxxxxxx |xxxxxxxxxxxxx |            0 |            0 |            0 |xxxxxxxxxxxxx |xxxxxxxxxxxxx |xxxxxxxxxxxxx |xxxxxxxxxxxxx |            0 |            0 |            0 |xxxxxxxxxxxxx |xxxxxxxxxxxxx |xxxxxxxxxxxxx |xxxxxxxxxxxxx |            0 |            0 |            0 |
bpred_bimod.jr_non_ras_seen.PP                   0 |            0 |            0 |xxxxxxxxxxxxx |xxxxxxxxxxxxx |xxxxxxxxxxxxx |xxxxxxxxxxxxx |            0 |            0 |            0 |xxxxxxxxxxxxx |xxxxxxxxxxxxx |xxxxxxxxxxxxx |xxxxxxxxxxxxx |            0 |            0 |            0 |xxxxxxxxxxxxx |xxxxxxxxxxxxx |xxxxxxxxxxxxx |xxxxxxxxxxxxx |            0 |            0 |            0 |xxxxxxxxxxxxx |xxxxxxxxxxxxx |xxxxxxxxxxxxx |xxxxxxxxxxxxx |            0 |            0 |            0 |xxxxxxxxxxxxx |xxxxxxxxxxxxx |xxxxxxxxxxxxx |xxxxxxxxxxxxx |            0 |            0 |            0 |xxxxxxxxxxxxx |xxxxxxxxxxxxx |xxxxxxxxxxxxx |xxxxxxxxxxxxx |            0 |            0 |            0 |xxxxxxxxxxxxx |xxxxxxxxxxxxx |xxxxxxxxxxxxx |xxxxxxxxxxxxx |            0 |            0 |            0 |xxxxxxxxxxxxx |xxxxxxxxxxxxx |xxxxxxxxxxxxx |xxxxxxxxxxxxx |            0 |            0 |            0 |xxxxxxxxxxxxx |xxxxxxxxxxxxx |xxxxxxxxxxxxx |xxxxxxxxxxxxx |            0 |            0 |            0 |xxxxxxxxxxxxx |xxxxxxxxxxxxx |xxxxxxxxxxxxx |xxxxxxxxxxxxx |            0 |            0 |            0 |
bpred_bimod.bpred_addr_rate                 0.7645 |       0.7645 |       0.7645 |xxxxxxxxxxxxx |xxxxxxxxxxxxx |xxxxxxxxxxxxx |xxxxxxxxxxxxx |       0.7687 |       0.7687 |       0.7687 |xxxxxxxxxxxxx |xxxxxxxxxxxxx |xxxxxxxxxxxxx |xxxxxxxxxxxxx |       0.7691 |       0.7691 |       0.7691 |xxxxxxxxxxxxx |xxxxxxxxxxxxx |xxxxxxxxxxxxx |xxxxxxxxxxxxx |       0.7694 |       0.7694 |       0.7694 |xxxxxxxxxxxxx |xxxxxxxxxxxxx |xxxxxxxxxxxxx |xxxxxxxxxxxxx |       0.7834 |       0.7834 |       0.7834 |xxxxxxxxxxxxx |xxxxxxxxxxxxx |xxxxxxxxxxxxx |xxxxxxxxxxxxx |       0.7875 |       0.7875 |       0.7875 |xxxxxxxxxxxxx |xxxxxxxxxxxxx |xxxxxxxxxxxxx |xxxxxxxxxxxxx |       0.7770 |       0.7770 |       0.7770 |xxxxxxxxxxxxx |xxxxxxxxxxxxx |xxxxxxxxxxxxx |xxxxxxxxxxxxx |       0.7745 |       0.7745 |       0.7745 |xxxxxxxxxxxxx |xxxxxxxxxxxxx |xxxxxxxxxxxxx |xxxxxxxxxxxxx |       0.7712 |       0.7712 |       0.7712 |xxxxxxxxxxxxx |xxxxxxxxxxxxx |xxxxxxxxxxxxx |xxxxxxxxxxxxx |       0.7730 |       0.7730 |       0.7730 |xxxxxxxxxxxxx |xxxxxxxxxxxxx |xxxxxxxxxxxxx |xxxxxxxxxxxxx |       0.7693 |       0.7693 |       0.7693 |
bpred_bimod.bpred_dir_rate                  0.7652 |       0.7652 |       0.7652 |xxxxxxxxxxxxx |xxxxxxxxxxxxx |xxxxxxxxxxxxx |xxxxxxxxxxxxx |       0.7690 |       0.7690 |       0.7690 |xxxxxxxxxxxxx |xxxxxxxxxxxxx |xxxxxxxxxxxxx |xxxxxxxxxxxxx |       0.7692 |       0.7692 |       0.7692 |xxxxxxxxxxxxx |xxxxxxxxxxxxx |xxxxxxxxxxxxx |xxxxxxxxxxxxx |       0.7695 |       0.7695 |       0.7695 |xxxxxxxxxxxxx |xxxxxxxxxxxxx |xxxxxxxxxxxxx |xxxxxxxxxxxxx |       0.7834 |       0.7834 |       0.7834 |xxxxxxxxxxxxx |xxxxxxxxxxxxx |xxxxxxxxxxxxx |xxxxxxxxxxxxx |       0.7875 |       0.7875 |       0.7875 |xxxxxxxxxxxxx |xxxxxxxxxxxxx |xxxxxxxxxxxxx |xxxxxxxxxxxxx |       0.7770 |       0.7770 |       0.7770 |xxxxxxxxxxxxx |xxxxxxxxxxxxx |xxxxxxxxxxxxx |xxxxxxxxxxxxx |       0.7745 |       0.7745 |       0.7745 |xxxxxxxxxxxxx |xxxxxxxxxxxxx |xxxxxxxxxxxxx |xxxxxxxxxxxxx |       0.7712 |       0.7712 |       0.7712 |xxxxxxxxxxxxx |xxxxxxxxxxxxx |xxxxxxxxxxxxx |xxxxxxxxxxxxx |       0.7730 |       0.7730 |       0.7730 |xxxxxxxxxxxxx |xxxxxxxxxxxxx |xxxxxxxxxxxxx |xxxxxxxxxxxxx |       0.7693 |       0.7693 |       0.7693 |
bpred_bimod.bpred_jr_rate                   0.9828 |       0.9828 |       0.9828 |xxxxxxxxxxxxx |xxxxxxxxxxxxx |xxxxxxxxxxxxx |xxxxxxxxxxxxx |       0.9828 |       0.9828 |       0.9828 |xxxxxxxxxxxxx |xxxxxxxxxxxxx |xxxxxxxxxxxxx |xxxxxxxxxxxxx |       0.9828 |       0.9828 |       0.9828 |xxxxxxxxxxxxx |xxxxxxxxxxxxx |xxxxxxxxxxxxx |xxxxxxxxxxxxx |       0.9828 |       0.9828 |       0.9828 |xxxxxxxxxxxxx |xxxxxxxxxxxxx |xxxxxxxxxxxxx |xxxxxxxxxxxxx |       0.9828 |       0.9828 |       0.9828 |xxxxxxxxxxxxx |xxxxxxxxxxxxx |xxxxxxxxxxxxx |xxxxxxxxxxxxx |       0.9828 |       0.9828 |       0.9828 |xxxxxxxxxxxxx |xxxxxxxxxxxxx |xxxxxxxxxxxxx |xxxxxxxxxxxxx |       0.9828 |       0.9828 |       0.9828 |xxxxxxxxxxxxx |xxxxxxxxxxxxx |xxxxxxxxxxxxx |xxxxxxxxxxxxx |       0.9828 |       0.9828 |       0.9828 |xxxxxxxxxxxxx |xxxxxxxxxxxxx |xxxxxxxxxxxxx |xxxxxxxxxxxxx |       0.9828 |       0.9828 |       0.9828 |xxxxxxxxxxxxx |xxxxxxxxxxxxx |xxxxxxxxxxxxx |xxxxxxxxxxxxx |       0.9828 |       0.9828 |       0.9828 |xxxxxxxxxxxxx |xxxxxxxxxxxxx |xxxxxxxxxxxxx |xxxxxxxxxxxxx |       0.9828 |       0.9828 |       0.9828 |
bpred_bimod.bpred_jr_non_ras_rate.PP       <error: |      <error: |      <error: |xxxxxxxxxxxxx |xxxxxxxxxxxxx |xxxxxxxxxxxxx |xxxxxxxxxxxxx |      <error: |      <error: |      <error: |xxxxxxxxxxxxx |xxxxxxxxxxxxx |xxxxxxxxxxxxx |xxxxxxxxxxxxx |      <error: |      <error: |      <error: |xxxxxxxxxxxxx |xxxxxxxxxxxxx |xxxxxxxxxxxxx |xxxxxxxxxxxxx |      <error: |      <error: |      <error: |xxxxxxxxxxxxx |xxxxxxxxxxxxx |xxxxxxxxxxxxx |xxxxxxxxxxxxx |      <error: |      <error: |      <error: |xxxxxxxxxxxxx |xxxxxxxxxxxxx |xxxxxxxxxxxxx |xxxxxxxxxxxxx |      <error: |      <error: |      <error: |xxxxxxxxxxxxx |xxxxxxxxxxxxx |xxxxxxxxxxxxx |xxxxxxxxxxxxx |      <error: |      <error: |      <error: |xxxxxxxxxxxxx |xxxxxxxxxxxxx |xxxxxxxxxxxxx |xxxxxxxxxxxxx |      <error: |      <error: |      <error: |xxxxxxxxxxxxx |xxxxxxxxxxxxx |xxxxxxxxxxxxx |xxxxxxxxxxxxx |      <error: |      <error: |      <error: |xxxxxxxxxxxxx |xxxxxxxxxxxxx |xxxxxxxxxxxxx |xxxxxxxxxxxxx |      <error: |      <error: |      <error: |xxxxxxxxxxxxx |xxxxxxxxxxxxx |xxxxxxxxxxxxx |xxxxxxxxxxxxx |      <error: |      <error: |      <error: |
bpred_bimod.retstack_pushes                     60 |           60 |           60 |xxxxxxxxxxxxx |xxxxxxxxxxxxx |xxxxxxxxxxxxx |xxxxxxxxxxxxx |           60 |           60 |           60 |xxxxxxxxxxxxx |xxxxxxxxxxxxx |xxxxxxxxxxxxx |xxxxxxxxxxxxx |           60 |           60 |           60 |xxxxxxxxxxxxx |xxxxxxxxxxxxx |xxxxxxxxxxxxx |xxxxxxxxxxxxx |           60 |           60 |           60 |xxxxxxxxxxxxx |xxxxxxxxxxxxx |xxxxxxxxxxxxx |xxxxxxxxxxxxx |           60 |           60 |           60 |xxxxxxxxxxxxx |xxxxxxxxxxxxx |xxxxxxxxxxxxx |xxxxxxxxxxxxx |           60 |           60 |           60 |xxxxxxxxxxxxx |xxxxxxxxxxxxx |xxxxxxxxxxxxx |xxxxxxxxxxxxx |           60 |           60 |           60 |xxxxxxxxxxxxx |xxxxxxxxxxxxx |xxxxxxxxxxxxx |xxxxxxxxxxxxx |           60 |           60 |           60 |xxxxxxxxxxxxx |xxxxxxxxxxxxx |xxxxxxxxxxxxx |xxxxxxxxxxxxx |           60 |           60 |           60 |xxxxxxxxxxxxx |xxxxxxxxxxxxx |xxxxxxxxxxxxx |xxxxxxxxxxxxx |           60 |           60 |           60 |xxxxxxxxxxxxx |xxxxxxxxxxxxx |xxxxxxxxxxxxx |xxxxxxxxxxxxx |           60 |           60 |           60 |
bpred_bimod.retstack_pops                       58 |           58 |           58 |xxxxxxxxxxxxx |xxxxxxxxxxxxx |xxxxxxxxxxxxx |xxxxxxxxxxxxx |           58 |           58 |           58 |xxxxxxxxxxxxx |xxxxxxxxxxxxx |xxxxxxxxxxxxx |xxxxxxxxxxxxx |           58 |           58 |           58 |xxxxxxxxxxxxx |xxxxxxxxxxxxx |xxxxxxxxxxxxx |xxxxxxxxxxxxx |           58 |           58 |           58 |xxxxxxxxxxxxx |xxxxxxxxxxxxx |xxxxxxxxxxxxx |xxxxxxxxxxxxx |           58 |           58 |           58 |xxxxxxxxxxxxx |xxxxxxxxxxxxx |xxxxxxxxxxxxx |xxxxxxxxxxxxx |           58 |           58 |           58 |xxxxxxxxxxxxx |xxxxxxxxxxxxx |xxxxxxxxxxxxx |xxxxxxxxxxxxx |           58 |           58 |           58 |xxxxxxxxxxxxx |xxxxxxxxxxxxx |xxxxxxxxxxxxx |xxxxxxxxxxxxx |           58 |           58 |           58 |xxxxxxxxxxxxx |xxxxxxxxxxxxx |xxxxxxxxxxxxx |xxxxxxxxxxxxx |           58 |           58 |           58 |xxxxxxxxxxxxx |xxxxxxxxxxxxx |xxxxxxxxxxxxx |xxxxxxxxxxxxx |           58 |           58 |           58 |xxxxxxxxxxxxx |xxxxxxxxxxxxx |xxxxxxxxxxxxx |xxxxxxxxxxxxx |           58 |           58 |           58 |
bpred_bimod.used_ras.PP                         58 |           58 |           58 |xxxxxxxxxxxxx |xxxxxxxxxxxxx |xxxxxxxxxxxxx |xxxxxxxxxxxxx |           58 |           58 |           58 |xxxxxxxxxxxxx |xxxxxxxxxxxxx |xxxxxxxxxxxxx |xxxxxxxxxxxxx |           58 |           58 |           58 |xxxxxxxxxxxxx |xxxxxxxxxxxxx |xxxxxxxxxxxxx |xxxxxxxxxxxxx |           58 |           58 |           58 |xxxxxxxxxxxxx |xxxxxxxxxxxxx |xxxxxxxxxxxxx |xxxxxxxxxxxxx |           58 |           58 |           58 |xxxxxxxxxxxxx |xxxxxxxxxxxxx |xxxxxxxxxxxxx |xxxxxxxxxxxxx |           58 |           58 |           58 |xxxxxxxxxxxxx |xxxxxxxxxxxxx |xxxxxxxxxxxxx |xxxxxxxxxxxxx |           58 |           58 |           58 |xxxxxxxxxxxxx |xxxxxxxxxxxxx |xxxxxxxxxxxxx |xxxxxxxxxxxxx |           58 |           58 |           58 |xxxxxxxxxxxxx |xxxxxxxxxxxxx |xxxxxxxxxxxxx |xxxxxxxxxxxxx |           58 |           58 |           58 |xxxxxxxxxxxxx |xxxxxxxxxxxxx |xxxxxxxxxxxxx |xxxxxxxxxxxxx |           58 |           58 |           58 |xxxxxxxxxxxxx |xxxxxxxxxxxxx |xxxxxxxxxxxxx |xxxxxxxxxxxxx |           58 |           58 |           58 |
bpred_bimod.ras_hits.PP                         57 |           57 |           57 |xxxxxxxxxxxxx |xxxxxxxxxxxxx |xxxxxxxxxxxxx |xxxxxxxxxxxxx |           57 |           57 |           57 |xxxxxxxxxxxxx |xxxxxxxxxxxxx |xxxxxxxxxxxxx |xxxxxxxxxxxxx |           57 |           57 |           57 |xxxxxxxxxxxxx |xxxxxxxxxxxxx |xxxxxxxxxxxxx |xxxxxxxxxxxxx |           57 |           57 |           57 |xxxxxxxxxxxxx |xxxxxxxxxxxxx |xxxxxxxxxxxxx |xxxxxxxxxxxxx |           57 |           57 |           57 |xxxxxxxxxxxxx |xxxxxxxxxxxxx |xxxxxxxxxxxxx |xxxxxxxxxxxxx |           57 |           57 |           57 |xxxxxxxxxxxxx |xxxxxxxxxxxxx |xxxxxxxxxxxxx |xxxxxxxxxxxxx |           57 |           57 |           57 |xxxxxxxxxxxxx |xxxxxxxxxxxxx |xxxxxxxxxxxxx |xxxxxxxxxxxxx |           57 |           57 |           57 |xxxxxxxxxxxxx |xxxxxxxxxxxxx |xxxxxxxxxxxxx |xxxxxxxxxxxxx |           57 |           57 |           57 |xxxxxxxxxxxxx |xxxxxxxxxxxxx |xxxxxxxxxxxxx |xxxxxxxxxxxxx |           57 |           57 |           57 |xxxxxxxxxxxxx |xxxxxxxxxxxxx |xxxxxxxxxxxxx |xxxxxxxxxxxxx |           57 |           57 |           57 |
bpred_bimod.ras_rate.PP                     0.9828 |       0.9828 |       0.9828 |xxxxxxxxxxxxx |xxxxxxxxxxxxx |xxxxxxxxxxxxx |xxxxxxxxxxxxx |       0.9828 |       0.9828 |       0.9828 |xxxxxxxxxxxxx |xxxxxxxxxxxxx |xxxxxxxxxxxxx |xxxxxxxxxxxxx |       0.9828 |       0.9828 |       0.9828 |xxxxxxxxxxxxx |xxxxxxxxxxxxx |xxxxxxxxxxxxx |xxxxxxxxxxxxx |       0.9828 |       0.9828 |       0.9828 |xxxxxxxxxxxxx |xxxxxxxxxxxxx |xxxxxxxxxxxxx |xxxxxxxxxxxxx |       0.9828 |       0.9828 |       0.9828 |xxxxxxxxxxxxx |xxxxxxxxxxxxx |xxxxxxxxxxxxx |xxxxxxxxxxxxx |       0.9828 |       0.9828 |       0.9828 |xxxxxxxxxxxxx |xxxxxxxxxxxxx |xxxxxxxxxxxxx |xxxxxxxxxxxxx |       0.9828 |       0.9828 |       0.9828 |xxxxxxxxxxxxx |xxxxxxxxxxxxx |xxxxxxxxxxxxx |xxxxxxxxxxxxx |       0.9828 |       0.9828 |       0.9828 |xxxxxxxxxxxxx |xxxxxxxxxxxxx |xxxxxxxxxxxxx |xxxxxxxxxxxxx |       0.9828 |       0.9828 |       0.9828 |xxxxxxxxxxxxx |xxxxxxxxxxxxx |xxxxxxxxxxxxx |xxxxxxxxxxxxx |       0.9828 |       0.9828 |       0.9828 |xxxxxxxxxxxxx |xxxxxxxxxxxxx |xxxxxxxxxxxxx |xxxxxxxxxxxxx |       0.9828 |       0.9828 |       0.9828 |
bpred_2lev.lookups                   xxxxxxxxxxxxx |xxxxxxxxxxxxx |xxxxxxxxxxxxx |       146283 |       146283 |       146283 |       146283 |xxxxxxxxxxxxx |xxxxxxxxxxxxx |xxxxxxxxxxxxx |       328518 |       328518 |       328518 |       328518 |xxxxxxxxxxxxx |xxxxxxxxxxxxx |xxxxxxxxxxxxx |       746845 |       746845 |       746845 |       746845 |xxxxxxxxxxxxx |xxxxxxxxxxxxx |xxxxxxxxxxxxx |      1632451 |      1632451 |      1632451 |      1632451 |xxxxxxxxxxxxx |xxxxxxxxxxxxx |xxxxxxxxxxxxx |      3429806 |      3429806 |      3429806 |      3429806 |xxxxxxxxxxxxx |xxxxxxxxxxxxx |xxxxxxxxxxxxx |      7707211 |      7707211 |      7707211 |      7707211 |xxxxxxxxxxxxx |xxxxxxxxxxxxx |xxxxxxxxxxxxx |     15936958 |     15936958 |     15936958 |     15936958 |xxxxxxxxxxxxx |xxxxxxxxxxxxx |xxxxxxxxxxxxx |     34234316 |     34234316 |     34234316 |     34234316 |xxxxxxxxxxxxx |xxxxxxxxxxxxx |xxxxxxxxxxxxx |     72873225 |     72873225 |     72873225 |     72873225 |xxxxxxxxxxxxx |xxxxxxxxxxxxx |xxxxxxxxxxxxx |    156398360 |    156398360 |    156398360 |    156398360 |xxxxxxxxxxxxx |xxxxxxxxxxxxx |xxxxxxxxxxxxx |    328600274 |    328600274 |    328600274 |    328600274 |
[...]
bpred_2lev.retstack_pushes           xxxxxxxxxxxxx |xxxxxxxxxxxxx |xxxxxxxxxxxxx |           60 |           60 |           60 |           60 |xxxxxxxxxxxxx |xxxxxxxxxxxxx |xxxxxxxxxxxxx |           60 |           60 |           60 |           60 |xxxxxxxxxxxxx |xxxxxxxxxxxxx |xxxxxxxxxxxxx |           60 |           60 |           60 |           60 |xxxxxxxxxxxxx |xxxxxxxxxxxxx |xxxxxxxxxxxxx |           60 |           60 |           60 |           60 |xxxxxxxxxxxxx |xxxxxxxxxxxxx |xxxxxxxxxxxxx |           60 |           60 |           60 |           60 |xxxxxxxxxxxxx |xxxxxxxxxxxxx |xxxxxxxxxxxxx |           60 |           60 |           60 |           60 |xxxxxxxxxxxxx |xxxxxxxxxxxxx |xxxxxxxxxxxxx |           60 |           60 |           60 |           60 |xxxxxxxxxxxxx |xxxxxxxxxxxxx |xxxxxxxxxxxxx |           60 |           60 |           60 |           60 |xxxxxxxxxxxxx |xxxxxxxxxxxxx |xxxxxxxxxxxxx |           60 |           60 |           60 |           60 |xxxxxxxxxxxxx |xxxxxxxxxxxxx |xxxxxxxxxxxxx |           60 |           60 |           60 |           60 |xxxxxxxxxxxxx |xxxxxxxxxxxxx |xxxxxxxxxxxxx |           60 |           60 |           60 |           60 |
bpred_2lev.retstack_pops             xxxxxxxxxxxxx |xxxxxxxxxxxxx |xxxxxxxxxxxxx |           58 |           58 |           58 |           58 |xxxxxxxxxxxxx |xxxxxxxxxxxxx |xxxxxxxxxxxxx |           58 |           58 |           58 |           58 |xxxxxxxxxxxxx |xxxxxxxxxxxxx |xxxxxxxxxxxxx |           58 |           58 |           58 |           58 |xxxxxxxxxxxxx |xxxxxxxxxxxxx |xxxxxxxxxxxxx |           58 |           58 |           58 |           58 |xxxxxxxxxxxxx |xxxxxxxxxxxxx |xxxxxxxxxxxxx |           58 |           58 |           58 |           58 |xxxxxxxxxxxxx |xxxxxxxxxxxxx |xxxxxxxxxxxxx |           58 |           58 |           58 |           58 |xxxxxxxxxxxxx |xxxxxxxxxxxxx |xxxxxxxxxxxxx |           58 |           58 |           58 |           58 |xxxxxxxxxxxxx |xxxxxxxxxxxxx |xxxxxxxxxxxxx |           58 |           58 |           58 |           58 |xxxxxxxxxxxxx |xxxxxxxxxxxxx |xxxxxxxxxxxxx |           58 |           58 |           58 |           58 |xxxxxxxxxxxxx |xxxxxxxxxxxxx |xxxxxxxxxxxxx |           58 |           58 |           58 |           58 |xxxxxxxxxxxxx |xxxxxxxxxxxxx |xxxxxxxxxxxxx |           58 |           58 |           58 |           58 |
bpred_2lev.used_ras.PP               xxxxxxxxxxxxx |xxxxxxxxxxxxx |xxxxxxxxxxxxx |           58 |           58 |           58 |           58 |xxxxxxxxxxxxx |xxxxxxxxxxxxx |xxxxxxxxxxxxx |           58 |           58 |           58 |           58 |xxxxxxxxxxxxx |xxxxxxxxxxxxx |xxxxxxxxxxxxx |           58 |           58 |           58 |           58 |xxxxxxxxxxxxx |xxxxxxxxxxxxx |xxxxxxxxxxxxx |           58 |           58 |           58 |           58 |xxxxxxxxxxxxx |xxxxxxxxxxxxx |xxxxxxxxxxxxx |           58 |           58 |           58 |           58 |xxxxxxxxxxxxx |xxxxxxxxxxxxx |xxxxxxxxxxxxx |           58 |           58 |           58 |           58 |xxxxxxxxxxxxx |xxxxxxxxxxxxx |xxxxxxxxxxxxx |           58 |           58 |           58 |           58 |xxxxxxxxxxxxx |xxxxxxxxxxxxx |xxxxxxxxxxxxx |           58 |           58 |           58 |           58 |xxxxxxxxxxxxx |xxxxxxxxxxxxx |xxxxxxxxxxxxx |           58 |           58 |           58 |           58 |xxxxxxxxxxxxx |xxxxxxxxxxxxx |xxxxxxxxxxxxx |           58 |           58 |           58 |           58 |xxxxxxxxxxxxx |xxxxxxxxxxxxx |xxxxxxxxxxxxx |           58 |           58 |           58 |           58 |
bpred_2lev.ras_hits.PP               xxxxxxxxxxxxx |xxxxxxxxxxxxx |xxxxxxxxxxxxx |           57 |           57 |           57 |           57 |xxxxxxxxxxxxx |xxxxxxxxxxxxx |xxxxxxxxxxxxx |           57 |           57 |           57 |           57 |xxxxxxxxxxxxx |xxxxxxxxxxxxx |xxxxxxxxxxxxx |           57 |           57 |           57 |           57 |xxxxxxxxxxxxx |xxxxxxxxxxxxx |xxxxxxxxxxxxx |           57 |           57 |           57 |           57 |xxxxxxxxxxxxx |xxxxxxxxxxxxx |xxxxxxxxxxxxx |           57 |           57 |           57 |           57 |xxxxxxxxxxxxx |xxxxxxxxxxxxx |xxxxxxxxxxxxx |           57 |           57 |           57 |           57 |xxxxxxxxxxxxx |xxxxxxxxxxxxx |xxxxxxxxxxxxx |           57 |           57 |           57 |           57 |xxxxxxxxxxxxx |xxxxxxxxxxxxx |xxxxxxxxxxxxx |           57 |           57 |           57 |           57 |xxxxxxxxxxxxx |xxxxxxxxxxxxx |xxxxxxxxxxxxx |           57 |           57 |           57 |           57 |xxxxxxxxxxxxx |xxxxxxxxxxxxx |xxxxxxxxxxxxx |           57 |           57 |           57 |           57 |xxxxxxxxxxxxx |xxxxxxxxxxxxx |xxxxxxxxxxxxx |           57 |           57 |           57 |           57 |
bpred_2lev.ras_rate.PP               xxxxxxxxxxxxx |xxxxxxxxxxxxx |xxxxxxxxxxxxx |       0.9828 |       0.9828 |       0.9828 |       0.9828 |xxxxxxxxxxxxx |xxxxxxxxxxxxx |xxxxxxxxxxxxx |       0.9828 |       0.9828 |       0.9828 |       0.9828 |xxxxxxxxxxxxx |xxxxxxxxxxxxx |xxxxxxxxxxxxx |       0.9828 |       0.9828 |       0.9828 |       0.9828 |xxxxxxxxxxxxx |xxxxxxxxxxxxx |xxxxxxxxxxxxx |       0.9828 |       0.9828 |       0.9828 |       0.9828 |xxxxxxxxxxxxx |xxxxxxxxxxxxx |xxxxxxxxxxxxx |       0.9828 |       0.9828 |       0.9828 |       0.9828 |xxxxxxxxxxxxx |xxxxxxxxxxxxx |xxxxxxxxxxxxx |       0.9828 |       0.9828 |       0.9828 |       0.9828 |xxxxxxxxxxxxx |xxxxxxxxxxxxx |xxxxxxxxxxxxx |       0.9828 |       0.9828 |       0.9828 |       0.9828 |xxxxxxxxxxxxx |xxxxxxxxxxxxx |xxxxxxxxxxxxx |       0.9828 |       0.9828 |       0.9828 |       0.9828 |xxxxxxxxxxxxx |xxxxxxxxxxxxx |xxxxxxxxxxxxx |       0.9828 |       0.9828 |       0.9828 |       0.9828 |xxxxxxxxxxxxx |xxxxxxxxxxxxx |xxxxxxxxxxxxx |       0.9828 |       0.9828 |       0.9828 |       0.9828 |xxxxxxxxxxxxx |xxxxxxxxxxxxx |xxxxxxxxxxxxx |       0.9828 |       0.9828 |       0.9828 |       0.9828 |

Command list: 
	sslittle-na-sstrix-gcc -Wall -O3 -funroll-loops -finline-functions  -DRANDOM_SIZE=4096 -DOFFSET=6 -DSORT=improved_shellsort sorts/improved_shellsort2075029998.c simpleMain.c -o improved_shellsort1020379200
	sim-cache -cache:dl1 dl1:256:32:1:l -cache:dl2 dl2:131072:32:1:l -cache:il1 il1:256:32:1:l -cache:il2 dl2 improved_shellsort1020379200
	sim-cache -cache:dl1 dl1:256:32:1:l -cache:dl2 dl2:65536:32:1:l -cache:il1 il1:256:32:1:l -cache:il2 dl2 improved_shellsort1020379200
	sim-cache -cache:dl1 dl1:1:32:256:l -cache:dl2 dl2:1:32:131072:l -cache:il1 il1:1:32:256:l -cache:il2 dl2 improved_shellsort1020379200
	sim-cache -cache:dl1 dl1:1:32:256:l -cache:dl2 dl2:1:32:65536:l -cache:il1 il1:1:32:256:l -cache:il2 dl2 improved_shellsort1020379200
	sim-bpred -bpred bimod -bpred:bimod 512 improved_shellsort1020379200
	sim-bpred -bpred bimod -bpred:bimod 1024 improved_shellsort1020379200
	sim-bpred -bpred bimod -bpred:bimod 2048 improved_shellsort1020379200
	sim-bpred -bpred 2lev -bpred:2lev 1 512 10 1 improved_shellsort1020379200
	sim-bpred -bpred 2lev -bpred:2lev 1 1024 10 1 improved_shellsort1020379200
	sim-bpred -bpred 2lev -bpred:2lev 1 2048 10 1 improved_shellsort1020379200
	sim-bpred -bpred 2lev -bpred:2lev 1 4096 10 1 improved_shellsort1020379200
	sslittle-na-sstrix-gcc -Wall -O3 -funroll-loops -finline-functions  -DRANDOM_SIZE=8192 -DOFFSET=6 -DSORT=improved_shellsort sorts/improved_shellsort2075029998.c simpleMain.c -o improved_shellsort1020379200
	sim-cache -cache:dl1 dl1:256:32:1:l -cache:dl2 dl2:131072:32:1:l -cache:il1 il1:256:32:1:l -cache:il2 dl2 improved_shellsort1020379200
	sim-cache -cache:dl1 dl1:256:32:1:l -cache:dl2 dl2:65536:32:1:l -cache:il1 il1:256:32:1:l -cache:il2 dl2 improved_shellsort1020379200
	sim-cache -cache:dl1 dl1:1:32:256:l -cache:dl2 dl2:1:32:131072:l -cache:il1 il1:1:32:256:l -cache:il2 dl2 improved_shellsort1020379200
	sim-cache -cache:dl1 dl1:1:32:256:l -cache:dl2 dl2:1:32:65536:l -cache:il1 il1:1:32:256:l -cache:il2 dl2 improved_shellsort1020379200
	sim-bpred -bpred bimod -bpred:bimod 512 improved_shellsort1020379200
	sim-bpred -bpred bimod -bpred:bimod 1024 improved_shellsort1020379200
	sim-bpred -bpred bimod -bpred:bimod 2048 improved_shellsort1020379200
	sim-bpred -bpred 2lev -bpred:2lev 1 512 10 1 improved_shellsort1020379200
	sim-bpred -bpred 2lev -bpred:2lev 1 1024 10 1 improved_shellsort1020379200
	sim-bpred -bpred 2lev -bpred:2lev 1 2048 10 1 improved_shellsort1020379200
	sim-bpred -bpred 2lev -bpred:2lev 1 4096 10 1 improved_shellsort1020379200
	sslittle-na-sstrix-gcc -Wall -O3 -funroll-loops -finline-functions  -DRANDOM_SIZE=16384 -DOFFSET=6 -DSORT=improved_shellsort sorts/improved_shellsort2075029998.c simpleMain.c -o improved_shellsort1020379200
	sim-cache -cache:dl1 dl1:256:32:1:l -cache:dl2 dl2:131072:32:1:l -cache:il1 il1:256:32:1:l -cache:il2 dl2 improved_shellsort1020379200
	sim-cache -cache:dl1 dl1:256:32:1:l -cache:dl2 dl2:65536:32:1:l -cache:il1 il1:256:32:1:l -cache:il2 dl2 improved_shellsort1020379200
	sim-cache -cache:dl1 dl1:1:32:256:l -cache:dl2 dl2:1:32:131072:l -cache:il1 il1:1:32:256:l -cache:il2 dl2 improved_shellsort1020379200
	sim-cache -cache:dl1 dl1:1:32:256:l -cache:dl2 dl2:1:32:65536:l -cache:il1 il1:1:32:256:l -cache:il2 dl2 improved_shellsort1020379200
	sim-bpred -bpred bimod -bpred:bimod 512 improved_shellsort1020379200
	sim-bpred -bpred bimod -bpred:bimod 1024 improved_shellsort1020379200
	sim-bpred -bpred bimod -bpred:bimod 2048 improved_shellsort1020379200
	sim-bpred -bpred 2lev -bpred:2lev 1 512 10 1 improved_shellsort1020379200
	sim-bpred -bpred 2lev -bpred:2lev 1 1024 10 1 improved_shellsort1020379200
	sim-bpred -bpred 2lev -bpred:2lev 1 2048 10 1 improved_shellsort1020379200
	sim-bpred -bpred 2lev -bpred:2lev 1 4096 10 1 improved_shellsort1020379200
	sslittle-na-sstrix-gcc -Wall -O3 -funroll-loops -finline-functions  -DRANDOM_SIZE=32768 -DOFFSET=6 -DSORT=improved_shellsort sorts/improved_shellsort2075029998.c simpleMain.c -o improved_shellsort1020379200
	sim-cache -cache:dl1 dl1:256:32:1:l -cache:dl2 dl2:131072:32:1:l -cache:il1 il1:256:32:1:l -cache:il2 dl2 improved_shellsort1020379200
	sim-cache -cache:dl1 dl1:256:32:1:l -cache:dl2 dl2:65536:32:1:l -cache:il1 il1:256:32:1:l -cache:il2 dl2 improved_shellsort1020379200
	sim-cache -cache:dl1 dl1:1:32:256:l -cache:dl2 dl2:1:32:131072:l -cache:il1 il1:1:32:256:l -cache:il2 dl2 improved_shellsort1020379200
	sim-cache -cache:dl1 dl1:1:32:256:l -cache:dl2 dl2:1:32:65536:l -cache:il1 il1:1:32:256:l -cache:il2 dl2 improved_shellsort1020379200
	sim-bpred -bpred bimod -bpred:bimod 512 improved_shellsort1020379200
	sim-bpred -bpred bimod -bpred:bimod 1024 improved_shellsort1020379200
	sim-bpred -bpred bimod -bpred:bimod 2048 improved_shellsort1020379200
	sim-bpred -bpred 2lev -bpred:2lev 1 512 10 1 improved_shellsort1020379200
	sim-bpred -bpred 2lev -bpred:2lev 1 1024 10 1 improved_shellsort1020379200
	sim-bpred -bpred 2lev -bpred:2lev 1 2048 10 1 improved_shellsort1020379200
	sim-bpred -bpred 2lev -bpred:2lev 1 4096 10 1 improved_shellsort1020379200
	sslittle-na-sstrix-gcc -Wall -O3 -funroll-loops -finline-functions  -DRANDOM_SIZE=65536 -DOFFSET=6 -DSORT=improved_shellsort sorts/improved_shellsort2075029998.c simpleMain.c -o improved_shellsort1020379200
	sim-cache -cache:dl1 dl1:256:32:1:l -cache:dl2 dl2:131072:32:1:l -cache:il1 il1:256:32:1:l -cache:il2 dl2 improved_shellsort1020379200
	sim-cache -cache:dl1 dl1:256:32:1:l -cache:dl2 dl2:65536:32:1:l -cache:il1 il1:256:32:1:l -cache:il2 dl2 improved_shellsort1020379200
	sim-cache -cache:dl1 dl1:1:32:256:l -cache:dl2 dl2:1:32:131072:l -cache:il1 il1:1:32:256:l -cache:il2 dl2 improved_shellsort1020379200
	sim-cache -cache:dl1 dl1:1:32:256:l -cache:dl2 dl2:1:32:65536:l -cache:il1 il1:1:32:256:l -cache:il2 dl2 improved_shellsort1020379200
	sim-bpred -bpred bimod -bpred:bimod 512 improved_shellsort1020379200
	sim-bpred -bpred bimod -bpred:bimod 1024 improved_shellsort1020379200
	sim-bpred -bpred bimod -bpred:bimod 2048 improved_shellsort1020379200
	sim-bpred -bpred 2lev -bpred:2lev 1 512 10 1 improved_shellsort1020379200
	sim-bpred -bpred 2lev -bpred:2lev 1 1024 10 1 improved_shellsort1020379200
	sim-bpred -bpred 2lev -bpred:2lev 1 2048 10 1 improved_shellsort1020379200
	sim-bpred -bpred 2lev -bpred:2lev 1 4096 10 1 improved_shellsort1020379200
	sslittle-na-sstrix-gcc -Wall -O3 -funroll-loops -finline-functions  -DRANDOM_SIZE=131072 -DOFFSET=6 -DSORT=improved_shellsort sorts/improved_shellsort2075029998.c simpleMain.c -o improved_shellsort1020379200
	sim-cache -cache:dl1 dl1:256:32:1:l -cache:dl2 dl2:131072:32:1:l -cache:il1 il1:256:32:1:l -cache:il2 dl2 improved_shellsort1020379200
	sim-cache -cache:dl1 dl1:256:32:1:l -cache:dl2 dl2:65536:32:1:l -cache:il1 il1:256:32:1:l -cache:il2 dl2 improved_shellsort1020379200
	sim-cache -cache:dl1 dl1:1:32:256:l -cache:dl2 dl2:1:32:131072:l -cache:il1 il1:1:32:256:l -cache:il2 dl2 improved_shellsort1020379200
	sim-cache -cache:dl1 dl1:1:32:256:l -cache:dl2 dl2:1:32:65536:l -cache:il1 il1:1:32:256:l -cache:il2 dl2 improved_shellsort1020379200
	sim-bpred -bpred bimod -bpred:bimod 512 improved_shellsort1020379200
	sim-bpred -bpred bimod -bpred:bimod 1024 improved_shellsort1020379200
	sim-bpred -bpred bimod -bpred:bimod 2048 improved_shellsort1020379200
	sim-bpred -bpred 2lev -bpred:2lev 1 512 10 1 improved_shellsort1020379200
	sim-bpred -bpred 2lev -bpred:2lev 1 1024 10 1 improved_shellsort1020379200
	sim-bpred -bpred 2lev -bpred:2lev 1 2048 10 1 improved_shellsort1020379200
	sim-bpred -bpred 2lev -bpred:2lev 1 4096 10 1 improved_shellsort1020379200
	sslittle-na-sstrix-gcc -Wall -O3 -funroll-loops -finline-functions  -DRANDOM_SIZE=262144 -DOFFSET=6 -DSORT=improved_shellsort sorts/improved_shellsort2075029998.c simpleMain.c -o improved_shellsort1020379200
	sim-cache -cache:dl1 dl1:256:32:1:l -cache:dl2 dl2:131072:32:1:l -cache:il1 il1:256:32:1:l -cache:il2 dl2 improved_shellsort1020379200
	sim-cache -cache:dl1 dl1:256:32:1:l -cache:dl2 dl2:65536:32:1:l -cache:il1 il1:256:32:1:l -cache:il2 dl2 improved_shellsort1020379200
	sim-cache -cache:dl1 dl1:1:32:256:l -cache:dl2 dl2:1:32:131072:l -cache:il1 il1:1:32:256:l -cache:il2 dl2 improved_shellsort1020379200
	sim-cache -cache:dl1 dl1:1:32:256:l -cache:dl2 dl2:1:32:65536:l -cache:il1 il1:1:32:256:l -cache:il2 dl2 improved_shellsort1020379200
	sim-bpred -bpred bimod -bpred:bimod 512 improved_shellsort1020379200
	sim-bpred -bpred bimod -bpred:bimod 1024 improved_shellsort1020379200
	sim-bpred -bpred bimod -bpred:bimod 2048 improved_shellsort1020379200
	sim-bpred -bpred 2lev -bpred:2lev 1 512 10 1 improved_shellsort1020379200
	sim-bpred -bpred 2lev -bpred:2lev 1 1024 10 1 improved_shellsort1020379200
	sim-bpred -bpred 2lev -bpred:2lev 1 2048 10 1 improved_shellsort1020379200
	sim-bpred -bpred 2lev -bpred:2lev 1 4096 10 1 improved_shellsort1020379200
	sslittle-na-sstrix-gcc -Wall -O3 -funroll-loops -finline-functions  -DRANDOM_SIZE=524288 -DOFFSET=6 -DSORT=improved_shellsort sorts/improved_shellsort2075029998.c simpleMain.c -o improved_shellsort1020379200
	sim-cache -cache:dl1 dl1:256:32:1:l -cache:dl2 dl2:131072:32:1:l -cache:il1 il1:256:32:1:l -cache:il2 dl2 improved_shellsort1020379200
	sim-cache -cache:dl1 dl1:256:32:1:l -cache:dl2 dl2:65536:32:1:l -cache:il1 il1:256:32:1:l -cache:il2 dl2 improved_shellsort1020379200
	sim-cache -cache:dl1 dl1:1:32:256:l -cache:dl2 dl2:1:32:131072:l -cache:il1 il1:1:32:256:l -cache:il2 dl2 improved_shellsort1020379200
	sim-cache -cache:dl1 dl1:1:32:256:l -cache:dl2 dl2:1:32:65536:l -cache:il1 il1:1:32:256:l -cache:il2 dl2 improved_shellsort1020379200
	sim-bpred -bpred bimod -bpred:bimod 512 improved_shellsort1020379200
	sim-bpred -bpred bimod -bpred:bimod 1024 improved_shellsort1020379200
	sim-bpred -bpred bimod -bpred:bimod 2048 improved_shellsort1020379200
	sim-bpred -bpred 2lev -bpred:2lev 1 512 10 1 improved_shellsort1020379200
	sim-bpred -bpred 2lev -bpred:2lev 1 1024 10 1 improved_shellsort1020379200
	sim-bpred -bpred 2lev -bpred:2lev 1 2048 10 1 improved_shellsort1020379200
	sim-bpred -bpred 2lev -bpred:2lev 1 4096 10 1 improved_shellsort1020379200
	sslittle-na-sstrix-gcc -Wall -O3 -funroll-loops -finline-functions  -DRANDOM_SIZE=1048576 -DOFFSET=6 -DSORT=improved_shellsort sorts/improved_shellsort2075029998.c simpleMain.c -o improved_shellsort1020379200
	sim-cache -cache:dl1 dl1:256:32:1:l -cache:dl2 dl2:131072:32:1:l -cache:il1 il1:256:32:1:l -cache:il2 dl2 improved_shellsort1020379200
	sim-cache -cache:dl1 dl1:256:32:1:l -cache:dl2 dl2:65536:32:1:l -cache:il1 il1:256:32:1:l -cache:il2 dl2 improved_shellsort1020379200
	sim-cache -cache:dl1 dl1:1:32:256:l -cache:dl2 dl2:1:32:131072:l -cache:il1 il1:1:32:256:l -cache:il2 dl2 improved_shellsort1020379200
	sim-cache -cache:dl1 dl1:1:32:256:l -cache:dl2 dl2:1:32:65536:l -cache:il1 il1:1:32:256:l -cache:il2 dl2 improved_shellsort1020379200
	sim-bpred -bpred bimod -bpred:bimod 512 improved_shellsort1020379200
	sim-bpred -bpred bimod -bpred:bimod 1024 improved_shellsort1020379200
	sim-bpred -bpred bimod -bpred:bimod 2048 improved_shellsort1020379200
	sim-bpred -bpred 2lev -bpred:2lev 1 512 10 1 improved_shellsort1020379200
	sim-bpred -bpred 2lev -bpred:2lev 1 1024 10 1 improved_shellsort1020379200
	sim-bpred -bpred 2lev -bpred:2lev 1 2048 10 1 improved_shellsort1020379200
	sim-bpred -bpred 2lev -bpred:2lev 1 4096 10 1 improved_shellsort1020379200
	sslittle-na-sstrix-gcc -Wall -O3 -funroll-loops -finline-functions  -DRANDOM_SIZE=2097152 -DOFFSET=6 -DSORT=improved_shellsort sorts/improved_shellsort2075029998.c simpleMain.c -o improved_shellsort1020379200
	sim-cache -cache:dl1 dl1:256:32:1:l -cache:dl2 dl2:131072:32:1:l -cache:il1 il1:256:32:1:l -cache:il2 dl2 improved_shellsort1020379200
	sim-cache -cache:dl1 dl1:256:32:1:l -cache:dl2 dl2:65536:32:1:l -cache:il1 il1:256:32:1:l -cache:il2 dl2 improved_shellsort1020379200
	sim-cache -cache:dl1 dl1:1:32:256:l -cache:dl2 dl2:1:32:131072:l -cache:il1 il1:1:32:256:l -cache:il2 dl2 improved_shellsort1020379200
	sim-cache -cache:dl1 dl1:1:32:256:l -cache:dl2 dl2:1:32:65536:l -cache:il1 il1:1:32:256:l -cache:il2 dl2 improved_shellsort1020379200
	sim-bpred -bpred bimod -bpred:bimod 512 improved_shellsort1020379200
	sim-bpred -bpred bimod -bpred:bimod 1024 improved_shellsort1020379200
	sim-bpred -bpred bimod -bpred:bimod 2048 improved_shellsort1020379200
	sim-bpred -bpred 2lev -bpred:2lev 1 512 10 1 improved_shellsort1020379200
	sim-bpred -bpred 2lev -bpred:2lev 1 1024 10 1 improved_shellsort1020379200
	sim-bpred -bpred 2lev -bpred:2lev 1 2048 10 1 improved_shellsort1020379200
	sim-bpred -bpred 2lev -bpred:2lev 1 4096 10 1 improved_shellsort1020379200
	sslittle-na-sstrix-gcc -Wall -O3 -funroll-loops -finline-functions  -DRANDOM_SIZE=4194304 -DOFFSET=6 -DSORT=improved_shellsort sorts/improved_shellsort2075029998.c simpleMain.c -o improved_shellsort1020379200
	sim-cache -cache:dl1 dl1:256:32:1:l -cache:dl2 dl2:131072:32:1:l -cache:il1 il1:256:32:1:l -cache:il2 dl2 improved_shellsort1020379200
	sim-cache -cache:dl1 dl1:256:32:1:l -cache:dl2 dl2:65536:32:1:l -cache:il1 il1:256:32:1:l -cache:il2 dl2 improved_shellsort1020379200
	sim-cache -cache:dl1 dl1:1:32:256:l -cache:dl2 dl2:1:32:131072:l -cache:il1 il1:1:32:256:l -cache:il2 dl2 improved_shellsort1020379200
	sim-cache -cache:dl1 dl1:1:32:256:l -cache:dl2 dl2:1:32:65536:l -cache:il1 il1:1:32:256:l -cache:il2 dl2 improved_shellsort1020379200
	sim-bpred -bpred bimod -bpred:bimod 512 improved_shellsort1020379200
	sim-bpred -bpred bimod -bpred:bimod 1024 improved_shellsort1020379200
	sim-bpred -bpred bimod -bpred:bimod 2048 improved_shellsort1020379200
	sim-bpred -bpred 2lev -bpred:2lev 1 512 10 1 improved_shellsort1020379200
	sim-bpred -bpred 2lev -bpred:2lev 1 1024 10 1 improved_shellsort1020379200
	sim-bpred -bpred 2lev -bpred:2lev 1 2048 10 1 improved_shellsort1020379200
	sim-bpred -bpred 2lev -bpred:2lev 1 4096 10 1 improved_shellsort1020379200
