Wed Jun 15 01:49:17 2005
Run as: "./simple -c random.org0 -o 0 improved_shellsort"
-------------------------------------------------------------------------------------------------
sim-cache                                     4096 |         4096 |         4096 |         4096 |         8192 |         8192 |         8192 |         8192 |        16384 |        16384 |        16384 |        16384 |        32768 |        32768 |        32768 |        32768 |        65536 |        65536 |        65536 |        65536 |       131072 |       131072 |       131072 |       131072 |       262144 |       262144 |       262144 |       262144 |       524288 |       524288 |       524288 |       524288 |      1048576 |      1048576 |      1048576 |      1048576 |      2097152 |      2097152 |      2097152 |      2097152 |      4194304 |      4194304 |      4194304 |      4194304 |
-cache:dl1 dl1:256:32:1:l -cache:dl2 dl2:131072:32:1:l -cache:il1 il1:256:32:1:l -cache:il2 dl2
-cache:dl1 dl1:256:32:1:l -cache:dl2 dl2:65536:32:1:l -cache:il1 il1:256:32:1:l -cache:il2 dl2
-cache:dl1 dl1:1:32:256:l -cache:dl2 dl2:1:32:131072:l -cache:il1 il1:1:32:256:l -cache:il2 dl2
-cache:dl1 dl1:1:32:256:l -cache:dl2 dl2:1:32:65536:l -cache:il1 il1:1:32:256:l -cache:il2 dl2
-------------------------------------------------------------------------------------------------
sim_num_insn                                900377 |       900377 |       900377 |       900377 |      1994122 |      1994122 |      1994122 |      1994122 |      4560763 |      4560763 |      4560763 |      4560763 |      9957174 |      9957174 |      9957174 |      9957174 |     21249014 |     21249014 |     21249014 |     21249014 |     47393605 |     47393605 |     47393605 |     47393605 |     97501842 |     97501842 |     97501842 |     97501842 |    209547703 |    209547703 |    209547703 |    209547703 |    444461541 |    444461541 |    444461541 |    444461541 |    954673919 |    954673919 |    954673919 |    954673919 |   1992981168 |   1992981168 |   1992981168 |   1992981168 |
sim_num_refs                                193125 |       193125 |       193125 |       193125 |       418866 |       418866 |       418866 |       418866 |       920935 |       920935 |       920935 |       920935 |      1990489 |      1990489 |      1990489 |      1990489 |      4627428 |      4627428 |      4627428 |      4627428 |     10147317 |     10147317 |     10147317 |     10147317 |     20104984 |     20104984 |     20104984 |     20104984 |     42528778 |     42528778 |     42528778 |     42528778 |     88487040 |     88487040 |     88487040 |     88487040 |    191038011 |    191038011 |    191038011 |    191038011 |    386093566 |    386093566 |    386093566 |    386093566 |
sim_elapsed_time                                 1 |            1 |            7 |            3 |            1 |            1 |            9 |            5 |            2 |            1 |           16 |            8 |            3 |            3 |           27 |           15 |            5 |            6 |           51 |           27 |           13 |           12 |           95 |           51 |           25 |           25 |          178 |           91 |           54 |           53 |          314 |          142 |          114 |          114 |          462 |          210 |          245 |          246 |          612 |          359 |          511 |          510 |          909 |          655 |
sim_inst_rate                          900377.0000 |  900377.0000 |  128625.2857 |  300125.6667 | 1994122.0000 | 1994122.0000 |  221569.1111 |  398824.4000 | 2280381.5000 | 4560763.0000 |  285047.6875 |  570095.3750 | 3319058.0000 | 3319058.0000 |  368784.2222 |  663811.6000 | 4249802.8000 | 3541502.3333 |  416647.3333 |  787000.5185 | 3645661.9231 | 3949467.0833 |  498880.0526 |  929286.3725 | 3900073.6800 | 3900073.6800 |  547763.1573 | 1071448.8132 | 3880513.0185 | 3953730.2453 |  667349.3726 | 1475688.0493 | 3898785.4474 | 3898785.4474 |  962037.9675 | 2116483.5286 | 3896628.2408 | 3880788.2886 | 1559924.7042 | 2659258.8273 | 3900158.8415 | 3907806.2118 | 2192498.5347 | 3042719.3405 |
il1.accesses                                900377 |       900377 |       900377 |       900377 |      1994122 |      1994122 |      1994122 |      1994122 |      4560763 |      4560763 |      4560763 |      4560763 |      9957174 |      9957174 |      9957174 |      9957174 |     21249014 |     21249014 |     21249014 |     21249014 |     47393605 |     47393605 |     47393605 |     47393605 |     97501842 |     97501842 |     97501842 |     97501842 |    209547703 |    209547703 |    209547703 |    209547703 |    444461541 |    444461541 |    444461541 |    444461541 |    954673919 |    954673919 |    954673919 |    954673919 |   1992981168 |   1992981168 |   1992981168 |   1992981168 |
il1.hits                                    899963 |       899963 |       900017 |       900017 |      1993709 |      1993709 |      1993763 |      1993763 |      4560339 |      4560339 |      4560399 |      4560399 |      9956758 |      9956758 |      9956812 |      9956812 |     21248598 |     21248598 |     21248652 |     21248652 |     47393189 |     47393189 |     47393243 |     47393243 |     97501426 |     97501426 |     97501480 |     97501480 |    209547287 |    209547287 |    209547341 |    209547341 |    444461125 |    444461125 |    444461179 |    444461179 |    954673503 |    954673503 |    954673557 |    954673557 |   1992980752 |   1992980752 |   1992980806 |   1992980806 |
il1.misses                                     414 |          414 |          360 |          360 |          413 |          413 |          359 |          359 |          424 |          424 |          364 |          364 |          416 |          416 |          362 |          362 |          416 |          416 |          362 |          362 |          416 |          416 |          362 |          362 |          416 |          416 |          362 |          362 |          416 |          416 |          362 |          362 |          416 |          416 |          362 |          362 |          416 |          416 |          362 |          362 |          416 |          416 |          362 |          362 |
il1.replacements                               206 |          206 |          104 |          104 |          205 |          205 |          103 |          103 |          211 |          211 |          108 |          108 |          206 |          206 |          106 |          106 |          206 |          206 |          106 |          106 |          206 |          206 |          106 |          106 |          206 |          206 |          106 |          106 |          206 |          206 |          106 |          106 |          206 |          206 |          106 |          106 |          206 |          206 |          106 |          106 |          206 |          206 |          106 |          106 |
il1.writebacks                                   0 |            0 |            0 |            0 |            0 |            0 |            0 |            0 |            0 |            0 |            0 |            0 |            0 |            0 |            0 |            0 |            0 |            0 |            0 |            0 |            0 |            0 |            0 |            0 |            0 |            0 |            0 |            0 |            0 |            0 |            0 |            0 |            0 |            0 |            0 |            0 |            0 |            0 |            0 |            0 |            0 |            0 |            0 |            0 |
il1.invalidations                                0 |            0 |            0 |            0 |            0 |            0 |            0 |            0 |            0 |            0 |            0 |            0 |            0 |            0 |            0 |            0 |            0 |            0 |            0 |            0 |            0 |            0 |            0 |            0 |            0 |            0 |            0 |            0 |            0 |            0 |            0 |            0 |            0 |            0 |            0 |            0 |            0 |            0 |            0 |            0 |            0 |            0 |            0 |            0 |
il1.miss_rate                               0.0005 |       0.0005 |       0.0004 |       0.0004 |       0.0002 |       0.0002 |       0.0002 |       0.0002 |       0.0001 |       0.0001 |       0.0001 |       0.0001 |       0.0000 |       0.0000 |       0.0000 |       0.0000 |       0.0000 |       0.0000 |       0.0000 |       0.0000 |       0.0000 |       0.0000 |       0.0000 |       0.0000 |       0.0000 |       0.0000 |       0.0000 |       0.0000 |       0.0000 |       0.0000 |       0.0000 |       0.0000 |       0.0000 |       0.0000 |       0.0000 |       0.0000 |       0.0000 |       0.0000 |       0.0000 |       0.0000 |       0.0000 |       0.0000 |       0.0000 |       0.0000 |
il1.repl_rate                               0.0002 |       0.0002 |       0.0001 |       0.0001 |       0.0001 |       0.0001 |       0.0001 |       0.0001 |       0.0000 |       0.0000 |       0.0000 |       0.0000 |       0.0000 |       0.0000 |       0.0000 |       0.0000 |       0.0000 |       0.0000 |       0.0000 |       0.0000 |       0.0000 |       0.0000 |       0.0000 |       0.0000 |       0.0000 |       0.0000 |       0.0000 |       0.0000 |       0.0000 |       0.0000 |       0.0000 |       0.0000 |       0.0000 |       0.0000 |       0.0000 |       0.0000 |       0.0000 |       0.0000 |       0.0000 |       0.0000 |       0.0000 |       0.0000 |       0.0000 |       0.0000 |
il1.wb_rate                                 0.0000 |       0.0000 |       0.0000 |       0.0000 |       0.0000 |       0.0000 |       0.0000 |       0.0000 |       0.0000 |       0.0000 |       0.0000 |       0.0000 |       0.0000 |       0.0000 |       0.0000 |       0.0000 |       0.0000 |       0.0000 |       0.0000 |       0.0000 |       0.0000 |       0.0000 |       0.0000 |       0.0000 |       0.0000 |       0.0000 |       0.0000 |       0.0000 |       0.0000 |       0.0000 |       0.0000 |       0.0000 |       0.0000 |       0.0000 |       0.0000 |       0.0000 |       0.0000 |       0.0000 |       0.0000 |       0.0000 |       0.0000 |       0.0000 |       0.0000 |       0.0000 |
il1.inv_rate                                0.0000 |       0.0000 |       0.0000 |       0.0000 |       0.0000 |       0.0000 |       0.0000 |       0.0000 |       0.0000 |       0.0000 |       0.0000 |       0.0000 |       0.0000 |       0.0000 |       0.0000 |       0.0000 |       0.0000 |       0.0000 |       0.0000 |       0.0000 |       0.0000 |       0.0000 |       0.0000 |       0.0000 |       0.0000 |       0.0000 |       0.0000 |       0.0000 |       0.0000 |       0.0000 |       0.0000 |       0.0000 |       0.0000 |       0.0000 |       0.0000 |       0.0000 |       0.0000 |       0.0000 |       0.0000 |       0.0000 |       0.0000 |       0.0000 |       0.0000 |       0.0000 |
dl1.accesses                                209583 |       209583 |       209583 |       209583 |       451708 |       451708 |       451708 |       451708 |       986545 |       986545 |       986545 |       986545 |      2121635 |      2121635 |      2121635 |      2121635 |      4889646 |      4889646 |      4889646 |      4889646 |     10671679 |     10671679 |     10671679 |     10671679 |     21153634 |     21153634 |     21153634 |     21153634 |     44626004 |     44626004 |     44626004 |     44626004 |     92681418 |     92681418 |     92681418 |     92681418 |    199426693 |    199426693 |    199426693 |    199426693 |    402870856 |    402870856 |    402870856 |    402870856 |
dl1.hits                                    203622 |       203622 |       203217 |       203217 |       436115 |       436115 |       435439 |       435439 |       946069 |       946069 |       944710 |       944710 |      2025234 |      2025234 |      2018431 |      2018431 |      4661129 |      4661129 |      4648424 |      4648424 |     10124596 |     10124596 |     10100520 |     10100520 |     19922484 |     19922484 |     19829769 |     19829769 |     41795676 |     41795676 |     41602019 |     41602019 |     86410640 |     86410640 |     85904452 |     85904452 |    185356286 |    185356286 |    184906309 |    184906309 |    372136570 |    372136570 |    371953225 |    371953225 |
dl1.misses                                    5961 |         5961 |         6366 |         6366 |        15593 |        15593 |        16269 |        16269 |        40476 |        40476 |        41835 |        41835 |        96401 |        96401 |       103204 |       103204 |       228517 |       228517 |       241222 |       241222 |       547083 |       547083 |       571159 |       571159 |      1231150 |      1231150 |      1323865 |      1323865 |      2830328 |      2830328 |      3023985 |      3023985 |      6270778 |      6270778 |      6776966 |      6776966 |     14070407 |     14070407 |     14520384 |     14520384 |     30734286 |     30734286 |     30917631 |     30917631 |
dl1.replacements                              5705 |         5705 |         6110 |         6110 |        15337 |        15337 |        16013 |        16013 |        40220 |        40220 |        41579 |        41579 |        96145 |        96145 |       102948 |       102948 |       228261 |       228261 |       240966 |       240966 |       546827 |       546827 |       570903 |       570903 |      1230894 |      1230894 |      1323609 |      1323609 |      2830072 |      2830072 |      3023729 |      3023729 |      6270522 |      6270522 |      6776710 |      6776710 |     14070151 |     14070151 |     14520128 |     14520128 |     30734030 |     30734030 |     30917375 |     30917375 |
dl1.writebacks                                5585 |         5585 |         5899 |         5899 |        14261 |        14261 |        14806 |        14806 |        36313 |        36313 |        37375 |        37375 |        85323 |        85323 |        90821 |        90821 |       198382 |       198382 |       209111 |       209111 |       470686 |       470686 |       491395 |       491395 |      1055849 |      1055849 |      1132070 |      1132070 |      2413520 |      2413520 |      2576065 |      2576065 |      5340192 |      5340192 |      5753626 |      5753626 |     11946453 |     11946453 |     12320621 |     12320621 |     26041281 |     26041281 |     26165585 |     26165585 |
dl1.invalidations                                0 |            0 |            0 |            0 |            0 |            0 |            0 |            0 |            0 |            0 |            0 |            0 |            0 |            0 |            0 |            0 |            0 |            0 |            0 |            0 |            0 |            0 |            0 |            0 |            0 |            0 |            0 |            0 |            0 |            0 |            0 |            0 |            0 |            0 |            0 |            0 |            0 |            0 |            0 |            0 |            0 |            0 |            0 |            0 |
dl1.miss_rate                               0.0284 |       0.0284 |       0.0304 |       0.0304 |       0.0345 |       0.0345 |       0.0360 |       0.0360 |       0.0410 |       0.0410 |       0.0424 |       0.0424 |       0.0454 |       0.0454 |       0.0486 |       0.0486 |       0.0467 |       0.0467 |       0.0493 |       0.0493 |       0.0513 |       0.0513 |       0.0535 |       0.0535 |       0.0582 |       0.0582 |       0.0626 |       0.0626 |       0.0634 |       0.0634 |       0.0678 |       0.0678 |       0.0677 |       0.0677 |       0.0731 |       0.0731 |       0.0706 |       0.0706 |       0.0728 |       0.0728 |       0.0763 |       0.0763 |       0.0767 |       0.0767 |
dl1.repl_rate                               0.0272 |       0.0272 |       0.0292 |       0.0292 |       0.0340 |       0.0340 |       0.0354 |       0.0354 |       0.0408 |       0.0408 |       0.0421 |       0.0421 |       0.0453 |       0.0453 |       0.0485 |       0.0485 |       0.0467 |       0.0467 |       0.0493 |       0.0493 |       0.0512 |       0.0512 |       0.0535 |       0.0535 |       0.0582 |       0.0582 |       0.0626 |       0.0626 |       0.0634 |       0.0634 |       0.0678 |       0.0678 |       0.0677 |       0.0677 |       0.0731 |       0.0731 |       0.0706 |       0.0706 |       0.0728 |       0.0728 |       0.0763 |       0.0763 |       0.0767 |       0.0767 |
dl1.wb_rate                                 0.0266 |       0.0266 |       0.0281 |       0.0281 |       0.0316 |       0.0316 |       0.0328 |       0.0328 |       0.0368 |       0.0368 |       0.0379 |       0.0379 |       0.0402 |       0.0402 |       0.0428 |       0.0428 |       0.0406 |       0.0406 |       0.0428 |       0.0428 |       0.0441 |       0.0441 |       0.0460 |       0.0460 |       0.0499 |       0.0499 |       0.0535 |       0.0535 |       0.0541 |       0.0541 |       0.0577 |       0.0577 |       0.0576 |       0.0576 |       0.0621 |       0.0621 |       0.0599 |       0.0599 |       0.0618 |       0.0618 |       0.0646 |       0.0646 |       0.0649 |       0.0649 |
dl1.inv_rate                                0.0000 |       0.0000 |       0.0000 |       0.0000 |       0.0000 |       0.0000 |       0.0000 |       0.0000 |       0.0000 |       0.0000 |       0.0000 |       0.0000 |       0.0000 |       0.0000 |       0.0000 |       0.0000 |       0.0000 |       0.0000 |       0.0000 |       0.0000 |       0.0000 |       0.0000 |       0.0000 |       0.0000 |       0.0000 |       0.0000 |       0.0000 |       0.0000 |       0.0000 |       0.0000 |       0.0000 |       0.0000 |       0.0000 |       0.0000 |       0.0000 |       0.0000 |       0.0000 |       0.0000 |       0.0000 |       0.0000 |       0.0000 |       0.0000 |       0.0000 |       0.0000 |
dl2.accesses                                 11960 |        11960 |        12625 |        12625 |        30267 |        30267 |        31434 |        31434 |        77213 |        77213 |        79574 |        79574 |       182140 |       182140 |       194387 |       194387 |       427315 |       427315 |       450695 |       450695 |      1018185 |      1018185 |      1062916 |      1062916 |      2287415 |      2287415 |      2456297 |      2456297 |      5244264 |      5244264 |      5600412 |      5600412 |     11611386 |     11611386 |     12530954 |     12530954 |     26017276 |     26017276 |     26841367 |     26841367 |     56775983 |     56775983 |     57083578 |     57083578 |
dl2.hits                                     10677 |        10677 |        11346 |        11346 |        28473 |        28473 |        29644 |        29644 |        74388 |        74388 |        76752 |        76752 |       177270 |       177270 |       189522 |       189522 |       418349 |       418349 |       441734 |       441734 |      1001027 |      1001027 |      1045763 |      1045763 |      2253873 |      2253873 |      2422760 |      2422760 |      5177954 |      5177846 |      5534107 |      5300809 |     11479430 |      9284046 |     11919557 |     10101041 |     21101849 |     20278369 |     21720256 |     20941102 |     44777280 |     42862847 |     44760562 |     42819928 |
dl2.misses                                    1283 |         1283 |         1279 |         1279 |         1794 |         1794 |         1790 |         1790 |         2825 |         2825 |         2822 |         2822 |         4870 |         4870 |         4865 |         4865 |         8966 |         8966 |         8961 |         8961 |        17158 |        17158 |        17153 |        17153 |        33542 |        33542 |        33537 |        33537 |        66310 |        66418 |        66305 |       299603 |       131956 |      2327340 |       611397 |      2429913 |      4915427 |      5738907 |      5121111 |      5900265 |     11998703 |     13913136 |     12323016 |     14263650 |
dl2.replacements                                60 |           60 |            0 |            0 |           60 |           60 |            0 |            0 |           57 |           57 |            0 |            0 |           62 |           62 |            0 |            0 |           62 |           62 |            0 |            0 |           62 |           62 |            0 |            0 |           62 |           62 |            0 |            0 |           62 |          882 |            0 |       234067 |          884 |      2261804 |       480325 |      2364377 |      4784355 |      5673371 |      4990039 |      5834729 |     11867631 |     13847600 |     12191944 |     14198114 |
dl2.writebacks                                   2 |            2 |            0 |            0 |            2 |            2 |            0 |            0 |            2 |            2 |            0 |            0 |            2 |            2 |            0 |            0 |            2 |            2 |            0 |            0 |            2 |            2 |            0 |            0 |            2 |            2 |            0 |            0 |            2 |          691 |            0 |       233922 |          692 |      2235923 |       480180 |      2314201 |      4732827 |      5395369 |      4890273 |      5527093 |     11312442 |     12831222 |     11576462 |     13107820 |
dl2.invalidations                                0 |            0 |            0 |            0 |            0 |            0 |            0 |            0 |            0 |            0 |            0 |            0 |            0 |            0 |            0 |            0 |            0 |            0 |            0 |            0 |            0 |            0 |            0 |            0 |            0 |            0 |            0 |            0 |            0 |            0 |            0 |            0 |            0 |            0 |            0 |            0 |            0 |            0 |            0 |            0 |            0 |            0 |            0 |            0 |
dl2.miss_rate                               0.1073 |       0.1073 |       0.1013 |       0.1013 |       0.0593 |       0.0593 |       0.0569 |       0.0569 |       0.0366 |       0.0366 |       0.0355 |       0.0355 |       0.0267 |       0.0267 |       0.0250 |       0.0250 |       0.0210 |       0.0210 |       0.0199 |       0.0199 |       0.0169 |       0.0169 |       0.0161 |       0.0161 |       0.0147 |       0.0147 |       0.0137 |       0.0137 |       0.0126 |       0.0127 |       0.0118 |       0.0535 |       0.0114 |       0.2004 |       0.0488 |       0.1939 |       0.1889 |       0.2206 |       0.1908 |       0.2198 |       0.2113 |       0.2451 |       0.2159 |       0.2499 |
dl2.repl_rate                               0.0050 |       0.0050 |       0.0000 |       0.0000 |       0.0020 |       0.0020 |       0.0000 |       0.0000 |       0.0007 |       0.0007 |       0.0000 |       0.0000 |       0.0003 |       0.0003 |       0.0000 |       0.0000 |       0.0001 |       0.0001 |       0.0000 |       0.0000 |       0.0001 |       0.0001 |       0.0000 |       0.0000 |       0.0000 |       0.0000 |       0.0000 |       0.0000 |       0.0000 |       0.0002 |       0.0000 |       0.0418 |       0.0001 |       0.1948 |       0.0383 |       0.1887 |       0.1839 |       0.2181 |       0.1859 |       0.2174 |       0.2090 |       0.2439 |       0.2136 |       0.2487 |
dl2.wb_rate                                 0.0002 |       0.0002 |       0.0000 |       0.0000 |       0.0001 |       0.0001 |       0.0000 |       0.0000 |       0.0000 |       0.0000 |       0.0000 |       0.0000 |       0.0000 |       0.0000 |       0.0000 |       0.0000 |       0.0000 |       0.0000 |       0.0000 |       0.0000 |       0.0000 |       0.0000 |       0.0000 |       0.0000 |       0.0000 |       0.0000 |       0.0000 |       0.0000 |       0.0000 |       0.0001 |       0.0000 |       0.0418 |       0.0001 |       0.1926 |       0.0383 |       0.1847 |       0.1819 |       0.2074 |       0.1822 |       0.2059 |       0.1992 |       0.2260 |       0.2028 |       0.2296 |
dl2.inv_rate                                0.0000 |       0.0000 |       0.0000 |       0.0000 |       0.0000 |       0.0000 |       0.0000 |       0.0000 |       0.0000 |       0.0000 |       0.0000 |       0.0000 |       0.0000 |       0.0000 |       0.0000 |       0.0000 |       0.0000 |       0.0000 |       0.0000 |       0.0000 |       0.0000 |       0.0000 |       0.0000 |       0.0000 |       0.0000 |       0.0000 |       0.0000 |       0.0000 |       0.0000 |       0.0000 |       0.0000 |       0.0000 |       0.0000 |       0.0000 |       0.0000 |       0.0000 |       0.0000 |       0.0000 |       0.0000 |       0.0000 |       0.0000 |       0.0000 |       0.0000 |       0.0000 |
itlb.accesses                               900377 |       900377 |       900377 |       900377 |      1994122 |      1994122 |      1994122 |      1994122 |      4560763 |      4560763 |      4560763 |      4560763 |      9957174 |      9957174 |      9957174 |      9957174 |     21249014 |     21249014 |     21249014 |     21249014 |     47393605 |     47393605 |     47393605 |     47393605 |     97501842 |     97501842 |     97501842 |     97501842 |    209547703 |    209547703 |    209547703 |    209547703 |    444461541 |    444461541 |    444461541 |    444461541 |    954673919 |    954673919 |    954673919 |    954673919 |   1992981168 |   1992981168 |   1992981168 |   1992981168 |
itlb.hits                                   900368 |       900368 |       900368 |       900368 |      1994113 |      1994113 |      1994113 |      1994113 |      4560754 |      4560754 |      4560754 |      4560754 |      9957165 |      9957165 |      9957165 |      9957165 |     21249005 |     21249005 |     21249005 |     21249005 |     47393596 |     47393596 |     47393596 |     47393596 |     97501833 |     97501833 |     97501833 |     97501833 |    209547694 |    209547694 |    209547694 |    209547694 |    444461532 |    444461532 |    444461532 |    444461532 |    954673910 |    954673910 |    954673910 |    954673910 |   1992981159 |   1992981159 |   1992981159 |   1992981159 |
itlb.misses                                      9 |            9 |            9 |            9 |            9 |            9 |            9 |            9 |            9 |            9 |            9 |            9 |            9 |            9 |            9 |            9 |            9 |            9 |            9 |            9 |            9 |            9 |            9 |            9 |            9 |            9 |            9 |            9 |            9 |            9 |            9 |            9 |            9 |            9 |            9 |            9 |            9 |            9 |            9 |            9 |            9 |            9 |            9 |            9 |
itlb.replacements                                0 |            0 |            0 |            0 |            0 |            0 |            0 |            0 |            0 |            0 |            0 |            0 |            0 |            0 |            0 |            0 |            0 |            0 |            0 |            0 |            0 |            0 |            0 |            0 |            0 |            0 |            0 |            0 |            0 |            0 |            0 |            0 |            0 |            0 |            0 |            0 |            0 |            0 |            0 |            0 |            0 |            0 |            0 |            0 |
itlb.writebacks                                  0 |            0 |            0 |            0 |            0 |            0 |            0 |            0 |            0 |            0 |            0 |            0 |            0 |            0 |            0 |            0 |            0 |            0 |            0 |            0 |            0 |            0 |            0 |            0 |            0 |            0 |            0 |            0 |            0 |            0 |            0 |            0 |            0 |            0 |            0 |            0 |            0 |            0 |            0 |            0 |            0 |            0 |            0 |            0 |
itlb.invalidations                               0 |            0 |            0 |            0 |            0 |            0 |            0 |            0 |            0 |            0 |            0 |            0 |            0 |            0 |            0 |            0 |            0 |            0 |            0 |            0 |            0 |            0 |            0 |            0 |            0 |            0 |            0 |            0 |            0 |            0 |            0 |            0 |            0 |            0 |            0 |            0 |            0 |            0 |            0 |            0 |            0 |            0 |            0 |            0 |
itlb.miss_rate                              0.0000 |       0.0000 |       0.0000 |       0.0000 |       0.0000 |       0.0000 |       0.0000 |       0.0000 |       0.0000 |       0.0000 |       0.0000 |       0.0000 |       0.0000 |       0.0000 |       0.0000 |       0.0000 |       0.0000 |       0.0000 |       0.0000 |       0.0000 |       0.0000 |       0.0000 |       0.0000 |       0.0000 |       0.0000 |       0.0000 |       0.0000 |       0.0000 |       0.0000 |       0.0000 |       0.0000 |       0.0000 |       0.0000 |       0.0000 |       0.0000 |       0.0000 |       0.0000 |       0.0000 |       0.0000 |       0.0000 |       0.0000 |       0.0000 |       0.0000 |       0.0000 |
itlb.repl_rate                              0.0000 |       0.0000 |       0.0000 |       0.0000 |       0.0000 |       0.0000 |       0.0000 |       0.0000 |       0.0000 |       0.0000 |       0.0000 |       0.0000 |       0.0000 |       0.0000 |       0.0000 |       0.0000 |       0.0000 |       0.0000 |       0.0000 |       0.0000 |       0.0000 |       0.0000 |       0.0000 |       0.0000 |       0.0000 |       0.0000 |       0.0000 |       0.0000 |       0.0000 |       0.0000 |       0.0000 |       0.0000 |       0.0000 |       0.0000 |       0.0000 |       0.0000 |       0.0000 |       0.0000 |       0.0000 |       0.0000 |       0.0000 |       0.0000 |       0.0000 |       0.0000 |
itlb.wb_rate                                0.0000 |       0.0000 |       0.0000 |       0.0000 |       0.0000 |       0.0000 |       0.0000 |       0.0000 |       0.0000 |       0.0000 |       0.0000 |       0.0000 |       0.0000 |       0.0000 |       0.0000 |       0.0000 |       0.0000 |       0.0000 |       0.0000 |       0.0000 |       0.0000 |       0.0000 |       0.0000 |       0.0000 |       0.0000 |       0.0000 |       0.0000 |       0.0000 |       0.0000 |       0.0000 |       0.0000 |       0.0000 |       0.0000 |       0.0000 |       0.0000 |       0.0000 |       0.0000 |       0.0000 |       0.0000 |       0.0000 |       0.0000 |       0.0000 |       0.0000 |       0.0000 |
itlb.inv_rate                               0.0000 |       0.0000 |       0.0000 |       0.0000 |       0.0000 |       0.0000 |       0.0000 |       0.0000 |       0.0000 |       0.0000 |       0.0000 |       0.0000 |       0.0000 |       0.0000 |       0.0000 |       0.0000 |       0.0000 |       0.0000 |       0.0000 |       0.0000 |       0.0000 |       0.0000 |       0.0000 |       0.0000 |       0.0000 |       0.0000 |       0.0000 |       0.0000 |       0.0000 |       0.0000 |       0.0000 |       0.0000 |       0.0000 |       0.0000 |       0.0000 |       0.0000 |       0.0000 |       0.0000 |       0.0000 |       0.0000 |       0.0000 |       0.0000 |       0.0000 |       0.0000 |
dtlb.accesses                               209583 |       209583 |       209583 |       209583 |       451708 |       451708 |       451708 |       451708 |       986545 |       986545 |       986545 |       986545 |      2121635 |      2121635 |      2121635 |      2121635 |      4889646 |      4889646 |      4889646 |      4889646 |     10671679 |     10671679 |     10671679 |     10671679 |     21153634 |     21153634 |     21153634 |     21153634 |     44626004 |     44626004 |     44626004 |     44626004 |     92681418 |     92681418 |     92681418 |     92681418 |    199426693 |    199426693 |    199426693 |    199426693 |    402870856 |    402870856 |    402870856 |    402870856 |
dtlb.hits                                   209572 |       209572 |       209572 |       209572 |       451693 |       451693 |       451693 |       451693 |       986522 |       986522 |       986522 |       986522 |      2121596 |      2121596 |      2121596 |      2121596 |      4889575 |      4889575 |      4889575 |      4889575 |     10671482 |     10671482 |     10671482 |     10671482 |     21148627 |     21148627 |     21148627 |     21148627 |     44611544 |     44611544 |     44611544 |     44611544 |     92533236 |     92533236 |     92533236 |     92533236 |    199330932 |    199330932 |    199330932 |    199330932 |    402638144 |    402638144 |    402638144 |    402638144 |
dtlb.misses                                     11 |           11 |           11 |           11 |           15 |           15 |           15 |           15 |           23 |           23 |           23 |           23 |           39 |           39 |           39 |           39 |           71 |           71 |           71 |           71 |          197 |          197 |          197 |          197 |         5007 |         5007 |         5007 |         5007 |        14460 |        14460 |        14460 |        14460 |       148182 |       148182 |       148182 |       148182 |        95761 |        95761 |        95761 |        95761 |       232712 |       232712 |       232712 |       232712 |
dtlb.replacements                                0 |            0 |            0 |            0 |            0 |            0 |            0 |            0 |            0 |            0 |            0 |            0 |            0 |            0 |            0 |            0 |            0 |            0 |            0 |            0 |           69 |           69 |           69 |           69 |         4879 |         4879 |         4879 |         4879 |        14332 |        14332 |        14332 |        14332 |       148054 |       148054 |       148054 |       148054 |        95633 |        95633 |        95633 |        95633 |       232584 |       232584 |       232584 |       232584 |
dtlb.writebacks                                  0 |            0 |            0 |            0 |            0 |            0 |            0 |            0 |            0 |            0 |            0 |            0 |            0 |            0 |            0 |            0 |            0 |            0 |            0 |            0 |           68 |           68 |           68 |           68 |         4799 |         4799 |         4799 |         4799 |        13780 |        13780 |        13780 |        13780 |       126502 |       126502 |       126502 |       126502 |        89872 |        89872 |        89872 |        89872 |       216926 |       216926 |       216926 |       216926 |
dtlb.invalidations                               0 |            0 |            0 |            0 |            0 |            0 |            0 |            0 |            0 |            0 |            0 |            0 |            0 |            0 |            0 |            0 |            0 |            0 |            0 |            0 |            0 |            0 |            0 |            0 |            0 |            0 |            0 |            0 |            0 |            0 |            0 |            0 |            0 |            0 |            0 |            0 |            0 |            0 |            0 |            0 |            0 |            0 |            0 |            0 |
dtlb.miss_rate                              0.0001 |       0.0001 |       0.0001 |       0.0001 |       0.0000 |       0.0000 |       0.0000 |       0.0000 |       0.0000 |       0.0000 |       0.0000 |       0.0000 |       0.0000 |       0.0000 |       0.0000 |       0.0000 |       0.0000 |       0.0000 |       0.0000 |       0.0000 |       0.0000 |       0.0000 |       0.0000 |       0.0000 |       0.0002 |       0.0002 |       0.0002 |       0.0002 |       0.0003 |       0.0003 |       0.0003 |       0.0003 |       0.0016 |       0.0016 |       0.0016 |       0.0016 |       0.0005 |       0.0005 |       0.0005 |       0.0005 |       0.0006 |       0.0006 |       0.0006 |       0.0006 |
dtlb.repl_rate                              0.0000 |       0.0000 |       0.0000 |       0.0000 |       0.0000 |       0.0000 |       0.0000 |       0.0000 |       0.0000 |       0.0000 |       0.0000 |       0.0000 |       0.0000 |       0.0000 |       0.0000 |       0.0000 |       0.0000 |       0.0000 |       0.0000 |       0.0000 |       0.0000 |       0.0000 |       0.0000 |       0.0000 |       0.0002 |       0.0002 |       0.0002 |       0.0002 |       0.0003 |       0.0003 |       0.0003 |       0.0003 |       0.0016 |       0.0016 |       0.0016 |       0.0016 |       0.0005 |       0.0005 |       0.0005 |       0.0005 |       0.0006 |       0.0006 |       0.0006 |       0.0006 |
dtlb.wb_rate                                0.0000 |       0.0000 |       0.0000 |       0.0000 |       0.0000 |       0.0000 |       0.0000 |       0.0000 |       0.0000 |       0.0000 |       0.0000 |       0.0000 |       0.0000 |       0.0000 |       0.0000 |       0.0000 |       0.0000 |       0.0000 |       0.0000 |       0.0000 |       0.0000 |       0.0000 |       0.0000 |       0.0000 |       0.0002 |       0.0002 |       0.0002 |       0.0002 |       0.0003 |       0.0003 |       0.0003 |       0.0003 |       0.0014 |       0.0014 |       0.0014 |       0.0014 |       0.0005 |       0.0005 |       0.0005 |       0.0005 |       0.0005 |       0.0005 |       0.0005 |       0.0005 |
dtlb.inv_rate                               0.0000 |       0.0000 |       0.0000 |       0.0000 |       0.0000 |       0.0000 |       0.0000 |       0.0000 |       0.0000 |       0.0000 |       0.0000 |       0.0000 |       0.0000 |       0.0000 |       0.0000 |       0.0000 |       0.0000 |       0.0000 |       0.0000 |       0.0000 |       0.0000 |       0.0000 |       0.0000 |       0.0000 |       0.0000 |       0.0000 |       0.0000 |       0.0000 |       0.0000 |       0.0000 |       0.0000 |       0.0000 |       0.0000 |       0.0000 |       0.0000 |       0.0000 |       0.0000 |       0.0000 |       0.0000 |       0.0000 |       0.0000 |       0.0000 |       0.0000 |       0.0000 |
ld_text_base                            0x00400000 |   0x00400000 |   0x00400000 |   0x00400000 |   0x00400000 |   0x00400000 |   0x00400000 |   0x00400000 |   0x00400000 |   0x00400000 |   0x00400000 |   0x00400000 |   0x00400000 |   0x00400000 |   0x00400000 |   0x00400000 |   0x00400000 |   0x00400000 |   0x00400000 |   0x00400000 |   0x00400000 |   0x00400000 |   0x00400000 |   0x00400000 |   0x00400000 |   0x00400000 |   0x00400000 |   0x00400000 |   0x00400000 |   0x00400000 |   0x00400000 |   0x00400000 |   0x00400000 |   0x00400000 |   0x00400000 |   0x00400000 |   0x00400000 |   0x00400000 |   0x00400000 |   0x00400000 |   0x00400000 |   0x00400000 |   0x00400000 |   0x00400000 |
ld_text_size                                 72704 |        72704 |        72704 |        72704 |        72736 |        72736 |        72736 |        72736 |        72752 |        72752 |        72752 |        72752 |        72768 |        72768 |        72768 |        72768 |        72768 |        72768 |        72768 |        72768 |        72768 |        72768 |        72768 |        72768 |        72768 |        72768 |        72768 |        72768 |        72768 |        72768 |        72768 |        72768 |        72768 |        72768 |        72768 |        72768 |        72768 |        72768 |        72768 |        72768 |        72768 |        72768 |        72768 |        72768 |
ld_data_base                            0x10000000 |   0x10000000 |   0x10000000 |   0x10000000 |   0x10000000 |   0x10000000 |   0x10000000 |   0x10000000 |   0x10000000 |   0x10000000 |   0x10000000 |   0x10000000 |   0x10000000 |   0x10000000 |   0x10000000 |   0x10000000 |   0x10000000 |   0x10000000 |   0x10000000 |   0x10000000 |   0x10000000 |   0x10000000 |   0x10000000 |   0x10000000 |   0x10000000 |   0x10000000 |   0x10000000 |   0x10000000 |   0x10000000 |   0x10000000 |   0x10000000 |   0x10000000 |   0x10000000 |   0x10000000 |   0x10000000 |   0x10000000 |   0x10000000 |   0x10000000 |   0x10000000 |   0x10000000 |   0x10000000 |   0x10000000 |   0x10000000 |   0x10000000 |
ld_data_size                                  8192 |         8192 |         8192 |         8192 |         8192 |         8192 |         8192 |         8192 |         8192 |         8192 |         8192 |         8192 |         8192 |         8192 |         8192 |         8192 |         8192 |         8192 |         8192 |         8192 |         8192 |         8192 |         8192 |         8192 |         8192 |         8192 |         8192 |         8192 |         8192 |         8192 |         8192 |         8192 |         8192 |         8192 |         8192 |         8192 |         8192 |         8192 |         8192 |         8192 |         8192 |         8192 |         8192 |         8192 |
ld_stack_base                           0x7fffc000 |   0x7fffc000 |   0x7fffc000 |   0x7fffc000 |   0x7fffc000 |   0x7fffc000 |   0x7fffc000 |   0x7fffc000 |   0x7fffc000 |   0x7fffc000 |   0x7fffc000 |   0x7fffc000 |   0x7fffc000 |   0x7fffc000 |   0x7fffc000 |   0x7fffc000 |   0x7fffc000 |   0x7fffc000 |   0x7fffc000 |   0x7fffc000 |   0x7fffc000 |   0x7fffc000 |   0x7fffc000 |   0x7fffc000 |   0x7fffc000 |   0x7fffc000 |   0x7fffc000 |   0x7fffc000 |   0x7fffc000 |   0x7fffc000 |   0x7fffc000 |   0x7fffc000 |   0x7fffc000 |   0x7fffc000 |   0x7fffc000 |   0x7fffc000 |   0x7fffc000 |   0x7fffc000 |   0x7fffc000 |   0x7fffc000 |   0x7fffc000 |   0x7fffc000 |   0x7fffc000 |   0x7fffc000 |
ld_stack_size                                16384 |        16384 |        16384 |        16384 |        16384 |        16384 |        16384 |        16384 |        16384 |        16384 |        16384 |        16384 |        16384 |        16384 |        16384 |        16384 |        16384 |        16384 |        16384 |        16384 |        16384 |        16384 |        16384 |        16384 |        16384 |        16384 |        16384 |        16384 |        16384 |        16384 |        16384 |        16384 |        16384 |        16384 |        16384 |        16384 |        16384 |        16384 |        16384 |        16384 |        16384 |        16384 |        16384 |        16384 |
ld_prog_entry                           0x00400140 |   0x00400140 |   0x00400140 |   0x00400140 |   0x00400140 |   0x00400140 |   0x00400140 |   0x00400140 |   0x00400140 |   0x00400140 |   0x00400140 |   0x00400140 |   0x00400140 |   0x00400140 |   0x00400140 |   0x00400140 |   0x00400140 |   0x00400140 |   0x00400140 |   0x00400140 |   0x00400140 |   0x00400140 |   0x00400140 |   0x00400140 |   0x00400140 |   0x00400140 |   0x00400140 |   0x00400140 |   0x00400140 |   0x00400140 |   0x00400140 |   0x00400140 |   0x00400140 |   0x00400140 |   0x00400140 |   0x00400140 |   0x00400140 |   0x00400140 |   0x00400140 |   0x00400140 |   0x00400140 |   0x00400140 |   0x00400140 |   0x00400140 |
ld_environ_base                         0x7fff8000 |   0x7fff8000 |   0x7fff8000 |   0x7fff8000 |   0x7fff8000 |   0x7fff8000 |   0x7fff8000 |   0x7fff8000 |   0x7fff8000 |   0x7fff8000 |   0x7fff8000 |   0x7fff8000 |   0x7fff8000 |   0x7fff8000 |   0x7fff8000 |   0x7fff8000 |   0x7fff8000 |   0x7fff8000 |   0x7fff8000 |   0x7fff8000 |   0x7fff8000 |   0x7fff8000 |   0x7fff8000 |   0x7fff8000 |   0x7fff8000 |   0x7fff8000 |   0x7fff8000 |   0x7fff8000 |   0x7fff8000 |   0x7fff8000 |   0x7fff8000 |   0x7fff8000 |   0x7fff8000 |   0x7fff8000 |   0x7fff8000 |   0x7fff8000 |   0x7fff8000 |   0x7fff8000 |   0x7fff8000 |   0x7fff8000 |   0x7fff8000 |   0x7fff8000 |   0x7fff8000 |   0x7fff8000 |
ld_target_big_endian                             0 |            0 |            0 |            0 |            0 |            0 |            0 |            0 |            0 |            0 |            0 |            0 |            0 |            0 |            0 |            0 |            0 |            0 |            0 |            0 |            0 |            0 |            0 |            0 |            0 |            0 |            0 |            0 |            0 |            0 |            0 |            0 |            0 |            0 |            0 |            0 |            0 |            0 |            0 |            0 |            0 |            0 |            0 |            0 |
mem.page_count                                  29 |           29 |           29 |           29 |           33 |           33 |           33 |           33 |           41 |           41 |           41 |           41 |           57 |           57 |           57 |           57 |           89 |           89 |           89 |           89 |          153 |          153 |          153 |          153 |          281 |          281 |          281 |          281 |          537 |          537 |          537 |          537 |         1049 |         1049 |         1049 |         1049 |         2073 |         2073 |         2073 |         2073 |         4121 |         4121 |         4121 |         4121 |
mem.page_mem                                  116k |         116k |         116k |         116k |         132k |         132k |         132k |         132k |         164k |         164k |         164k |         164k |         228k |         228k |         228k |         228k |         356k |         356k |         356k |         356k |         612k |         612k |         612k |         612k |        1124k |        1124k |        1124k |        1124k |        2148k |        2148k |        2148k |        2148k |        4196k |        4196k |        4196k |        4196k |        8292k |        8292k |        8292k |        8292k |       16484k |       16484k |       16484k |       16484k |
mem.ptab_misses                                 29 |           29 |           29 |           29 |           33 |           33 |           33 |           33 |           41 |           41 |           41 |           41 |           57 |           57 |           57 |           57 |           89 |           89 |           89 |           89 |          153 |          153 |          153 |          153 |          281 |          281 |          281 |          281 |          537 |          537 |          537 |          537 |         1049 |         1049 |         1049 |         1049 |         2073 |         2073 |         2073 |         2073 |         4121 |         4121 |         4121 |         4121 |
mem.ptab_accesses                          4471498 |      4471498 |      4471498 |      4471498 |      9330920 |      9330920 |      9330920 |      9330920 |     20667254 |     20667254 |     20667254 |     20667254 |     44523174 |     44523174 |     44523174 |     44523174 |     95226556 |     95226556 |     95226556 |     95226556 |    211368986 |    211368986 |    211368986 |    211368986 |    432765844 |    432765844 |    432765844 |    432765844 |    927894028 |    927894028 |    927894028 |    927894028 |   1963660208 |   1963660208 |   1963660208 |   1963660208 |   4218000270 |   4218000270 |   4218000270 |   4218000270 |   8778117592 |   8778117592 |   8778117592 |   8778117592 |
mem.ptab_miss_rate                          0.0000 |       0.0000 |       0.0000 |       0.0000 |       0.0000 |       0.0000 |       0.0000 |       0.0000 |       0.0000 |       0.0000 |       0.0000 |       0.0000 |       0.0000 |       0.0000 |       0.0000 |       0.0000 |       0.0000 |       0.0000 |       0.0000 |       0.0000 |       0.0000 |       0.0000 |       0.0000 |       0.0000 |       0.0000 |       0.0000 |       0.0000 |       0.0000 |       0.0000 |       0.0000 |       0.0000 |       0.0000 |       0.0000 |       0.0000 |       0.0000 |       0.0000 |       0.0000 |       0.0000 |       0.0000 |       0.0000 |       0.0000 |       0.0000 |       0.0000 |       0.0000 |
-------------------------------------------------------------------------------------------------
sim-bpred                                     4096 |         4096 |         4096 |         4096 |         4096 |         4096 |         4096 |         8192 |         8192 |         8192 |         8192 |         8192 |         8192 |         8192 |        16384 |        16384 |        16384 |        16384 |        16384 |        16384 |        16384 |        32768 |        32768 |        32768 |        32768 |        32768 |        32768 |        32768 |        65536 |        65536 |        65536 |        65536 |        65536 |        65536 |        65536 |       131072 |       131072 |       131072 |       131072 |       131072 |       131072 |       131072 |       262144 |       262144 |       262144 |       262144 |       262144 |       262144 |       262144 |       524288 |       524288 |       524288 |       524288 |       524288 |       524288 |       524288 |      1048576 |      1048576 |      1048576 |      1048576 |      1048576 |      1048576 |      1048576 |      2097152 |      2097152 |      2097152 |      2097152 |      2097152 |      2097152 |      2097152 |      4194304 |      4194304 |      4194304 |      4194304 |      4194304 |      4194304 |      4194304 |
-bpred bimod -bpred:bimod 512
-bpred bimod -bpred:bimod 1024
-bpred bimod -bpred:bimod 2048
-bpred 2lev -bpred:2lev 1 512 10 1
-bpred 2lev -bpred:2lev 1 1024 10 1
-bpred 2lev -bpred:2lev 1 2048 10 1
-bpred 2lev -bpred:2lev 1 4096 10 1
-------------------------------------------------------------------------------------------------
sim_num_insn                                900377 |       900377 |       900377 |       900377 |       900377 |       900377 |       900377 |      1994122 |      1994122 |      1994122 |      1994122 |      1994122 |      1994122 |      1994122 |      4560763 |      4560763 |      4560763 |      4560763 |      4560763 |      4560763 |      4560763 |      9957174 |      9957174 |      9957174 |      9957174 |      9957174 |      9957174 |      9957174 |     21249014 |     21249014 |     21249014 |     21249014 |     21249014 |     21249014 |     21249014 |     47393605 |     47393605 |     47393605 |     47393605 |     47393605 |     47393605 |     47393605 |     97501842 |     97501842 |     97501842 |     97501842 |     97501842 |     97501842 |     97501842 |    209547703 |    209547703 |    209547703 |    209547703 |    209547703 |    209547703 |    209547703 |    444461541 |    444461541 |    444461541 |    444461541 |    444461541 |    444461541 |    444461541 |    954673919 |    954673919 |    954673919 |    954673919 |    954673919 |    954673919 |    954673919 |   1992981168 |   1992981168 |   1992981168 |   1992981168 |   1992981168 |   1992981168 |   1992981168 |
sim_num_refs                                193125 |       193125 |       193125 |       193125 |       193125 |       193125 |       193125 |       418866 |       418866 |       418866 |       418866 |       418866 |       418866 |       418866 |       920935 |       920935 |       920935 |       920935 |       920935 |       920935 |       920935 |      1990489 |      1990489 |      1990489 |      1990489 |      1990489 |      1990489 |      1990489 |      4627428 |      4627428 |      4627428 |      4627428 |      4627428 |      4627428 |      4627428 |     10147317 |     10147317 |     10147317 |     10147317 |     10147317 |     10147317 |     10147317 |     20104984 |     20104984 |     20104984 |     20104984 |     20104984 |     20104984 |     20104984 |     42528778 |     42528778 |     42528778 |     42528778 |     42528778 |     42528778 |     42528778 |     88487040 |     88487040 |     88487040 |     88487040 |     88487040 |     88487040 |     88487040 |    191038011 |    191038011 |    191038011 |    191038011 |    191038011 |    191038011 |    191038011 |    386093566 |    386093566 |    386093566 |    386093566 |    386093566 |    386093566 |    386093566 |
sim_elapsed_time                                 1 |            1 |            1 |            1 |            1 |            1 |            1 |            1 |            1 |            1 |            1 |            1 |            1 |            1 |            1 |            1 |            1 |            1 |            1 |            1 |            1 |            1 |            1 |            2 |            1 |            1 |            1 |            2 |            3 |            2 |            3 |            2 |            3 |            3 |            2 |            6 |            5 |            6 |            6 |            5 |            6 |            6 |           11 |           12 |           11 |           12 |           12 |           12 |           11 |           25 |           24 |           25 |           26 |           25 |           26 |           25 |           53 |           53 |           52 |           54 |           54 |           54 |           54 |          113 |          114 |          113 |          115 |          116 |          115 |          116 |          236 |          236 |          235 |          242 |          241 |          241 |          241 |
sim_inst_rate                          900377.0000 |  900377.0000 |  900377.0000 |  900377.0000 |  900377.0000 |  900377.0000 |  900377.0000 | 1994122.0000 | 1994122.0000 | 1994122.0000 | 1994122.0000 | 1994122.0000 | 1994122.0000 | 1994122.0000 | 4560763.0000 | 4560763.0000 | 4560763.0000 | 4560763.0000 | 4560763.0000 | 4560763.0000 | 4560763.0000 | 9957174.0000 | 9957174.0000 | 4978587.0000 | 9957174.0000 | 9957174.0000 | 9957174.0000 | 4978587.0000 | 7083004.6667 |10624507.0000 | 7083004.6667 |10624507.0000 | 7083004.6667 | 7083004.6667 |10624507.0000 | 7898934.1667 | 9478721.0000 | 7898934.1667 | 7898934.1667 | 9478721.0000 | 7898934.1667 | 7898934.1667 | 8863803.8182 | 8125153.5000 | 8863803.8182 | 8125153.5000 | 8125153.5000 | 8125153.5000 | 8863803.8182 | 8381908.1200 | 8731154.2917 | 8381908.1200 | 8059527.0385 | 8381908.1200 | 8059527.0385 | 8381908.1200 | 8386066.8113 | 8386066.8113 | 8547337.3269 | 8230769.2778 | 8230769.2778 | 8230769.2778 | 8230769.2778 | 8448441.7611 | 8374332.6228 | 8448441.7611 | 8301512.3391 | 8229947.5776 | 8301512.3391 | 8229947.5776 | 8444835.4576 | 8444835.4576 | 8480770.9277 | 8235459.3719 | 8269631.4025 | 8269631.4025 | 8269631.4025 |
sim_num_branches                            145375 |       145375 |       145375 |       145375 |       145375 |       145375 |       145375 |       323373 |       323373 |       323373 |       323373 |       323373 |       323373 |       323373 |       744079 |       744079 |       744079 |       744079 |       744079 |       744079 |       744079 |      1628137 |      1628137 |      1628137 |      1628137 |      1628137 |      1628137 |      1628137 |      3440236 |      3440236 |      3440236 |      3440236 |      3440236 |      3440236 |      3440236 |      7695463 |      7695463 |      7695463 |      7695463 |      7695463 |      7695463 |      7695463 |     15913718 |     15913718 |     15913718 |     15913718 |     15913718 |     15913718 |     15913718 |     34284896 |     34284896 |     34284896 |     34284896 |     34284896 |     34284896 |     34284896 |     72917774 |     72917774 |     72917774 |     72917774 |     72917774 |     72917774 |     72917774 |    156607102 |    156607102 |    156607102 |    156607102 |    156607102 |    156607102 |    156607102 |    328245749 |    328245749 |    328245749 |    328245749 |    328245749 |    328245749 |    328245749 |
sim_IPB                                     6.1935 |       6.1935 |       6.1935 |       6.1935 |       6.1935 |       6.1935 |       6.1935 |       6.1666 |       6.1666 |       6.1666 |       6.1666 |       6.1666 |       6.1666 |       6.1666 |       6.1294 |       6.1294 |       6.1294 |       6.1294 |       6.1294 |       6.1294 |       6.1294 |       6.1157 |       6.1157 |       6.1157 |       6.1157 |       6.1157 |       6.1157 |       6.1157 |       6.1766 |       6.1766 |       6.1766 |       6.1766 |       6.1766 |       6.1766 |       6.1766 |       6.1586 |       6.1586 |       6.1586 |       6.1586 |       6.1586 |       6.1586 |       6.1586 |       6.1269 |       6.1269 |       6.1269 |       6.1269 |       6.1269 |       6.1269 |       6.1269 |       6.1120 |       6.1120 |       6.1120 |       6.1120 |       6.1120 |       6.1120 |       6.1120 |       6.0954 |       6.0954 |       6.0954 |       6.0954 |       6.0954 |       6.0954 |       6.0954 |       6.0960 |       6.0960 |       6.0960 |       6.0960 |       6.0960 |       6.0960 |       6.0960 |       6.0716 |       6.0716 |       6.0716 |       6.0716 |       6.0716 |       6.0716 |       6.0716 |
bpred_bimod.lookups                         145375 |       145375 |       145375 |xxxxxxxxxxxxx |xxxxxxxxxxxxx |xxxxxxxxxxxxx |xxxxxxxxxxxxx |       323373 |       323373 |       323373 |xxxxxxxxxxxxx |xxxxxxxxxxxxx |xxxxxxxxxxxxx |xxxxxxxxxxxxx |       744079 |       744079 |       744079 |xxxxxxxxxxxxx |xxxxxxxxxxxxx |xxxxxxxxxxxxx |xxxxxxxxxxxxx |      1628137 |      1628137 |      1628137 |xxxxxxxxxxxxx |xxxxxxxxxxxxx |xxxxxxxxxxxxx |xxxxxxxxxxxxx |      3440236 |      3440236 |      3440236 |xxxxxxxxxxxxx |xxxxxxxxxxxxx |xxxxxxxxxxxxx |xxxxxxxxxxxxx |      7695463 |      7695463 |      7695463 |xxxxxxxxxxxxx |xxxxxxxxxxxxx |xxxxxxxxxxxxx |xxxxxxxxxxxxx |     15913718 |     15913718 |     15913718 |xxxxxxxxxxxxx |xxxxxxxxxxxxx |xxxxxxxxxxxxx |xxxxxxxxxxxxx |     34284896 |     34284896 |     34284896 |xxxxxxxxxxxxx |xxxxxxxxxxxxx |xxxxxxxxxxxxx |xxxxxxxxxxxxx |     72917774 |     72917774 |     72917774 |xxxxxxxxxxxxx |xxxxxxxxxxxxx |xxxxxxxxxxxxx |xxxxxxxxxxxxx |    156607102 |    156607102 |    156607102 |xxxxxxxxxxxxx |xxxxxxxxxxxxx |xxxxxxxxxxxxx |xxxxxxxxxxxxx |    328245749 |    328245749 |    328245749 |
bpred_bimod.updates                         145375 |       145375 |       145375 |xxxxxxxxxxxxx |xxxxxxxxxxxxx |xxxxxxxxxxxxx |xxxxxxxxxxxxx |       323373 |       323373 |       323373 |xxxxxxxxxxxxx |xxxxxxxxxxxxx |xxxxxxxxxxxxx |xxxxxxxxxxxxx |       744079 |       744079 |       744079 |xxxxxxxxxxxxx |xxxxxxxxxxxxx |xxxxxxxxxxxxx |xxxxxxxxxxxxx |      1628137 |      1628137 |      1628137 |xxxxxxxxxxxxx |xxxxxxxxxxxxx |xxxxxxxxxxxxx |xxxxxxxxxxxxx |      3440236 |      3440236 |      3440236 |xxxxxxxxxxxxx |xxxxxxxxxxxxx |xxxxxxxxxxxxx |xxxxxxxxxxxxx |      7695463 |      7695463 |      7695463 |xxxxxxxxxxxxx |xxxxxxxxxxxxx |xxxxxxxxxxxxx |xxxxxxxxxxxxx |     15913718 |     15913718 |     15913718 |xxxxxxxxxxxxx |xxxxxxxxxxxxx |xxxxxxxxxxxxx |xxxxxxxxxxxxx |     34284896 |     34284896 |     34284896 |xxxxxxxxxxxxx |xxxxxxxxxxxxx |xxxxxxxxxxxxx |xxxxxxxxxxxxx |     72917774 |     72917774 |     72917774 |xxxxxxxxxxxxx |xxxxxxxxxxxxx |xxxxxxxxxxxxx |xxxxxxxxxxxxx |    156607102 |    156607102 |    156607102 |xxxxxxxxxxxxx |xxxxxxxxxxxxx |xxxxxxxxxxxxx |xxxxxxxxxxxxx |    328245749 |    328245749 |    328245749 |
bpred_bimod.addr_hits                       111584 |       111587 |       111587 |xxxxxxxxxxxxx |xxxxxxxxxxxxx |xxxxxxxxxxxxx |xxxxxxxxxxxxx |       248459 |       248460 |       248460 |xxxxxxxxxxxxx |xxxxxxxxxxxxx |xxxxxxxxxxxxx |xxxxxxxxxxxxx |       571238 |       571242 |       571242 |xxxxxxxxxxxxx |xxxxxxxxxxxxx |xxxxxxxxxxxxx |xxxxxxxxxxxxx |      1249901 |      1249905 |      1249905 |xxxxxxxxxxxxx |xxxxxxxxxxxxx |xxxxxxxxxxxxx |xxxxxxxxxxxxx |      2696199 |      2696203 |      2696203 |xxxxxxxxxxxxx |xxxxxxxxxxxxx |xxxxxxxxxxxxx |xxxxxxxxxxxxx |      6058671 |      6058673 |      6058674 |xxxxxxxxxxxxx |xxxxxxxxxxxxx |xxxxxxxxxxxxx |xxxxxxxxxxxxx |     12370924 |     12370928 |     12370928 |xxxxxxxxxxxxx |xxxxxxxxxxxxx |xxxxxxxxxxxxx |xxxxxxxxxxxxx |     26560256 |     26560258 |     26560258 |xxxxxxxxxxxxx |xxxxxxxxxxxxx |xxxxxxxxxxxxx |xxxxxxxxxxxxx |     56231742 |     56231745 |     56231745 |xxxxxxxxxxxxx |xxxxxxxxxxxxx |xxxxxxxxxxxxx |xxxxxxxxxxxxx |    121074052 |    121074056 |    121074056 |xxxxxxxxxxxxx |xxxxxxxxxxxxx |xxxxxxxxxxxxx |xxxxxxxxxxxxx |    252498782 |    252498786 |    252498786 |
bpred_bimod.dir_hits                        111687 |       111689 |       111686 |xxxxxxxxxxxxx |xxxxxxxxxxxxx |xxxxxxxxxxxxx |xxxxxxxxxxxxx |       248560 |       248559 |       248558 |xxxxxxxxxxxxx |xxxxxxxxxxxxx |xxxxxxxxxxxxx |xxxxxxxxxxxxx |       571339 |       571342 |       571341 |xxxxxxxxxxxxx |xxxxxxxxxxxxx |xxxxxxxxxxxxx |xxxxxxxxxxxxx |      1250000 |      1250003 |      1250001 |xxxxxxxxxxxxx |xxxxxxxxxxxxx |xxxxxxxxxxxxx |xxxxxxxxxxxxx |      2696299 |      2696302 |      2696300 |xxxxxxxxxxxxx |xxxxxxxxxxxxx |xxxxxxxxxxxxx |xxxxxxxxxxxxx |      6058772 |      6058773 |      6058772 |xxxxxxxxxxxxx |xxxxxxxxxxxxx |xxxxxxxxxxxxx |xxxxxxxxxxxxx |     12371026 |     12371029 |     12371027 |xxxxxxxxxxxxx |xxxxxxxxxxxxx |xxxxxxxxxxxxx |xxxxxxxxxxxxx |     26560359 |     26560360 |     26560357 |xxxxxxxxxxxxx |xxxxxxxxxxxxx |xxxxxxxxxxxxx |xxxxxxxxxxxxx |     56231843 |     56231845 |     56231843 |xxxxxxxxxxxxx |xxxxxxxxxxxxx |xxxxxxxxxxxxx |xxxxxxxxxxxxx |    121074153 |    121074156 |    121074153 |xxxxxxxxxxxxx |xxxxxxxxxxxxx |xxxxxxxxxxxxx |xxxxxxxxxxxxx |    252498882 |    252498885 |    252498882 |
bpred_bimod.misses                           33688 |        33686 |        33689 |xxxxxxxxxxxxx |xxxxxxxxxxxxx |xxxxxxxxxxxxx |xxxxxxxxxxxxx |        74813 |        74814 |        74815 |xxxxxxxxxxxxx |xxxxxxxxxxxxx |xxxxxxxxxxxxx |xxxxxxxxxxxxx |       172740 |       172737 |       172738 |xxxxxxxxxxxxx |xxxxxxxxxxxxx |xxxxxxxxxxxxx |xxxxxxxxxxxxx |       378137 |       378134 |       378136 |xxxxxxxxxxxxx |xxxxxxxxxxxxx |xxxxxxxxxxxxx |xxxxxxxxxxxxx |       743937 |       743934 |       743936 |xxxxxxxxxxxxx |xxxxxxxxxxxxx |xxxxxxxxxxxxx |xxxxxxxxxxxxx |      1636691 |      1636690 |      1636691 |xxxxxxxxxxxxx |xxxxxxxxxxxxx |xxxxxxxxxxxxx |xxxxxxxxxxxxx |      3542692 |      3542689 |      3542691 |xxxxxxxxxxxxx |xxxxxxxxxxxxx |xxxxxxxxxxxxx |xxxxxxxxxxxxx |      7724537 |      7724536 |      7724539 |xxxxxxxxxxxxx |xxxxxxxxxxxxx |xxxxxxxxxxxxx |xxxxxxxxxxxxx |     16685931 |     16685929 |     16685931 |xxxxxxxxxxxxx |xxxxxxxxxxxxx |xxxxxxxxxxxxx |xxxxxxxxxxxxx |     35532949 |     35532946 |     35532949 |xxxxxxxxxxxxx |xxxxxxxxxxxxx |xxxxxxxxxxxxx |xxxxxxxxxxxxx |     75746867 |     75746864 |     75746867 |
bpred_bimod.jr_hits                             57 |           57 |           57 |xxxxxxxxxxxxx |xxxxxxxxxxxxx |xxxxxxxxxxxxx |xxxxxxxxxxxxx |           57 |           57 |           57 |xxxxxxxxxxxxx |xxxxxxxxxxxxx |xxxxxxxxxxxxx |xxxxxxxxxxxxx |           57 |           57 |           57 |xxxxxxxxxxxxx |xxxxxxxxxxxxx |xxxxxxxxxxxxx |xxxxxxxxxxxxx |           57 |           57 |           57 |xxxxxxxxxxxxx |xxxxxxxxxxxxx |xxxxxxxxxxxxx |xxxxxxxxxxxxx |           57 |           57 |           57 |xxxxxxxxxxxxx |xxxxxxxxxxxxx |xxxxxxxxxxxxx |xxxxxxxxxxxxx |           57 |           57 |           57 |xxxxxxxxxxxxx |xxxxxxxxxxxxx |xxxxxxxxxxxxx |xxxxxxxxxxxxx |           57 |           57 |           57 |xxxxxxxxxxxxx |xxxxxxxxxxxxx |xxxxxxxxxxxxx |xxxxxxxxxxxxx |           57 |           57 |           57 |xxxxxxxxxxxxx |xxxxxxxxxxxxx |xxxxxxxxxxxxx |xxxxxxxxxxxxx |           57 |           57 |           57 |xxxxxxxxxxxxx |xxxxxxxxxxxxx |xxxxxxxxxxxxx |xxxxxxxxxxxxx |           57 |           57 |           57 |xxxxxxxxxxxxx |xxxxxxxxxxxxx |xxxxxxxxxxxxx |xxxxxxxxxxxxx |           57 |           57 |           57 |
bpred_bimod.jr_seen                             58 |           58 |           58 |xxxxxxxxxxxxx |xxxxxxxxxxxxx |xxxxxxxxxxxxx |xxxxxxxxxxxxx |           58 |           58 |           58 |xxxxxxxxxxxxx |xxxxxxxxxxxxx |xxxxxxxxxxxxx |xxxxxxxxxxxxx |           58 |           58 |           58 |xxxxxxxxxxxxx |xxxxxxxxxxxxx |xxxxxxxxxxxxx |xxxxxxxxxxxxx |           58 |           58 |           58 |xxxxxxxxxxxxx |xxxxxxxxxxxxx |xxxxxxxxxxxxx |xxxxxxxxxxxxx |           58 |           58 |           58 |xxxxxxxxxxxxx |xxxxxxxxxxxxx |xxxxxxxxxxxxx |xxxxxxxxxxxxx |           58 |           58 |           58 |xxxxxxxxxxxxx |xxxxxxxxxxxxx |xxxxxxxxxxxxx |xxxxxxxxxxxxx |           58 |           58 |           58 |xxxxxxxxxxxxx |xxxxxxxxxxxxx |xxxxxxxxxxxxx |xxxxxxxxxxxxx |           58 |           58 |           58 |xxxxxxxxxxxxx |xxxxxxxxxxxxx |xxxxxxxxxxxxx |xxxxxxxxxxxxx |           58 |           58 |           58 |xxxxxxxxxxxxx |xxxxxxxxxxxxx |xxxxxxxxxxxxx |xxxxxxxxxxxxx |           58 |           58 |           58 |xxxxxxxxxxxxx |xxxxxxxxxxxxx |xxxxxxxxxxxxx |xxxxxxxxxxxxx |           58 |           58 |           58 |
bpred_bimod.jr_non_ras_hits.PP                   0 |            0 |            0 |xxxxxxxxxxxxx |xxxxxxxxxxxxx |xxxxxxxxxxxxx |xxxxxxxxxxxxx |            0 |            0 |            0 |xxxxxxxxxxxxx |xxxxxxxxxxxxx |xxxxxxxxxxxxx |xxxxxxxxxxxxx |            0 |            0 |            0 |xxxxxxxxxxxxx |xxxxxxxxxxxxx |xxxxxxxxxxxxx |xxxxxxxxxxxxx |            0 |            0 |            0 |xxxxxxxxxxxxx |xxxxxxxxxxxxx |xxxxxxxxxxxxx |xxxxxxxxxxxxx |            0 |            0 |            0 |xxxxxxxxxxxxx |xxxxxxxxxxxxx |xxxxxxxxxxxxx |xxxxxxxxxxxxx |            0 |            0 |            0 |xxxxxxxxxxxxx |xxxxxxxxxxxxx |xxxxxxxxxxxxx |xxxxxxxxxxxxx |            0 |            0 |            0 |xxxxxxxxxxxxx |xxxxxxxxxxxxx |xxxxxxxxxxxxx |xxxxxxxxxxxxx |            0 |            0 |            0 |xxxxxxxxxxxxx |xxxxxxxxxxxxx |xxxxxxxxxxxxx |xxxxxxxxxxxxx |            0 |            0 |            0 |xxxxxxxxxxxxx |xxxxxxxxxxxxx |xxxxxxxxxxxxx |xxxxxxxxxxxxx |            0 |            0 |            0 |xxxxxxxxxxxxx |xxxxxxxxxxxxx |xxxxxxxxxxxxx |xxxxxxxxxxxxx |            0 |            0 |            0 |
bpred_bimod.jr_non_ras_seen.PP                   0 |            0 |            0 |xxxxxxxxxxxxx |xxxxxxxxxxxxx |xxxxxxxxxxxxx |xxxxxxxxxxxxx |            0 |            0 |            0 |xxxxxxxxxxxxx |xxxxxxxxxxxxx |xxxxxxxxxxxxx |xxxxxxxxxxxxx |            0 |            0 |            0 |xxxxxxxxxxxxx |xxxxxxxxxxxxx |xxxxxxxxxxxxx |xxxxxxxxxxxxx |            0 |            0 |            0 |xxxxxxxxxxxxx |xxxxxxxxxxxxx |xxxxxxxxxxxxx |xxxxxxxxxxxxx |            0 |            0 |            0 |xxxxxxxxxxxxx |xxxxxxxxxxxxx |xxxxxxxxxxxxx |xxxxxxxxxxxxx |            0 |            0 |            0 |xxxxxxxxxxxxx |xxxxxxxxxxxxx |xxxxxxxxxxxxx |xxxxxxxxxxxxx |            0 |            0 |            0 |xxxxxxxxxxxxx |xxxxxxxxxxxxx |xxxxxxxxxxxxx |xxxxxxxxxxxxx |            0 |            0 |            0 |xxxxxxxxxxxxx |xxxxxxxxxxxxx |xxxxxxxxxxxxx |xxxxxxxxxxxxx |            0 |            0 |            0 |xxxxxxxxxxxxx |xxxxxxxxxxxxx |xxxxxxxxxxxxx |xxxxxxxxxxxxx |            0 |            0 |            0 |xxxxxxxxxxxxx |xxxxxxxxxxxxx |xxxxxxxxxxxxx |xxxxxxxxxxxxx |            0 |            0 |            0 |
bpred_bimod.bpred_addr_rate                 0.7676 |       0.7676 |       0.7676 |xxxxxxxxxxxxx |xxxxxxxxxxxxx |xxxxxxxxxxxxx |xxxxxxxxxxxxx |       0.7683 |       0.7683 |       0.7683 |xxxxxxxxxxxxx |xxxxxxxxxxxxx |xxxxxxxxxxxxx |xxxxxxxxxxxxx |       0.7677 |       0.7677 |       0.7677 |xxxxxxxxxxxxx |xxxxxxxxxxxxx |xxxxxxxxxxxxx |xxxxxxxxxxxxx |       0.7677 |       0.7677 |       0.7677 |xxxxxxxxxxxxx |xxxxxxxxxxxxx |xxxxxxxxxxxxx |xxxxxxxxxxxxx |       0.7837 |       0.7837 |       0.7837 |xxxxxxxxxxxxx |xxxxxxxxxxxxx |xxxxxxxxxxxxx |xxxxxxxxxxxxx |       0.7873 |       0.7873 |       0.7873 |xxxxxxxxxxxxx |xxxxxxxxxxxxx |xxxxxxxxxxxxx |xxxxxxxxxxxxx |       0.7774 |       0.7774 |       0.7774 |xxxxxxxxxxxxx |xxxxxxxxxxxxx |xxxxxxxxxxxxx |xxxxxxxxxxxxx |       0.7747 |       0.7747 |       0.7747 |xxxxxxxxxxxxx |xxxxxxxxxxxxx |xxxxxxxxxxxxx |xxxxxxxxxxxxx |       0.7712 |       0.7712 |       0.7712 |xxxxxxxxxxxxx |xxxxxxxxxxxxx |xxxxxxxxxxxxx |xxxxxxxxxxxxx |       0.7731 |       0.7731 |       0.7731 |xxxxxxxxxxxxx |xxxxxxxxxxxxx |xxxxxxxxxxxxx |xxxxxxxxxxxxx |       0.7692 |       0.7692 |       0.7692 |
bpred_bimod.bpred_dir_rate                  0.7683 |       0.7683 |       0.7683 |xxxxxxxxxxxxx |xxxxxxxxxxxxx |xxxxxxxxxxxxx |xxxxxxxxxxxxx |       0.7686 |       0.7686 |       0.7686 |xxxxxxxxxxxxx |xxxxxxxxxxxxx |xxxxxxxxxxxxx |xxxxxxxxxxxxx |       0.7678 |       0.7679 |       0.7678 |xxxxxxxxxxxxx |xxxxxxxxxxxxx |xxxxxxxxxxxxx |xxxxxxxxxxxxx |       0.7677 |       0.7678 |       0.7677 |xxxxxxxxxxxxx |xxxxxxxxxxxxx |xxxxxxxxxxxxx |xxxxxxxxxxxxx |       0.7838 |       0.7838 |       0.7838 |xxxxxxxxxxxxx |xxxxxxxxxxxxx |xxxxxxxxxxxxx |xxxxxxxxxxxxx |       0.7873 |       0.7873 |       0.7873 |xxxxxxxxxxxxx |xxxxxxxxxxxxx |xxxxxxxxxxxxx |xxxxxxxxxxxxx |       0.7774 |       0.7774 |       0.7774 |xxxxxxxxxxxxx |xxxxxxxxxxxxx |xxxxxxxxxxxxx |xxxxxxxxxxxxx |       0.7747 |       0.7747 |       0.7747 |xxxxxxxxxxxxx |xxxxxxxxxxxxx |xxxxxxxxxxxxx |xxxxxxxxxxxxx |       0.7712 |       0.7712 |       0.7712 |xxxxxxxxxxxxx |xxxxxxxxxxxxx |xxxxxxxxxxxxx |xxxxxxxxxxxxx |       0.7731 |       0.7731 |       0.7731 |xxxxxxxxxxxxx |xxxxxxxxxxxxx |xxxxxxxxxxxxx |xxxxxxxxxxxxx |       0.7692 |       0.7692 |       0.7692 |
bpred_bimod.bpred_jr_rate                   0.9828 |       0.9828 |       0.9828 |xxxxxxxxxxxxx |xxxxxxxxxxxxx |xxxxxxxxxxxxx |xxxxxxxxxxxxx |       0.9828 |       0.9828 |       0.9828 |xxxxxxxxxxxxx |xxxxxxxxxxxxx |xxxxxxxxxxxxx |xxxxxxxxxxxxx |       0.9828 |       0.9828 |       0.9828 |xxxxxxxxxxxxx |xxxxxxxxxxxxx |xxxxxxxxxxxxx |xxxxxxxxxxxxx |       0.9828 |       0.9828 |       0.9828 |xxxxxxxxxxxxx |xxxxxxxxxxxxx |xxxxxxxxxxxxx |xxxxxxxxxxxxx |       0.9828 |       0.9828 |       0.9828 |xxxxxxxxxxxxx |xxxxxxxxxxxxx |xxxxxxxxxxxxx |xxxxxxxxxxxxx |       0.9828 |       0.9828 |       0.9828 |xxxxxxxxxxxxx |xxxxxxxxxxxxx |xxxxxxxxxxxxx |xxxxxxxxxxxxx |       0.9828 |       0.9828 |       0.9828 |xxxxxxxxxxxxx |xxxxxxxxxxxxx |xxxxxxxxxxxxx |xxxxxxxxxxxxx |       0.9828 |       0.9828 |       0.9828 |xxxxxxxxxxxxx |xxxxxxxxxxxxx |xxxxxxxxxxxxx |xxxxxxxxxxxxx |       0.9828 |       0.9828 |       0.9828 |xxxxxxxxxxxxx |xxxxxxxxxxxxx |xxxxxxxxxxxxx |xxxxxxxxxxxxx |       0.9828 |       0.9828 |       0.9828 |xxxxxxxxxxxxx |xxxxxxxxxxxxx |xxxxxxxxxxxxx |xxxxxxxxxxxxx |       0.9828 |       0.9828 |       0.9828 |
bpred_bimod.bpred_jr_non_ras_rate.PP       <error: |      <error: |      <error: |xxxxxxxxxxxxx |xxxxxxxxxxxxx |xxxxxxxxxxxxx |xxxxxxxxxxxxx |      <error: |      <error: |      <error: |xxxxxxxxxxxxx |xxxxxxxxxxxxx |xxxxxxxxxxxxx |xxxxxxxxxxxxx |      <error: |      <error: |      <error: |xxxxxxxxxxxxx |xxxxxxxxxxxxx |xxxxxxxxxxxxx |xxxxxxxxxxxxx |      <error: |      <error: |      <error: |xxxxxxxxxxxxx |xxxxxxxxxxxxx |xxxxxxxxxxxxx |xxxxxxxxxxxxx |      <error: |      <error: |      <error: |xxxxxxxxxxxxx |xxxxxxxxxxxxx |xxxxxxxxxxxxx |xxxxxxxxxxxxx |      <error: |      <error: |      <error: |xxxxxxxxxxxxx |xxxxxxxxxxxxx |xxxxxxxxxxxxx |xxxxxxxxxxxxx |      <error: |      <error: |      <error: |xxxxxxxxxxxxx |xxxxxxxxxxxxx |xxxxxxxxxxxxx |xxxxxxxxxxxxx |      <error: |      <error: |      <error: |xxxxxxxxxxxxx |xxxxxxxxxxxxx |xxxxxxxxxxxxx |xxxxxxxxxxxxx |      <error: |      <error: |      <error: |xxxxxxxxxxxxx |xxxxxxxxxxxxx |xxxxxxxxxxxxx |xxxxxxxxxxxxx |      <error: |      <error: |      <error: |xxxxxxxxxxxxx |xxxxxxxxxxxxx |xxxxxxxxxxxxx |xxxxxxxxxxxxx |      <error: |      <error: |      <error: |
bpred_bimod.retstack_pushes                     60 |           60 |           60 |xxxxxxxxxxxxx |xxxxxxxxxxxxx |xxxxxxxxxxxxx |xxxxxxxxxxxxx |           60 |           60 |           60 |xxxxxxxxxxxxx |xxxxxxxxxxxxx |xxxxxxxxxxxxx |xxxxxxxxxxxxx |           60 |           60 |           60 |xxxxxxxxxxxxx |xxxxxxxxxxxxx |xxxxxxxxxxxxx |xxxxxxxxxxxxx |           60 |           60 |           60 |xxxxxxxxxxxxx |xxxxxxxxxxxxx |xxxxxxxxxxxxx |xxxxxxxxxxxxx |           60 |           60 |           60 |xxxxxxxxxxxxx |xxxxxxxxxxxxx |xxxxxxxxxxxxx |xxxxxxxxxxxxx |           60 |           60 |           60 |xxxxxxxxxxxxx |xxxxxxxxxxxxx |xxxxxxxxxxxxx |xxxxxxxxxxxxx |           60 |           60 |           60 |xxxxxxxxxxxxx |xxxxxxxxxxxxx |xxxxxxxxxxxxx |xxxxxxxxxxxxx |           60 |           60 |           60 |xxxxxxxxxxxxx |xxxxxxxxxxxxx |xxxxxxxxxxxxx |xxxxxxxxxxxxx |           60 |           60 |           60 |xxxxxxxxxxxxx |xxxxxxxxxxxxx |xxxxxxxxxxxxx |xxxxxxxxxxxxx |           60 |           60 |           60 |xxxxxxxxxxxxx |xxxxxxxxxxxxx |xxxxxxxxxxxxx |xxxxxxxxxxxxx |           60 |           60 |           60 |
bpred_bimod.retstack_pops                       58 |           58 |           58 |xxxxxxxxxxxxx |xxxxxxxxxxxxx |xxxxxxxxxxxxx |xxxxxxxxxxxxx |           58 |           58 |           58 |xxxxxxxxxxxxx |xxxxxxxxxxxxx |xxxxxxxxxxxxx |xxxxxxxxxxxxx |           58 |           58 |           58 |xxxxxxxxxxxxx |xxxxxxxxxxxxx |xxxxxxxxxxxxx |xxxxxxxxxxxxx |           58 |           58 |           58 |xxxxxxxxxxxxx |xxxxxxxxxxxxx |xxxxxxxxxxxxx |xxxxxxxxxxxxx |           58 |           58 |           58 |xxxxxxxxxxxxx |xxxxxxxxxxxxx |xxxxxxxxxxxxx |xxxxxxxxxxxxx |           58 |           58 |           58 |xxxxxxxxxxxxx |xxxxxxxxxxxxx |xxxxxxxxxxxxx |xxxxxxxxxxxxx |           58 |           58 |           58 |xxxxxxxxxxxxx |xxxxxxxxxxxxx |xxxxxxxxxxxxx |xxxxxxxxxxxxx |           58 |           58 |           58 |xxxxxxxxxxxxx |xxxxxxxxxxxxx |xxxxxxxxxxxxx |xxxxxxxxxxxxx |           58 |           58 |           58 |xxxxxxxxxxxxx |xxxxxxxxxxxxx |xxxxxxxxxxxxx |xxxxxxxxxxxxx |           58 |           58 |           58 |xxxxxxxxxxxxx |xxxxxxxxxxxxx |xxxxxxxxxxxxx |xxxxxxxxxxxxx |           58 |           58 |           58 |
bpred_bimod.used_ras.PP                         58 |           58 |           58 |xxxxxxxxxxxxx |xxxxxxxxxxxxx |xxxxxxxxxxxxx |xxxxxxxxxxxxx |           58 |           58 |           58 |xxxxxxxxxxxxx |xxxxxxxxxxxxx |xxxxxxxxxxxxx |xxxxxxxxxxxxx |           58 |           58 |           58 |xxxxxxxxxxxxx |xxxxxxxxxxxxx |xxxxxxxxxxxxx |xxxxxxxxxxxxx |           58 |           58 |           58 |xxxxxxxxxxxxx |xxxxxxxxxxxxx |xxxxxxxxxxxxx |xxxxxxxxxxxxx |           58 |           58 |           58 |xxxxxxxxxxxxx |xxxxxxxxxxxxx |xxxxxxxxxxxxx |xxxxxxxxxxxxx |           58 |           58 |           58 |xxxxxxxxxxxxx |xxxxxxxxxxxxx |xxxxxxxxxxxxx |xxxxxxxxxxxxx |           58 |           58 |           58 |xxxxxxxxxxxxx |xxxxxxxxxxxxx |xxxxxxxxxxxxx |xxxxxxxxxxxxx |           58 |           58 |           58 |xxxxxxxxxxxxx |xxxxxxxxxxxxx |xxxxxxxxxxxxx |xxxxxxxxxxxxx |           58 |           58 |           58 |xxxxxxxxxxxxx |xxxxxxxxxxxxx |xxxxxxxxxxxxx |xxxxxxxxxxxxx |           58 |           58 |           58 |xxxxxxxxxxxxx |xxxxxxxxxxxxx |xxxxxxxxxxxxx |xxxxxxxxxxxxx |           58 |           58 |           58 |
bpred_bimod.ras_hits.PP                         57 |           57 |           57 |xxxxxxxxxxxxx |xxxxxxxxxxxxx |xxxxxxxxxxxxx |xxxxxxxxxxxxx |           57 |           57 |           57 |xxxxxxxxxxxxx |xxxxxxxxxxxxx |xxxxxxxxxxxxx |xxxxxxxxxxxxx |           57 |           57 |           57 |xxxxxxxxxxxxx |xxxxxxxxxxxxx |xxxxxxxxxxxxx |xxxxxxxxxxxxx |           57 |           57 |           57 |xxxxxxxxxxxxx |xxxxxxxxxxxxx |xxxxxxxxxxxxx |xxxxxxxxxxxxx |           57 |           57 |           57 |xxxxxxxxxxxxx |xxxxxxxxxxxxx |xxxxxxxxxxxxx |xxxxxxxxxxxxx |           57 |           57 |           57 |xxxxxxxxxxxxx |xxxxxxxxxxxxx |xxxxxxxxxxxxx |xxxxxxxxxxxxx |           57 |           57 |           57 |xxxxxxxxxxxxx |xxxxxxxxxxxxx |xxxxxxxxxxxxx |xxxxxxxxxxxxx |           57 |           57 |           57 |xxxxxxxxxxxxx |xxxxxxxxxxxxx |xxxxxxxxxxxxx |xxxxxxxxxxxxx |           57 |           57 |           57 |xxxxxxxxxxxxx |xxxxxxxxxxxxx |xxxxxxxxxxxxx |xxxxxxxxxxxxx |           57 |           57 |           57 |xxxxxxxxxxxxx |xxxxxxxxxxxxx |xxxxxxxxxxxxx |xxxxxxxxxxxxx |           57 |           57 |           57 |
bpred_bimod.ras_rate.PP                     0.9828 |       0.9828 |       0.9828 |xxxxxxxxxxxxx |xxxxxxxxxxxxx |xxxxxxxxxxxxx |xxxxxxxxxxxxx |       0.9828 |       0.9828 |       0.9828 |xxxxxxxxxxxxx |xxxxxxxxxxxxx |xxxxxxxxxxxxx |xxxxxxxxxxxxx |       0.9828 |       0.9828 |       0.9828 |xxxxxxxxxxxxx |xxxxxxxxxxxxx |xxxxxxxxxxxxx |xxxxxxxxxxxxx |       0.9828 |       0.9828 |       0.9828 |xxxxxxxxxxxxx |xxxxxxxxxxxxx |xxxxxxxxxxxxx |xxxxxxxxxxxxx |       0.9828 |       0.9828 |       0.9828 |xxxxxxxxxxxxx |xxxxxxxxxxxxx |xxxxxxxxxxxxx |xxxxxxxxxxxxx |       0.9828 |       0.9828 |       0.9828 |xxxxxxxxxxxxx |xxxxxxxxxxxxx |xxxxxxxxxxxxx |xxxxxxxxxxxxx |       0.9828 |       0.9828 |       0.9828 |xxxxxxxxxxxxx |xxxxxxxxxxxxx |xxxxxxxxxxxxx |xxxxxxxxxxxxx |       0.9828 |       0.9828 |       0.9828 |xxxxxxxxxxxxx |xxxxxxxxxxxxx |xxxxxxxxxxxxx |xxxxxxxxxxxxx |       0.9828 |       0.9828 |       0.9828 |xxxxxxxxxxxxx |xxxxxxxxxxxxx |xxxxxxxxxxxxx |xxxxxxxxxxxxx |       0.9828 |       0.9828 |       0.9828 |xxxxxxxxxxxxx |xxxxxxxxxxxxx |xxxxxxxxxxxxx |xxxxxxxxxxxxx |       0.9828 |       0.9828 |       0.9828 |
bpred_2lev.lookups                   xxxxxxxxxxxxx |xxxxxxxxxxxxx |xxxxxxxxxxxxx |       145375 |       145375 |       145375 |       145375 |xxxxxxxxxxxxx |xxxxxxxxxxxxx |xxxxxxxxxxxxx |       323373 |       323373 |       323373 |       323373 |xxxxxxxxxxxxx |xxxxxxxxxxxxx |xxxxxxxxxxxxx |       744079 |       744079 |       744079 |       744079 |xxxxxxxxxxxxx |xxxxxxxxxxxxx |xxxxxxxxxxxxx |      1628137 |      1628137 |      1628137 |      1628137 |xxxxxxxxxxxxx |xxxxxxxxxxxxx |xxxxxxxxxxxxx |      3440236 |      3440236 |      3440236 |      3440236 |xxxxxxxxxxxxx |xxxxxxxxxxxxx |xxxxxxxxxxxxx |      7695463 |      7695463 |      7695463 |      7695463 |xxxxxxxxxxxxx |xxxxxxxxxxxxx |xxxxxxxxxxxxx |     15913718 |     15913718 |     15913718 |     15913718 |xxxxxxxxxxxxx |xxxxxxxxxxxxx |xxxxxxxxxxxxx |     34284896 |     34284896 |     34284896 |     34284896 |xxxxxxxxxxxxx |xxxxxxxxxxxxx |xxxxxxxxxxxxx |     72917774 |     72917774 |     72917774 |     72917774 |xxxxxxxxxxxxx |xxxxxxxxxxxxx |xxxxxxxxxxxxx |    156607102 |    156607102 |    156607102 |    156607102 |xxxxxxxxxxxxx |xxxxxxxxxxxxx |xxxxxxxxxxxxx |    328245749 |    328245749 |    328245749 |    328245749 |
[...]
bpred_2lev.retstack_pushes           xxxxxxxxxxxxx |xxxxxxxxxxxxx |xxxxxxxxxxxxx |           60 |           60 |           60 |           60 |xxxxxxxxxxxxx |xxxxxxxxxxxxx |xxxxxxxxxxxxx |           60 |           60 |           60 |           60 |xxxxxxxxxxxxx |xxxxxxxxxxxxx |xxxxxxxxxxxxx |           60 |           60 |           60 |           60 |xxxxxxxxxxxxx |xxxxxxxxxxxxx |xxxxxxxxxxxxx |           60 |           60 |           60 |           60 |xxxxxxxxxxxxx |xxxxxxxxxxxxx |xxxxxxxxxxxxx |           60 |           60 |           60 |           60 |xxxxxxxxxxxxx |xxxxxxxxxxxxx |xxxxxxxxxxxxx |           60 |           60 |           60 |           60 |xxxxxxxxxxxxx |xxxxxxxxxxxxx |xxxxxxxxxxxxx |           60 |           60 |           60 |           60 |xxxxxxxxxxxxx |xxxxxxxxxxxxx |xxxxxxxxxxxxx |           60 |           60 |           60 |           60 |xxxxxxxxxxxxx |xxxxxxxxxxxxx |xxxxxxxxxxxxx |           60 |           60 |           60 |           60 |xxxxxxxxxxxxx |xxxxxxxxxxxxx |xxxxxxxxxxxxx |           60 |           60 |           60 |           60 |xxxxxxxxxxxxx |xxxxxxxxxxxxx |xxxxxxxxxxxxx |           60 |           60 |           60 |           60 |
bpred_2lev.retstack_pops             xxxxxxxxxxxxx |xxxxxxxxxxxxx |xxxxxxxxxxxxx |           58 |           58 |           58 |           58 |xxxxxxxxxxxxx |xxxxxxxxxxxxx |xxxxxxxxxxxxx |           58 |           58 |           58 |           58 |xxxxxxxxxxxxx |xxxxxxxxxxxxx |xxxxxxxxxxxxx |           58 |           58 |           58 |           58 |xxxxxxxxxxxxx |xxxxxxxxxxxxx |xxxxxxxxxxxxx |           58 |           58 |           58 |           58 |xxxxxxxxxxxxx |xxxxxxxxxxxxx |xxxxxxxxxxxxx |           58 |           58 |           58 |           58 |xxxxxxxxxxxxx |xxxxxxxxxxxxx |xxxxxxxxxxxxx |           58 |           58 |           58 |           58 |xxxxxxxxxxxxx |xxxxxxxxxxxxx |xxxxxxxxxxxxx |           58 |           58 |           58 |           58 |xxxxxxxxxxxxx |xxxxxxxxxxxxx |xxxxxxxxxxxxx |           58 |           58 |           58 |           58 |xxxxxxxxxxxxx |xxxxxxxxxxxxx |xxxxxxxxxxxxx |           58 |           58 |           58 |           58 |xxxxxxxxxxxxx |xxxxxxxxxxxxx |xxxxxxxxxxxxx |           58 |           58 |           58 |           58 |xxxxxxxxxxxxx |xxxxxxxxxxxxx |xxxxxxxxxxxxx |           58 |           58 |           58 |           58 |
bpred_2lev.used_ras.PP               xxxxxxxxxxxxx |xxxxxxxxxxxxx |xxxxxxxxxxxxx |           58 |           58 |           58 |           58 |xxxxxxxxxxxxx |xxxxxxxxxxxxx |xxxxxxxxxxxxx |           58 |           58 |           58 |           58 |xxxxxxxxxxxxx |xxxxxxxxxxxxx |xxxxxxxxxxxxx |           58 |           58 |           58 |           58 |xxxxxxxxxxxxx |xxxxxxxxxxxxx |xxxxxxxxxxxxx |           58 |           58 |           58 |           58 |xxxxxxxxxxxxx |xxxxxxxxxxxxx |xxxxxxxxxxxxx |           58 |           58 |           58 |           58 |xxxxxxxxxxxxx |xxxxxxxxxxxxx |xxxxxxxxxxxxx |           58 |           58 |           58 |           58 |xxxxxxxxxxxxx |xxxxxxxxxxxxx |xxxxxxxxxxxxx |           58 |           58 |           58 |           58 |xxxxxxxxxxxxx |xxxxxxxxxxxxx |xxxxxxxxxxxxx |           58 |           58 |           58 |           58 |xxxxxxxxxxxxx |xxxxxxxxxxxxx |xxxxxxxxxxxxx |           58 |           58 |           58 |           58 |xxxxxxxxxxxxx |xxxxxxxxxxxxx |xxxxxxxxxxxxx |           58 |           58 |           58 |           58 |xxxxxxxxxxxxx |xxxxxxxxxxxxx |xxxxxxxxxxxxx |           58 |           58 |           58 |           58 |
bpred_2lev.ras_hits.PP               xxxxxxxxxxxxx |xxxxxxxxxxxxx |xxxxxxxxxxxxx |           57 |           57 |           57 |           57 |xxxxxxxxxxxxx |xxxxxxxxxxxxx |xxxxxxxxxxxxx |           57 |           57 |           57 |           57 |xxxxxxxxxxxxx |xxxxxxxxxxxxx |xxxxxxxxxxxxx |           57 |           57 |           57 |           57 |xxxxxxxxxxxxx |xxxxxxxxxxxxx |xxxxxxxxxxxxx |           57 |           57 |           57 |           57 |xxxxxxxxxxxxx |xxxxxxxxxxxxx |xxxxxxxxxxxxx |           57 |           57 |           57 |           57 |xxxxxxxxxxxxx |xxxxxxxxxxxxx |xxxxxxxxxxxxx |           57 |           57 |           57 |           57 |xxxxxxxxxxxxx |xxxxxxxxxxxxx |xxxxxxxxxxxxx |           57 |           57 |           57 |           57 |xxxxxxxxxxxxx |xxxxxxxxxxxxx |xxxxxxxxxxxxx |           57 |           57 |           57 |           57 |xxxxxxxxxxxxx |xxxxxxxxxxxxx |xxxxxxxxxxxxx |           57 |           57 |           57 |           57 |xxxxxxxxxxxxx |xxxxxxxxxxxxx |xxxxxxxxxxxxx |           57 |           57 |           57 |           57 |xxxxxxxxxxxxx |xxxxxxxxxxxxx |xxxxxxxxxxxxx |           57 |           57 |           57 |           57 |
bpred_2lev.ras_rate.PP               xxxxxxxxxxxxx |xxxxxxxxxxxxx |xxxxxxxxxxxxx |       0.9828 |       0.9828 |       0.9828 |       0.9828 |xxxxxxxxxxxxx |xxxxxxxxxxxxx |xxxxxxxxxxxxx |       0.9828 |       0.9828 |       0.9828 |       0.9828 |xxxxxxxxxxxxx |xxxxxxxxxxxxx |xxxxxxxxxxxxx |       0.9828 |       0.9828 |       0.9828 |       0.9828 |xxxxxxxxxxxxx |xxxxxxxxxxxxx |xxxxxxxxxxxxx |       0.9828 |       0.9828 |       0.9828 |       0.9828 |xxxxxxxxxxxxx |xxxxxxxxxxxxx |xxxxxxxxxxxxx |       0.9828 |       0.9828 |       0.9828 |       0.9828 |xxxxxxxxxxxxx |xxxxxxxxxxxxx |xxxxxxxxxxxxx |       0.9828 |       0.9828 |       0.9828 |       0.9828 |xxxxxxxxxxxxx |xxxxxxxxxxxxx |xxxxxxxxxxxxx |       0.9828 |       0.9828 |       0.9828 |       0.9828 |xxxxxxxxxxxxx |xxxxxxxxxxxxx |xxxxxxxxxxxxx |       0.9828 |       0.9828 |       0.9828 |       0.9828 |xxxxxxxxxxxxx |xxxxxxxxxxxxx |xxxxxxxxxxxxx |       0.9828 |       0.9828 |       0.9828 |       0.9828 |xxxxxxxxxxxxx |xxxxxxxxxxxxx |xxxxxxxxxxxxx |       0.9828 |       0.9828 |       0.9828 |       0.9828 |xxxxxxxxxxxxx |xxxxxxxxxxxxx |xxxxxxxxxxxxx |       0.9828 |       0.9828 |       0.9828 |       0.9828 |

Command list: 
	sslittle-na-sstrix-gcc -Wall -O3 -funroll-loops -finline-functions  -DRANDOM_SIZE=4096 -DOFFSET=0 -DSORT=improved_shellsort improved_shellsort1810441737.c simpleMain.c -o improved_shellsort637215990
	sim-cache -cache:dl1 dl1:256:32:1:l -cache:dl2 dl2:131072:32:1:l -cache:il1 il1:256:32:1:l -cache:il2 dl2 improved_shellsort637215990
	sim-cache -cache:dl1 dl1:256:32:1:l -cache:dl2 dl2:65536:32:1:l -cache:il1 il1:256:32:1:l -cache:il2 dl2 improved_shellsort637215990
	sim-cache -cache:dl1 dl1:1:32:256:l -cache:dl2 dl2:1:32:131072:l -cache:il1 il1:1:32:256:l -cache:il2 dl2 improved_shellsort637215990
	sim-cache -cache:dl1 dl1:1:32:256:l -cache:dl2 dl2:1:32:65536:l -cache:il1 il1:1:32:256:l -cache:il2 dl2 improved_shellsort637215990
	sim-bpred -bpred bimod -bpred:bimod 512 improved_shellsort637215990
	sim-bpred -bpred bimod -bpred:bimod 1024 improved_shellsort637215990
	sim-bpred -bpred bimod -bpred:bimod 2048 improved_shellsort637215990
	sim-bpred -bpred 2lev -bpred:2lev 1 512 10 1 improved_shellsort637215990
	sim-bpred -bpred 2lev -bpred:2lev 1 1024 10 1 improved_shellsort637215990
	sim-bpred -bpred 2lev -bpred:2lev 1 2048 10 1 improved_shellsort637215990
	sim-bpred -bpred 2lev -bpred:2lev 1 4096 10 1 improved_shellsort637215990
	sslittle-na-sstrix-gcc -Wall -O3 -funroll-loops -finline-functions  -DRANDOM_SIZE=8192 -DOFFSET=0 -DSORT=improved_shellsort improved_shellsort1810441737.c simpleMain.c -o improved_shellsort637215990
	sim-cache -cache:dl1 dl1:256:32:1:l -cache:dl2 dl2:131072:32:1:l -cache:il1 il1:256:32:1:l -cache:il2 dl2 improved_shellsort637215990
	sim-cache -cache:dl1 dl1:256:32:1:l -cache:dl2 dl2:65536:32:1:l -cache:il1 il1:256:32:1:l -cache:il2 dl2 improved_shellsort637215990
	sim-cache -cache:dl1 dl1:1:32:256:l -cache:dl2 dl2:1:32:131072:l -cache:il1 il1:1:32:256:l -cache:il2 dl2 improved_shellsort637215990
	sim-cache -cache:dl1 dl1:1:32:256:l -cache:dl2 dl2:1:32:65536:l -cache:il1 il1:1:32:256:l -cache:il2 dl2 improved_shellsort637215990
	sim-bpred -bpred bimod -bpred:bimod 512 improved_shellsort637215990
	sim-bpred -bpred bimod -bpred:bimod 1024 improved_shellsort637215990
	sim-bpred -bpred bimod -bpred:bimod 2048 improved_shellsort637215990
	sim-bpred -bpred 2lev -bpred:2lev 1 512 10 1 improved_shellsort637215990
	sim-bpred -bpred 2lev -bpred:2lev 1 1024 10 1 improved_shellsort637215990
	sim-bpred -bpred 2lev -bpred:2lev 1 2048 10 1 improved_shellsort637215990
	sim-bpred -bpred 2lev -bpred:2lev 1 4096 10 1 improved_shellsort637215990
	sslittle-na-sstrix-gcc -Wall -O3 -funroll-loops -finline-functions  -DRANDOM_SIZE=16384 -DOFFSET=0 -DSORT=improved_shellsort improved_shellsort1810441737.c simpleMain.c -o improved_shellsort637215990
	sim-cache -cache:dl1 dl1:256:32:1:l -cache:dl2 dl2:131072:32:1:l -cache:il1 il1:256:32:1:l -cache:il2 dl2 improved_shellsort637215990
	sim-cache -cache:dl1 dl1:256:32:1:l -cache:dl2 dl2:65536:32:1:l -cache:il1 il1:256:32:1:l -cache:il2 dl2 improved_shellsort637215990
	sim-cache -cache:dl1 dl1:1:32:256:l -cache:dl2 dl2:1:32:131072:l -cache:il1 il1:1:32:256:l -cache:il2 dl2 improved_shellsort637215990
	sim-cache -cache:dl1 dl1:1:32:256:l -cache:dl2 dl2:1:32:65536:l -cache:il1 il1:1:32:256:l -cache:il2 dl2 improved_shellsort637215990
	sim-bpred -bpred bimod -bpred:bimod 512 improved_shellsort637215990
	sim-bpred -bpred bimod -bpred:bimod 1024 improved_shellsort637215990
	sim-bpred -bpred bimod -bpred:bimod 2048 improved_shellsort637215990
	sim-bpred -bpred 2lev -bpred:2lev 1 512 10 1 improved_shellsort637215990
	sim-bpred -bpred 2lev -bpred:2lev 1 1024 10 1 improved_shellsort637215990
	sim-bpred -bpred 2lev -bpred:2lev 1 2048 10 1 improved_shellsort637215990
	sim-bpred -bpred 2lev -bpred:2lev 1 4096 10 1 improved_shellsort637215990
	sslittle-na-sstrix-gcc -Wall -O3 -funroll-loops -finline-functions  -DRANDOM_SIZE=32768 -DOFFSET=0 -DSORT=improved_shellsort improved_shellsort1810441737.c simpleMain.c -o improved_shellsort637215990
	sim-cache -cache:dl1 dl1:256:32:1:l -cache:dl2 dl2:131072:32:1:l -cache:il1 il1:256:32:1:l -cache:il2 dl2 improved_shellsort637215990
	sim-cache -cache:dl1 dl1:256:32:1:l -cache:dl2 dl2:65536:32:1:l -cache:il1 il1:256:32:1:l -cache:il2 dl2 improved_shellsort637215990
	sim-cache -cache:dl1 dl1:1:32:256:l -cache:dl2 dl2:1:32:131072:l -cache:il1 il1:1:32:256:l -cache:il2 dl2 improved_shellsort637215990
	sim-cache -cache:dl1 dl1:1:32:256:l -cache:dl2 dl2:1:32:65536:l -cache:il1 il1:1:32:256:l -cache:il2 dl2 improved_shellsort637215990
	sim-bpred -bpred bimod -bpred:bimod 512 improved_shellsort637215990
	sim-bpred -bpred bimod -bpred:bimod 1024 improved_shellsort637215990
	sim-bpred -bpred bimod -bpred:bimod 2048 improved_shellsort637215990
	sim-bpred -bpred 2lev -bpred:2lev 1 512 10 1 improved_shellsort637215990
	sim-bpred -bpred 2lev -bpred:2lev 1 1024 10 1 improved_shellsort637215990
	sim-bpred -bpred 2lev -bpred:2lev 1 2048 10 1 improved_shellsort637215990
	sim-bpred -bpred 2lev -bpred:2lev 1 4096 10 1 improved_shellsort637215990
	sslittle-na-sstrix-gcc -Wall -O3 -funroll-loops -finline-functions  -DRANDOM_SIZE=65536 -DOFFSET=0 -DSORT=improved_shellsort improved_shellsort1810441737.c simpleMain.c -o improved_shellsort637215990
	sim-cache -cache:dl1 dl1:256:32:1:l -cache:dl2 dl2:131072:32:1:l -cache:il1 il1:256:32:1:l -cache:il2 dl2 improved_shellsort637215990
	sim-cache -cache:dl1 dl1:256:32:1:l -cache:dl2 dl2:65536:32:1:l -cache:il1 il1:256:32:1:l -cache:il2 dl2 improved_shellsort637215990
	sim-cache -cache:dl1 dl1:1:32:256:l -cache:dl2 dl2:1:32:131072:l -cache:il1 il1:1:32:256:l -cache:il2 dl2 improved_shellsort637215990
	sim-cache -cache:dl1 dl1:1:32:256:l -cache:dl2 dl2:1:32:65536:l -cache:il1 il1:1:32:256:l -cache:il2 dl2 improved_shellsort637215990
	sim-bpred -bpred bimod -bpred:bimod 512 improved_shellsort637215990
	sim-bpred -bpred bimod -bpred:bimod 1024 improved_shellsort637215990
	sim-bpred -bpred bimod -bpred:bimod 2048 improved_shellsort637215990
	sim-bpred -bpred 2lev -bpred:2lev 1 512 10 1 improved_shellsort637215990
	sim-bpred -bpred 2lev -bpred:2lev 1 1024 10 1 improved_shellsort637215990
	sim-bpred -bpred 2lev -bpred:2lev 1 2048 10 1 improved_shellsort637215990
	sim-bpred -bpred 2lev -bpred:2lev 1 4096 10 1 improved_shellsort637215990
	sslittle-na-sstrix-gcc -Wall -O3 -funroll-loops -finline-functions  -DRANDOM_SIZE=131072 -DOFFSET=0 -DSORT=improved_shellsort improved_shellsort1810441737.c simpleMain.c -o improved_shellsort637215990
	sim-cache -cache:dl1 dl1:256:32:1:l -cache:dl2 dl2:131072:32:1:l -cache:il1 il1:256:32:1:l -cache:il2 dl2 improved_shellsort637215990
	sim-cache -cache:dl1 dl1:256:32:1:l -cache:dl2 dl2:65536:32:1:l -cache:il1 il1:256:32:1:l -cache:il2 dl2 improved_shellsort637215990
	sim-cache -cache:dl1 dl1:1:32:256:l -cache:dl2 dl2:1:32:131072:l -cache:il1 il1:1:32:256:l -cache:il2 dl2 improved_shellsort637215990
	sim-cache -cache:dl1 dl1:1:32:256:l -cache:dl2 dl2:1:32:65536:l -cache:il1 il1:1:32:256:l -cache:il2 dl2 improved_shellsort637215990
	sim-bpred -bpred bimod -bpred:bimod 512 improved_shellsort637215990
	sim-bpred -bpred bimod -bpred:bimod 1024 improved_shellsort637215990
	sim-bpred -bpred bimod -bpred:bimod 2048 improved_shellsort637215990
	sim-bpred -bpred 2lev -bpred:2lev 1 512 10 1 improved_shellsort637215990
	sim-bpred -bpred 2lev -bpred:2lev 1 1024 10 1 improved_shellsort637215990
	sim-bpred -bpred 2lev -bpred:2lev 1 2048 10 1 improved_shellsort637215990
	sim-bpred -bpred 2lev -bpred:2lev 1 4096 10 1 improved_shellsort637215990
	sslittle-na-sstrix-gcc -Wall -O3 -funroll-loops -finline-functions  -DRANDOM_SIZE=262144 -DOFFSET=0 -DSORT=improved_shellsort improved_shellsort1810441737.c simpleMain.c -o improved_shellsort637215990
	sim-cache -cache:dl1 dl1:256:32:1:l -cache:dl2 dl2:131072:32:1:l -cache:il1 il1:256:32:1:l -cache:il2 dl2 improved_shellsort637215990
	sim-cache -cache:dl1 dl1:256:32:1:l -cache:dl2 dl2:65536:32:1:l -cache:il1 il1:256:32:1:l -cache:il2 dl2 improved_shellsort637215990
	sim-cache -cache:dl1 dl1:1:32:256:l -cache:dl2 dl2:1:32:131072:l -cache:il1 il1:1:32:256:l -cache:il2 dl2 improved_shellsort637215990
	sim-cache -cache:dl1 dl1:1:32:256:l -cache:dl2 dl2:1:32:65536:l -cache:il1 il1:1:32:256:l -cache:il2 dl2 improved_shellsort637215990
	sim-bpred -bpred bimod -bpred:bimod 512 improved_shellsort637215990
	sim-bpred -bpred bimod -bpred:bimod 1024 improved_shellsort637215990
	sim-bpred -bpred bimod -bpred:bimod 2048 improved_shellsort637215990
	sim-bpred -bpred 2lev -bpred:2lev 1 512 10 1 improved_shellsort637215990
	sim-bpred -bpred 2lev -bpred:2lev 1 1024 10 1 improved_shellsort637215990
	sim-bpred -bpred 2lev -bpred:2lev 1 2048 10 1 improved_shellsort637215990
	sim-bpred -bpred 2lev -bpred:2lev 1 4096 10 1 improved_shellsort637215990
	sslittle-na-sstrix-gcc -Wall -O3 -funroll-loops -finline-functions  -DRANDOM_SIZE=524288 -DOFFSET=0 -DSORT=improved_shellsort improved_shellsort1810441737.c simpleMain.c -o improved_shellsort637215990
	sim-cache -cache:dl1 dl1:256:32:1:l -cache:dl2 dl2:131072:32:1:l -cache:il1 il1:256:32:1:l -cache:il2 dl2 improved_shellsort637215990
	sim-cache -cache:dl1 dl1:256:32:1:l -cache:dl2 dl2:65536:32:1:l -cache:il1 il1:256:32:1:l -cache:il2 dl2 improved_shellsort637215990
	sim-cache -cache:dl1 dl1:1:32:256:l -cache:dl2 dl2:1:32:131072:l -cache:il1 il1:1:32:256:l -cache:il2 dl2 improved_shellsort637215990
	sim-cache -cache:dl1 dl1:1:32:256:l -cache:dl2 dl2:1:32:65536:l -cache:il1 il1:1:32:256:l -cache:il2 dl2 improved_shellsort637215990
	sim-bpred -bpred bimod -bpred:bimod 512 improved_shellsort637215990
	sim-bpred -bpred bimod -bpred:bimod 1024 improved_shellsort637215990
	sim-bpred -bpred bimod -bpred:bimod 2048 improved_shellsort637215990
	sim-bpred -bpred 2lev -bpred:2lev 1 512 10 1 improved_shellsort637215990
	sim-bpred -bpred 2lev -bpred:2lev 1 1024 10 1 improved_shellsort637215990
	sim-bpred -bpred 2lev -bpred:2lev 1 2048 10 1 improved_shellsort637215990
	sim-bpred -bpred 2lev -bpred:2lev 1 4096 10 1 improved_shellsort637215990
	sslittle-na-sstrix-gcc -Wall -O3 -funroll-loops -finline-functions  -DRANDOM_SIZE=1048576 -DOFFSET=0 -DSORT=improved_shellsort improved_shellsort1810441737.c simpleMain.c -o improved_shellsort637215990
	sim-cache -cache:dl1 dl1:256:32:1:l -cache:dl2 dl2:131072:32:1:l -cache:il1 il1:256:32:1:l -cache:il2 dl2 improved_shellsort637215990
	sim-cache -cache:dl1 dl1:256:32:1:l -cache:dl2 dl2:65536:32:1:l -cache:il1 il1:256:32:1:l -cache:il2 dl2 improved_shellsort637215990
	sim-cache -cache:dl1 dl1:1:32:256:l -cache:dl2 dl2:1:32:131072:l -cache:il1 il1:1:32:256:l -cache:il2 dl2 improved_shellsort637215990
	sim-cache -cache:dl1 dl1:1:32:256:l -cache:dl2 dl2:1:32:65536:l -cache:il1 il1:1:32:256:l -cache:il2 dl2 improved_shellsort637215990
	sim-bpred -bpred bimod -bpred:bimod 512 improved_shellsort637215990
	sim-bpred -bpred bimod -bpred:bimod 1024 improved_shellsort637215990
	sim-bpred -bpred bimod -bpred:bimod 2048 improved_shellsort637215990
	sim-bpred -bpred 2lev -bpred:2lev 1 512 10 1 improved_shellsort637215990
	sim-bpred -bpred 2lev -bpred:2lev 1 1024 10 1 improved_shellsort637215990
	sim-bpred -bpred 2lev -bpred:2lev 1 2048 10 1 improved_shellsort637215990
	sim-bpred -bpred 2lev -bpred:2lev 1 4096 10 1 improved_shellsort637215990
	sslittle-na-sstrix-gcc -Wall -O3 -funroll-loops -finline-functions  -DRANDOM_SIZE=2097152 -DOFFSET=0 -DSORT=improved_shellsort improved_shellsort1810441737.c simpleMain.c -o improved_shellsort637215990
	sim-cache -cache:dl1 dl1:256:32:1:l -cache:dl2 dl2:131072:32:1:l -cache:il1 il1:256:32:1:l -cache:il2 dl2 improved_shellsort637215990
	sim-cache -cache:dl1 dl1:256:32:1:l -cache:dl2 dl2:65536:32:1:l -cache:il1 il1:256:32:1:l -cache:il2 dl2 improved_shellsort637215990
	sim-cache -cache:dl1 dl1:1:32:256:l -cache:dl2 dl2:1:32:131072:l -cache:il1 il1:1:32:256:l -cache:il2 dl2 improved_shellsort637215990
	sim-cache -cache:dl1 dl1:1:32:256:l -cache:dl2 dl2:1:32:65536:l -cache:il1 il1:1:32:256:l -cache:il2 dl2 improved_shellsort637215990
	sim-bpred -bpred bimod -bpred:bimod 512 improved_shellsort637215990
	sim-bpred -bpred bimod -bpred:bimod 1024 improved_shellsort637215990
	sim-bpred -bpred bimod -bpred:bimod 2048 improved_shellsort637215990
	sim-bpred -bpred 2lev -bpred:2lev 1 512 10 1 improved_shellsort637215990
	sim-bpred -bpred 2lev -bpred:2lev 1 1024 10 1 improved_shellsort637215990
	sim-bpred -bpred 2lev -bpred:2lev 1 2048 10 1 improved_shellsort637215990
	sim-bpred -bpred 2lev -bpred:2lev 1 4096 10 1 improved_shellsort637215990
	sslittle-na-sstrix-gcc -Wall -O3 -funroll-loops -finline-functions  -DRANDOM_SIZE=4194304 -DOFFSET=0 -DSORT=improved_shellsort improved_shellsort1810441737.c simpleMain.c -o improved_shellsort637215990
	sim-cache -cache:dl1 dl1:256:32:1:l -cache:dl2 dl2:131072:32:1:l -cache:il1 il1:256:32:1:l -cache:il2 dl2 improved_shellsort637215990
	sim-cache -cache:dl1 dl1:256:32:1:l -cache:dl2 dl2:65536:32:1:l -cache:il1 il1:256:32:1:l -cache:il2 dl2 improved_shellsort637215990
	sim-cache -cache:dl1 dl1:1:32:256:l -cache:dl2 dl2:1:32:131072:l -cache:il1 il1:1:32:256:l -cache:il2 dl2 improved_shellsort637215990
	sim-cache -cache:dl1 dl1:1:32:256:l -cache:dl2 dl2:1:32:65536:l -cache:il1 il1:1:32:256:l -cache:il2 dl2 improved_shellsort637215990
	sim-bpred -bpred bimod -bpred:bimod 512 improved_shellsort637215990
	sim-bpred -bpred bimod -bpred:bimod 1024 improved_shellsort637215990
	sim-bpred -bpred bimod -bpred:bimod 2048 improved_shellsort637215990
	sim-bpred -bpred 2lev -bpred:2lev 1 512 10 1 improved_shellsort637215990
	sim-bpred -bpred 2lev -bpred:2lev 1 1024 10 1 improved_shellsort637215990
	sim-bpred -bpred 2lev -bpred:2lev 1 2048 10 1 improved_shellsort637215990
	sim-bpred -bpred 2lev -bpred:2lev 1 4096 10 1 improved_shellsort637215990
