Sun Jul  3 06:06:50 2005
Run as: "./do_simple -c random.org3 -o 3 improved_shellsort"
-------------------------------------------------------------------------------------------------
sim-cache                                     4096 |         4096 |         4096 |         4096 |         8192 |         8192 |         8192 |         8192 |        16384 |        16384 |        16384 |        16384 |        32768 |        32768 |        32768 |        32768 |        65536 |        65536 |        65536 |        65536 |       131072 |       131072 |       131072 |       131072 |       262144 |       262144 |       262144 |       262144 |       524288 |       524288 |       524288 |       524288 |      1048576 |      1048576 |      1048576 |      1048576 |      2097152 |      2097152 |      2097152 |      2097152 |      4194304 |      4194304 |      4194304 |      4194304 |
-cache:dl1 dl1:256:32:1:l -cache:dl2 dl2:131072:32:1:l -cache:il1 il1:256:32:1:l -cache:il2 dl2
-cache:dl1 dl1:256:32:1:l -cache:dl2 dl2:65536:32:1:l -cache:il1 il1:256:32:1:l -cache:il2 dl2
-cache:dl1 dl1:1:32:256:l -cache:dl2 dl2:1:32:131072:l -cache:il1 il1:1:32:256:l -cache:il2 dl2
-cache:dl1 dl1:1:32:256:l -cache:dl2 dl2:1:32:65536:l -cache:il1 il1:1:32:256:l -cache:il2 dl2
-------------------------------------------------------------------------------------------------
sim_num_insn                                895577 |       895577 |       895577 |       895577 |      2029345 |      2029345 |      2029345 |      2029345 |      4562785 |      4562785 |      4562785 |      4562785 |      9915543 |      9915543 |      9915543 |      9915543 |     21291274 |     21291274 |     21291274 |     21291274 |     47329554 |     47329554 |     47329554 |     47329554 |     97398043 |     97398043 |     97398043 |     97398043 |    209105303 |    209105303 |    209105303 |    209105303 |    444370580 |    444370580 |    444370580 |    444370580 |    955874204 |    955874204 |    955874204 |    955874204 |   1993605739 |   1993605739 |   1993605739 |   1993605739 |
sim_num_refs                                190938 |       190938 |       190938 |       190938 |       424717 |       424717 |       424717 |       424717 |       920741 |       920741 |       920741 |       920741 |      1982576 |      1982576 |      1982576 |      1982576 |      4630323 |      4630323 |      4630323 |      4630323 |     10116632 |     10116632 |     10116632 |     10116632 |     20077041 |     20077041 |     20077041 |     20077041 |     42454716 |     42454716 |     42454716 |     42454716 |     88470931 |     88470931 |     88470931 |     88470931 |    191300013 |    191300013 |    191300013 |    191300013 |    386181052 |    386181052 |    386181052 |    386181052 |
sim_elapsed_time                                 1 |            1 |            6 |            4 |            1 |            1 |           10 |            5 |            1 |            2 |           15 |            9 |            2 |            3 |           27 |           15 |            6 |            6 |           50 |           27 |           12 |           13 |           95 |           51 |           25 |           25 |          177 |           90 |           54 |           53 |          311 |          141 |          112 |          113 |          463 |          209 |          305 |          243 |          607 |          355 |          505 |          505 |          903 |          650 |
sim_inst_rate                          895577.0000 |  895577.0000 |  149262.8333 |  223894.2500 | 2029345.0000 | 2029345.0000 |  202934.5000 |  405869.0000 | 4562785.0000 | 2281392.5000 |  304185.6667 |  506976.1111 | 4957771.5000 | 3305181.0000 |  367242.3333 |  661036.2000 | 3548545.6667 | 3548545.6667 |  425825.4800 |  788565.7037 | 3944129.5000 | 3640734.9231 |  498205.8316 |  928030.4706 | 3895921.7200 | 3895921.7200 |  550271.4294 | 1082200.4778 | 3872320.4259 | 3945383.0755 |  672364.3183 | 1483016.3333 | 3967594.4643 | 3932483.0088 |  959763.6717 | 2126175.0239 | 3134013.7836 | 3933638.6996 | 1574751.5717 | 2692603.3915 | 3947734.1366 | 3947734.1366 | 2207758.2935 | 3067085.7523 |
il1.accesses                                895577 |       895577 |       895577 |       895577 |      2029345 |      2029345 |      2029345 |      2029345 |      4562785 |      4562785 |      4562785 |      4562785 |      9915543 |      9915543 |      9915543 |      9915543 |     21291274 |     21291274 |     21291274 |     21291274 |     47329554 |     47329554 |     47329554 |     47329554 |     97398043 |     97398043 |     97398043 |     97398043 |    209105303 |    209105303 |    209105303 |    209105303 |    444370580 |    444370580 |    444370580 |    444370580 |    955874204 |    955874204 |    955874204 |    955874204 |   1993605739 |   1993605739 |   1993605739 |   1993605739 |
il1.hits                                    895153 |       895153 |       895213 |       895213 |      2028919 |      2028919 |      2028979 |      2028979 |      4562368 |      4562368 |      4562422 |      4562422 |      9915116 |      9915116 |      9915176 |      9915176 |     21290847 |     21290847 |     21290907 |     21290907 |     47329128 |     47329128 |     47329188 |     47329188 |     97397617 |     97397617 |     97397677 |     97397677 |    209104877 |    209104877 |    209104937 |    209104937 |    444370154 |    444370154 |    444370214 |    444370214 |    955873778 |    955873778 |    955873838 |    955873838 |   1993605313 |   1993605313 |   1993605373 |   1993605373 |
il1.misses                                     424 |          424 |          364 |          364 |          426 |          426 |          366 |          366 |          417 |          417 |          363 |          363 |          427 |          427 |          367 |          367 |          427 |          427 |          367 |          367 |          426 |          426 |          366 |          366 |          426 |          426 |          366 |          366 |          426 |          426 |          366 |          366 |          426 |          426 |          366 |          366 |          426 |          426 |          366 |          366 |          426 |          426 |          366 |          366 |
il1.replacements                               213 |          213 |          108 |          108 |          213 |          213 |          110 |          110 |          207 |          207 |          107 |          107 |          213 |          213 |          111 |          111 |          213 |          213 |          111 |          111 |          212 |          212 |          110 |          110 |          212 |          212 |          110 |          110 |          212 |          212 |          110 |          110 |          212 |          212 |          110 |          110 |          212 |          212 |          110 |          110 |          212 |          212 |          110 |          110 |
il1.writebacks                                   0 |            0 |            0 |            0 |            0 |            0 |            0 |            0 |            0 |            0 |            0 |            0 |            0 |            0 |            0 |            0 |            0 |            0 |            0 |            0 |            0 |            0 |            0 |            0 |            0 |            0 |            0 |            0 |            0 |            0 |            0 |            0 |            0 |            0 |            0 |            0 |            0 |            0 |            0 |            0 |            0 |            0 |            0 |            0 |
il1.invalidations                                0 |            0 |            0 |            0 |            0 |            0 |            0 |            0 |            0 |            0 |            0 |            0 |            0 |            0 |            0 |            0 |            0 |            0 |            0 |            0 |            0 |            0 |            0 |            0 |            0 |            0 |            0 |            0 |            0 |            0 |            0 |            0 |            0 |            0 |            0 |            0 |            0 |            0 |            0 |            0 |            0 |            0 |            0 |            0 |
il1.miss_rate                               0.0005 |       0.0005 |       0.0004 |       0.0004 |       0.0002 |       0.0002 |       0.0002 |       0.0002 |       0.0001 |       0.0001 |       0.0001 |       0.0001 |       0.0000 |       0.0000 |       0.0000 |       0.0000 |       0.0000 |       0.0000 |       0.0000 |       0.0000 |       0.0000 |       0.0000 |       0.0000 |       0.0000 |       0.0000 |       0.0000 |       0.0000 |       0.0000 |       0.0000 |       0.0000 |       0.0000 |       0.0000 |       0.0000 |       0.0000 |       0.0000 |       0.0000 |       0.0000 |       0.0000 |       0.0000 |       0.0000 |       0.0000 |       0.0000 |       0.0000 |       0.0000 |
il1.repl_rate                               0.0002 |       0.0002 |       0.0001 |       0.0001 |       0.0001 |       0.0001 |       0.0001 |       0.0001 |       0.0000 |       0.0000 |       0.0000 |       0.0000 |       0.0000 |       0.0000 |       0.0000 |       0.0000 |       0.0000 |       0.0000 |       0.0000 |       0.0000 |       0.0000 |       0.0000 |       0.0000 |       0.0000 |       0.0000 |       0.0000 |       0.0000 |       0.0000 |       0.0000 |       0.0000 |       0.0000 |       0.0000 |       0.0000 |       0.0000 |       0.0000 |       0.0000 |       0.0000 |       0.0000 |       0.0000 |       0.0000 |       0.0000 |       0.0000 |       0.0000 |       0.0000 |
il1.wb_rate                                 0.0000 |       0.0000 |       0.0000 |       0.0000 |       0.0000 |       0.0000 |       0.0000 |       0.0000 |       0.0000 |       0.0000 |       0.0000 |       0.0000 |       0.0000 |       0.0000 |       0.0000 |       0.0000 |       0.0000 |       0.0000 |       0.0000 |       0.0000 |       0.0000 |       0.0000 |       0.0000 |       0.0000 |       0.0000 |       0.0000 |       0.0000 |       0.0000 |       0.0000 |       0.0000 |       0.0000 |       0.0000 |       0.0000 |       0.0000 |       0.0000 |       0.0000 |       0.0000 |       0.0000 |       0.0000 |       0.0000 |       0.0000 |       0.0000 |       0.0000 |       0.0000 |
il1.inv_rate                                0.0000 |       0.0000 |       0.0000 |       0.0000 |       0.0000 |       0.0000 |       0.0000 |       0.0000 |       0.0000 |       0.0000 |       0.0000 |       0.0000 |       0.0000 |       0.0000 |       0.0000 |       0.0000 |       0.0000 |       0.0000 |       0.0000 |       0.0000 |       0.0000 |       0.0000 |       0.0000 |       0.0000 |       0.0000 |       0.0000 |       0.0000 |       0.0000 |       0.0000 |       0.0000 |       0.0000 |       0.0000 |       0.0000 |       0.0000 |       0.0000 |       0.0000 |       0.0000 |       0.0000 |       0.0000 |       0.0000 |       0.0000 |       0.0000 |       0.0000 |       0.0000 |
dl1.accesses                                207404 |       207404 |       207404 |       207404 |       457567 |       457567 |       457567 |       457567 |       986359 |       986359 |       986359 |       986359 |      2113730 |      2113730 |      2113730 |      2113730 |      4892549 |      4892549 |      4892549 |      4892549 |     10641002 |     10641002 |     10641002 |     10641002 |     21125699 |     21125699 |     21125699 |     21125699 |     44551950 |     44551950 |     44551950 |     44551950 |     92665317 |     92665317 |     92665317 |     92665317 |    199688703 |    199688703 |    199688703 |    199688703 |    402958350 |    402958350 |    402958350 |    402958350 |
dl1.hits                                    201425 |       201425 |       201024 |       201024 |       441893 |       441893 |       441264 |       441264 |       945621 |       945621 |       944365 |       944365 |      2017261 |      2017261 |      2010553 |      2010553 |      4663121 |      4663121 |      4650719 |      4650719 |     10092810 |     10092810 |     10068865 |     10068865 |     19895372 |     19895372 |     19802837 |     19802837 |     41720619 |     41720619 |     41526107 |     41526107 |     86383801 |     86383801 |     85878391 |     85878391 |    185580623 |    185580623 |    185166112 |    185166112 |    372226224 |    372226224 |    372013821 |    372013821 |
dl1.misses                                    5979 |         5979 |         6380 |         6380 |        15674 |        15674 |        16303 |        16303 |        40738 |        40738 |        41994 |        41994 |        96469 |        96469 |       103177 |       103177 |       229428 |       229428 |       241830 |       241830 |       548192 |       548192 |       572137 |       572137 |      1230327 |      1230327 |      1322862 |      1322862 |      2831331 |      2831331 |      3025843 |      3025843 |      6281516 |      6281516 |      6786926 |      6786926 |     14108080 |     14108080 |     14522591 |     14522591 |     30732126 |     30732126 |     30944529 |     30944529 |
dl1.replacements                              5723 |         5723 |         6124 |         6124 |        15418 |        15418 |        16047 |        16047 |        40482 |        40482 |        41738 |        41738 |        96213 |        96213 |       102921 |       102921 |       229172 |       229172 |       241574 |       241574 |       547936 |       547936 |       571881 |       571881 |      1230071 |      1230071 |      1322606 |      1322606 |      2831075 |      2831075 |      3025587 |      3025587 |      6281260 |      6281260 |      6786670 |      6786670 |     14107824 |     14107824 |     14522335 |     14522335 |     30731870 |     30731870 |     30944273 |     30944273 |
dl1.writebacks                                5598 |         5598 |         5905 |         5905 |        14336 |        14336 |        14855 |        14855 |        36417 |        36417 |        37433 |        37433 |        85389 |        85389 |        90877 |        90877 |       199175 |       199175 |       209661 |       209661 |       471800 |       471800 |       492406 |       492406 |      1055131 |      1055131 |      1131048 |      1131048 |      2414392 |      2414392 |      2577727 |      2577727 |      5351137 |      5351137 |      5764091 |      5764091 |     11985937 |     11985937 |     12329875 |     12329875 |     26035809 |     26035809 |     26185822 |     26185822 |
dl1.invalidations                                0 |            0 |            0 |            0 |            0 |            0 |            0 |            0 |            0 |            0 |            0 |            0 |            0 |            0 |            0 |            0 |            0 |            0 |            0 |            0 |            0 |            0 |            0 |            0 |            0 |            0 |            0 |            0 |            0 |            0 |            0 |            0 |            0 |            0 |            0 |            0 |            0 |            0 |            0 |            0 |            0 |            0 |            0 |            0 |
dl1.miss_rate                               0.0288 |       0.0288 |       0.0308 |       0.0308 |       0.0343 |       0.0343 |       0.0356 |       0.0356 |       0.0413 |       0.0413 |       0.0426 |       0.0426 |       0.0456 |       0.0456 |       0.0488 |       0.0488 |       0.0469 |       0.0469 |       0.0494 |       0.0494 |       0.0515 |       0.0515 |       0.0538 |       0.0538 |       0.0582 |       0.0582 |       0.0626 |       0.0626 |       0.0636 |       0.0636 |       0.0679 |       0.0679 |       0.0678 |       0.0678 |       0.0732 |       0.0732 |       0.0707 |       0.0707 |       0.0727 |       0.0727 |       0.0763 |       0.0763 |       0.0768 |       0.0768 |
dl1.repl_rate                               0.0276 |       0.0276 |       0.0295 |       0.0295 |       0.0337 |       0.0337 |       0.0351 |       0.0351 |       0.0410 |       0.0410 |       0.0423 |       0.0423 |       0.0455 |       0.0455 |       0.0487 |       0.0487 |       0.0468 |       0.0468 |       0.0494 |       0.0494 |       0.0515 |       0.0515 |       0.0537 |       0.0537 |       0.0582 |       0.0582 |       0.0626 |       0.0626 |       0.0635 |       0.0635 |       0.0679 |       0.0679 |       0.0678 |       0.0678 |       0.0732 |       0.0732 |       0.0706 |       0.0706 |       0.0727 |       0.0727 |       0.0763 |       0.0763 |       0.0768 |       0.0768 |
dl1.wb_rate                                 0.0270 |       0.0270 |       0.0285 |       0.0285 |       0.0313 |       0.0313 |       0.0325 |       0.0325 |       0.0369 |       0.0369 |       0.0380 |       0.0380 |       0.0404 |       0.0404 |       0.0430 |       0.0430 |       0.0407 |       0.0407 |       0.0429 |       0.0429 |       0.0443 |       0.0443 |       0.0463 |       0.0463 |       0.0499 |       0.0499 |       0.0535 |       0.0535 |       0.0542 |       0.0542 |       0.0579 |       0.0579 |       0.0577 |       0.0577 |       0.0622 |       0.0622 |       0.0600 |       0.0600 |       0.0617 |       0.0617 |       0.0646 |       0.0646 |       0.0650 |       0.0650 |
dl1.inv_rate                                0.0000 |       0.0000 |       0.0000 |       0.0000 |       0.0000 |       0.0000 |       0.0000 |       0.0000 |       0.0000 |       0.0000 |       0.0000 |       0.0000 |       0.0000 |       0.0000 |       0.0000 |       0.0000 |       0.0000 |       0.0000 |       0.0000 |       0.0000 |       0.0000 |       0.0000 |       0.0000 |       0.0000 |       0.0000 |       0.0000 |       0.0000 |       0.0000 |       0.0000 |       0.0000 |       0.0000 |       0.0000 |       0.0000 |       0.0000 |       0.0000 |       0.0000 |       0.0000 |       0.0000 |       0.0000 |       0.0000 |       0.0000 |       0.0000 |       0.0000 |       0.0000 |
dl2.accesses                                 12001 |        12001 |        12649 |        12649 |        30436 |        30436 |        31524 |        31524 |        77572 |        77572 |        79790 |        79790 |       182285 |       182285 |       194421 |       194421 |       429030 |       429030 |       451858 |       451858 |      1020418 |      1020418 |      1064909 |      1064909 |      2285884 |      2285884 |      2454276 |      2454276 |      5246149 |      5246149 |      5603936 |      5603936 |     11633079 |     11633079 |     12551383 |     12551383 |     26094443 |     26094443 |     26852832 |     26852832 |     56768361 |     56768361 |     57130717 |     57130717 |
dl2.hits                                     10710 |        10710 |        11362 |        11362 |        28631 |        28631 |        29723 |        29723 |        74747 |        74747 |        76971 |        76971 |       177407 |       177407 |       189547 |       189547 |       420056 |       420056 |       442888 |       442888 |      1003253 |      1003253 |      1047748 |      1047748 |      2252335 |      2252335 |      2420731 |      2420731 |      5179832 |      5179725 |      5537623 |      5304303 |     11501117 |      9305948 |     11940663 |     10121522 |     21179593 |     20356963 |     21732031 |     20953534 |     44769019 |     42857110 |     44807503 |     42867110 |
dl2.misses                                    1291 |         1291 |         1287 |         1287 |         1805 |         1805 |         1801 |         1801 |         2825 |         2825 |         2819 |         2819 |         4878 |         4878 |         4874 |         4874 |         8974 |         8974 |         8970 |         8970 |        17165 |        17165 |        17161 |        17161 |        33549 |        33549 |        33545 |        33545 |        66317 |        66424 |        66313 |       299633 |       131962 |      2327131 |       610720 |      2429861 |      4914850 |      5737480 |      5120801 |      5899298 |     11999342 |     13911251 |     12323214 |     14263607 |
dl2.replacements                                57 |           57 |            0 |            0 |           58 |           58 |            0 |            0 |           63 |           63 |            0 |            0 |           59 |           59 |            0 |            0 |           59 |           59 |            0 |            0 |           59 |           59 |            0 |            0 |           59 |           59 |            0 |            0 |           59 |          888 |            0 |       234097 |          890 |      2261595 |       479648 |      2364325 |      4783778 |      5671944 |      4989729 |      5833762 |     11868270 |     13845715 |     12192142 |     14198071 |
dl2.writebacks                                   2 |            2 |            0 |            0 |            2 |            2 |            0 |            0 |            2 |            2 |            0 |            0 |            2 |            2 |            0 |            0 |            2 |            2 |            0 |            0 |            2 |            2 |            0 |            0 |            2 |            2 |            0 |            0 |            2 |          694 |            0 |       233951 |          699 |      2235996 |       479500 |      2314809 |      4732847 |      5394524 |      4890273 |      5526499 |     11313036 |     12829370 |     11576602 |     13107498 |
dl2.invalidations                                0 |            0 |            0 |            0 |            0 |            0 |            0 |            0 |            0 |            0 |            0 |            0 |            0 |            0 |            0 |            0 |            0 |            0 |            0 |            0 |            0 |            0 |            0 |            0 |            0 |            0 |            0 |            0 |            0 |            0 |            0 |            0 |            0 |            0 |            0 |            0 |            0 |            0 |            0 |            0 |            0 |            0 |            0 |            0 |
dl2.miss_rate                               0.1076 |       0.1076 |       0.1017 |       0.1017 |       0.0593 |       0.0593 |       0.0571 |       0.0571 |       0.0364 |       0.0364 |       0.0353 |       0.0353 |       0.0268 |       0.0268 |       0.0251 |       0.0251 |       0.0209 |       0.0209 |       0.0199 |       0.0199 |       0.0168 |       0.0168 |       0.0161 |       0.0161 |       0.0147 |       0.0147 |       0.0137 |       0.0137 |       0.0126 |       0.0127 |       0.0118 |       0.0535 |       0.0113 |       0.2000 |       0.0487 |       0.1936 |       0.1883 |       0.2199 |       0.1907 |       0.2197 |       0.2114 |       0.2451 |       0.2157 |       0.2497 |
dl2.repl_rate                               0.0047 |       0.0047 |       0.0000 |       0.0000 |       0.0019 |       0.0019 |       0.0000 |       0.0000 |       0.0008 |       0.0008 |       0.0000 |       0.0000 |       0.0003 |       0.0003 |       0.0000 |       0.0000 |       0.0001 |       0.0001 |       0.0000 |       0.0000 |       0.0001 |       0.0001 |       0.0000 |       0.0000 |       0.0000 |       0.0000 |       0.0000 |       0.0000 |       0.0000 |       0.0002 |       0.0000 |       0.0418 |       0.0001 |       0.1944 |       0.0382 |       0.1884 |       0.1833 |       0.2174 |       0.1858 |       0.2172 |       0.2091 |       0.2439 |       0.2134 |       0.2485 |
dl2.wb_rate                                 0.0002 |       0.0002 |       0.0000 |       0.0000 |       0.0001 |       0.0001 |       0.0000 |       0.0000 |       0.0000 |       0.0000 |       0.0000 |       0.0000 |       0.0000 |       0.0000 |       0.0000 |       0.0000 |       0.0000 |       0.0000 |       0.0000 |       0.0000 |       0.0000 |       0.0000 |       0.0000 |       0.0000 |       0.0000 |       0.0000 |       0.0000 |       0.0000 |       0.0000 |       0.0001 |       0.0000 |       0.0417 |       0.0001 |       0.1922 |       0.0382 |       0.1844 |       0.1814 |       0.2067 |       0.1821 |       0.2058 |       0.1993 |       0.2260 |       0.2026 |       0.2294 |
dl2.inv_rate                                0.0000 |       0.0000 |       0.0000 |       0.0000 |       0.0000 |       0.0000 |       0.0000 |       0.0000 |       0.0000 |       0.0000 |       0.0000 |       0.0000 |       0.0000 |       0.0000 |       0.0000 |       0.0000 |       0.0000 |       0.0000 |       0.0000 |       0.0000 |       0.0000 |       0.0000 |       0.0000 |       0.0000 |       0.0000 |       0.0000 |       0.0000 |       0.0000 |       0.0000 |       0.0000 |       0.0000 |       0.0000 |       0.0000 |       0.0000 |       0.0000 |       0.0000 |       0.0000 |       0.0000 |       0.0000 |       0.0000 |       0.0000 |       0.0000 |       0.0000 |       0.0000 |
itlb.accesses                               895577 |       895577 |       895577 |       895577 |      2029345 |      2029345 |      2029345 |      2029345 |      4562785 |      4562785 |      4562785 |      4562785 |      9915543 |      9915543 |      9915543 |      9915543 |     21291274 |     21291274 |     21291274 |     21291274 |     47329554 |     47329554 |     47329554 |     47329554 |     97398043 |     97398043 |     97398043 |     97398043 |    209105303 |    209105303 |    209105303 |    209105303 |    444370580 |    444370580 |    444370580 |    444370580 |    955874204 |    955874204 |    955874204 |    955874204 |   1993605739 |   1993605739 |   1993605739 |   1993605739 |
itlb.hits                                   895568 |       895568 |       895568 |       895568 |      2029336 |      2029336 |      2029336 |      2029336 |      4562776 |      4562776 |      4562776 |      4562776 |      9915533 |      9915533 |      9915533 |      9915533 |     21291264 |     21291264 |     21291264 |     21291264 |     47329544 |     47329544 |     47329544 |     47329544 |     97398033 |     97398033 |     97398033 |     97398033 |    209105293 |    209105293 |    209105293 |    209105293 |    444370570 |    444370570 |    444370570 |    444370570 |    955874194 |    955874194 |    955874194 |    955874194 |   1993605729 |   1993605729 |   1993605729 |   1993605729 |
itlb.misses                                      9 |            9 |            9 |            9 |            9 |            9 |            9 |            9 |            9 |            9 |            9 |            9 |           10 |           10 |           10 |           10 |           10 |           10 |           10 |           10 |           10 |           10 |           10 |           10 |           10 |           10 |           10 |           10 |           10 |           10 |           10 |           10 |           10 |           10 |           10 |           10 |           10 |           10 |           10 |           10 |           10 |           10 |           10 |           10 |
itlb.replacements                                0 |            0 |            0 |            0 |            0 |            0 |            0 |            0 |            0 |            0 |            0 |            0 |            0 |            0 |            0 |            0 |            0 |            0 |            0 |            0 |            0 |            0 |            0 |            0 |            0 |            0 |            0 |            0 |            0 |            0 |            0 |            0 |            0 |            0 |            0 |            0 |            0 |            0 |            0 |            0 |            0 |            0 |            0 |            0 |
itlb.writebacks                                  0 |            0 |            0 |            0 |            0 |            0 |            0 |            0 |            0 |            0 |            0 |            0 |            0 |            0 |            0 |            0 |            0 |            0 |            0 |            0 |            0 |            0 |            0 |            0 |            0 |            0 |            0 |            0 |            0 |            0 |            0 |            0 |            0 |            0 |            0 |            0 |            0 |            0 |            0 |            0 |            0 |            0 |            0 |            0 |
itlb.invalidations                               0 |            0 |            0 |            0 |            0 |            0 |            0 |            0 |            0 |            0 |            0 |            0 |            0 |            0 |            0 |            0 |            0 |            0 |            0 |            0 |            0 |            0 |            0 |            0 |            0 |            0 |            0 |            0 |            0 |            0 |            0 |            0 |            0 |            0 |            0 |            0 |            0 |            0 |            0 |            0 |            0 |            0 |            0 |            0 |
itlb.miss_rate                              0.0000 |       0.0000 |       0.0000 |       0.0000 |       0.0000 |       0.0000 |       0.0000 |       0.0000 |       0.0000 |       0.0000 |       0.0000 |       0.0000 |       0.0000 |       0.0000 |       0.0000 |       0.0000 |       0.0000 |       0.0000 |       0.0000 |       0.0000 |       0.0000 |       0.0000 |       0.0000 |       0.0000 |       0.0000 |       0.0000 |       0.0000 |       0.0000 |       0.0000 |       0.0000 |       0.0000 |       0.0000 |       0.0000 |       0.0000 |       0.0000 |       0.0000 |       0.0000 |       0.0000 |       0.0000 |       0.0000 |       0.0000 |       0.0000 |       0.0000 |       0.0000 |
itlb.repl_rate                              0.0000 |       0.0000 |       0.0000 |       0.0000 |       0.0000 |       0.0000 |       0.0000 |       0.0000 |       0.0000 |       0.0000 |       0.0000 |       0.0000 |       0.0000 |       0.0000 |       0.0000 |       0.0000 |       0.0000 |       0.0000 |       0.0000 |       0.0000 |       0.0000 |       0.0000 |       0.0000 |       0.0000 |       0.0000 |       0.0000 |       0.0000 |       0.0000 |       0.0000 |       0.0000 |       0.0000 |       0.0000 |       0.0000 |       0.0000 |       0.0000 |       0.0000 |       0.0000 |       0.0000 |       0.0000 |       0.0000 |       0.0000 |       0.0000 |       0.0000 |       0.0000 |
itlb.wb_rate                                0.0000 |       0.0000 |       0.0000 |       0.0000 |       0.0000 |       0.0000 |       0.0000 |       0.0000 |       0.0000 |       0.0000 |       0.0000 |       0.0000 |       0.0000 |       0.0000 |       0.0000 |       0.0000 |       0.0000 |       0.0000 |       0.0000 |       0.0000 |       0.0000 |       0.0000 |       0.0000 |       0.0000 |       0.0000 |       0.0000 |       0.0000 |       0.0000 |       0.0000 |       0.0000 |       0.0000 |       0.0000 |       0.0000 |       0.0000 |       0.0000 |       0.0000 |       0.0000 |       0.0000 |       0.0000 |       0.0000 |       0.0000 |       0.0000 |       0.0000 |       0.0000 |
itlb.inv_rate                               0.0000 |       0.0000 |       0.0000 |       0.0000 |       0.0000 |       0.0000 |       0.0000 |       0.0000 |       0.0000 |       0.0000 |       0.0000 |       0.0000 |       0.0000 |       0.0000 |       0.0000 |       0.0000 |       0.0000 |       0.0000 |       0.0000 |       0.0000 |       0.0000 |       0.0000 |       0.0000 |       0.0000 |       0.0000 |       0.0000 |       0.0000 |       0.0000 |       0.0000 |       0.0000 |       0.0000 |       0.0000 |       0.0000 |       0.0000 |       0.0000 |       0.0000 |       0.0000 |       0.0000 |       0.0000 |       0.0000 |       0.0000 |       0.0000 |       0.0000 |       0.0000 |
dtlb.accesses                               207404 |       207404 |       207404 |       207404 |       457567 |       457567 |       457567 |       457567 |       986359 |       986359 |       986359 |       986359 |      2113730 |      2113730 |      2113730 |      2113730 |      4892549 |      4892549 |      4892549 |      4892549 |     10641002 |     10641002 |     10641002 |     10641002 |     21125699 |     21125699 |     21125699 |     21125699 |     44551950 |     44551950 |     44551950 |     44551950 |     92665317 |     92665317 |     92665317 |     92665317 |    199688703 |    199688703 |    199688703 |    199688703 |    402958350 |    402958350 |    402958350 |    402958350 |
dtlb.hits                                   207393 |       207393 |       207393 |       207393 |       457552 |       457552 |       457552 |       457552 |       986336 |       986336 |       986336 |       986336 |      2113691 |      2113691 |      2113691 |      2113691 |      4892478 |      4892478 |      4892478 |      4892478 |     10640803 |     10640803 |     10640803 |     10640803 |     21120689 |     21120689 |     21120689 |     21120689 |     44537531 |     44537531 |     44537531 |     44537531 |     92518282 |     92518282 |     92518282 |     92518282 |    199592809 |    199592809 |    199592809 |    199592809 |    402725640 |    402725640 |    402725640 |    402725640 |
dtlb.misses                                     11 |           11 |           11 |           11 |           15 |           15 |           15 |           15 |           23 |           23 |           23 |           23 |           39 |           39 |           39 |           39 |           71 |           71 |           71 |           71 |          199 |          199 |          199 |          199 |         5010 |         5010 |         5010 |         5010 |        14419 |        14419 |        14419 |        14419 |       147035 |       147035 |       147035 |       147035 |        95894 |        95894 |        95894 |        95894 |       232710 |       232710 |       232710 |       232710 |
dtlb.replacements                                0 |            0 |            0 |            0 |            0 |            0 |            0 |            0 |            0 |            0 |            0 |            0 |            0 |            0 |            0 |            0 |            0 |            0 |            0 |            0 |           71 |           71 |           71 |           71 |         4882 |         4882 |         4882 |         4882 |        14291 |        14291 |        14291 |        14291 |       146907 |       146907 |       146907 |       146907 |        95766 |        95766 |        95766 |        95766 |       232582 |       232582 |       232582 |       232582 |
dtlb.writebacks                                  0 |            0 |            0 |            0 |            0 |            0 |            0 |            0 |            0 |            0 |            0 |            0 |            0 |            0 |            0 |            0 |            0 |            0 |            0 |            0 |           69 |           69 |           69 |           69 |         4797 |         4797 |         4797 |         4797 |        13741 |        13741 |        13741 |        13741 |       125570 |       125570 |       125570 |       125570 |        89982 |        89982 |        89982 |        89982 |       216933 |       216933 |       216933 |       216933 |
dtlb.invalidations                               0 |            0 |            0 |            0 |            0 |            0 |            0 |            0 |            0 |            0 |            0 |            0 |            0 |            0 |            0 |            0 |            0 |            0 |            0 |            0 |            0 |            0 |            0 |            0 |            0 |            0 |            0 |            0 |            0 |            0 |            0 |            0 |            0 |            0 |            0 |            0 |            0 |            0 |            0 |            0 |            0 |            0 |            0 |            0 |
dtlb.miss_rate                              0.0001 |       0.0001 |       0.0001 |       0.0001 |       0.0000 |       0.0000 |       0.0000 |       0.0000 |       0.0000 |       0.0000 |       0.0000 |       0.0000 |       0.0000 |       0.0000 |       0.0000 |       0.0000 |       0.0000 |       0.0000 |       0.0000 |       0.0000 |       0.0000 |       0.0000 |       0.0000 |       0.0000 |       0.0002 |       0.0002 |       0.0002 |       0.0002 |       0.0003 |       0.0003 |       0.0003 |       0.0003 |       0.0016 |       0.0016 |       0.0016 |       0.0016 |       0.0005 |       0.0005 |       0.0005 |       0.0005 |       0.0006 |       0.0006 |       0.0006 |       0.0006 |
dtlb.repl_rate                              0.0000 |       0.0000 |       0.0000 |       0.0000 |       0.0000 |       0.0000 |       0.0000 |       0.0000 |       0.0000 |       0.0000 |       0.0000 |       0.0000 |       0.0000 |       0.0000 |       0.0000 |       0.0000 |       0.0000 |       0.0000 |       0.0000 |       0.0000 |       0.0000 |       0.0000 |       0.0000 |       0.0000 |       0.0002 |       0.0002 |       0.0002 |       0.0002 |       0.0003 |       0.0003 |       0.0003 |       0.0003 |       0.0016 |       0.0016 |       0.0016 |       0.0016 |       0.0005 |       0.0005 |       0.0005 |       0.0005 |       0.0006 |       0.0006 |       0.0006 |       0.0006 |
dtlb.wb_rate                                0.0000 |       0.0000 |       0.0000 |       0.0000 |       0.0000 |       0.0000 |       0.0000 |       0.0000 |       0.0000 |       0.0000 |       0.0000 |       0.0000 |       0.0000 |       0.0000 |       0.0000 |       0.0000 |       0.0000 |       0.0000 |       0.0000 |       0.0000 |       0.0000 |       0.0000 |       0.0000 |       0.0000 |       0.0002 |       0.0002 |       0.0002 |       0.0002 |       0.0003 |       0.0003 |       0.0003 |       0.0003 |       0.0014 |       0.0014 |       0.0014 |       0.0014 |       0.0005 |       0.0005 |       0.0005 |       0.0005 |       0.0005 |       0.0005 |       0.0005 |       0.0005 |
dtlb.inv_rate                               0.0000 |       0.0000 |       0.0000 |       0.0000 |       0.0000 |       0.0000 |       0.0000 |       0.0000 |       0.0000 |       0.0000 |       0.0000 |       0.0000 |       0.0000 |       0.0000 |       0.0000 |       0.0000 |       0.0000 |       0.0000 |       0.0000 |       0.0000 |       0.0000 |       0.0000 |       0.0000 |       0.0000 |       0.0000 |       0.0000 |       0.0000 |       0.0000 |       0.0000 |       0.0000 |       0.0000 |       0.0000 |       0.0000 |       0.0000 |       0.0000 |       0.0000 |       0.0000 |       0.0000 |       0.0000 |       0.0000 |       0.0000 |       0.0000 |       0.0000 |       0.0000 |
ld_text_base                            0x00400000 |   0x00400000 |   0x00400000 |   0x00400000 |   0x00400000 |   0x00400000 |   0x00400000 |   0x00400000 |   0x00400000 |   0x00400000 |   0x00400000 |   0x00400000 |   0x00400000 |   0x00400000 |   0x00400000 |   0x00400000 |   0x00400000 |   0x00400000 |   0x00400000 |   0x00400000 |   0x00400000 |   0x00400000 |   0x00400000 |   0x00400000 |   0x00400000 |   0x00400000 |   0x00400000 |   0x00400000 |   0x00400000 |   0x00400000 |   0x00400000 |   0x00400000 |   0x00400000 |   0x00400000 |   0x00400000 |   0x00400000 |   0x00400000 |   0x00400000 |   0x00400000 |   0x00400000 |   0x00400000 |   0x00400000 |   0x00400000 |   0x00400000 |
ld_text_size                                 72720 |        72720 |        72720 |        72720 |        72752 |        72752 |        72752 |        72752 |        72768 |        72768 |        72768 |        72768 |        72784 |        72784 |        72784 |        72784 |        72784 |        72784 |        72784 |        72784 |        72784 |        72784 |        72784 |        72784 |        72784 |        72784 |        72784 |        72784 |        72784 |        72784 |        72784 |        72784 |        72784 |        72784 |        72784 |        72784 |        72784 |        72784 |        72784 |        72784 |        72784 |        72784 |        72784 |        72784 |
ld_data_base                            0x10000000 |   0x10000000 |   0x10000000 |   0x10000000 |   0x10000000 |   0x10000000 |   0x10000000 |   0x10000000 |   0x10000000 |   0x10000000 |   0x10000000 |   0x10000000 |   0x10000000 |   0x10000000 |   0x10000000 |   0x10000000 |   0x10000000 |   0x10000000 |   0x10000000 |   0x10000000 |   0x10000000 |   0x10000000 |   0x10000000 |   0x10000000 |   0x10000000 |   0x10000000 |   0x10000000 |   0x10000000 |   0x10000000 |   0x10000000 |   0x10000000 |   0x10000000 |   0x10000000 |   0x10000000 |   0x10000000 |   0x10000000 |   0x10000000 |   0x10000000 |   0x10000000 |   0x10000000 |   0x10000000 |   0x10000000 |   0x10000000 |   0x10000000 |
ld_data_size                                  8192 |         8192 |         8192 |         8192 |         8192 |         8192 |         8192 |         8192 |         8192 |         8192 |         8192 |         8192 |         8192 |         8192 |         8192 |         8192 |         8192 |         8192 |         8192 |         8192 |         8192 |         8192 |         8192 |         8192 |         8192 |         8192 |         8192 |         8192 |         8192 |         8192 |         8192 |         8192 |         8192 |         8192 |         8192 |         8192 |         8192 |         8192 |         8192 |         8192 |         8192 |         8192 |         8192 |         8192 |
ld_stack_base                           0x7fffc000 |   0x7fffc000 |   0x7fffc000 |   0x7fffc000 |   0x7fffc000 |   0x7fffc000 |   0x7fffc000 |   0x7fffc000 |   0x7fffc000 |   0x7fffc000 |   0x7fffc000 |   0x7fffc000 |   0x7fffc000 |   0x7fffc000 |   0x7fffc000 |   0x7fffc000 |   0x7fffc000 |   0x7fffc000 |   0x7fffc000 |   0x7fffc000 |   0x7fffc000 |   0x7fffc000 |   0x7fffc000 |   0x7fffc000 |   0x7fffc000 |   0x7fffc000 |   0x7fffc000 |   0x7fffc000 |   0x7fffc000 |   0x7fffc000 |   0x7fffc000 |   0x7fffc000 |   0x7fffc000 |   0x7fffc000 |   0x7fffc000 |   0x7fffc000 |   0x7fffc000 |   0x7fffc000 |   0x7fffc000 |   0x7fffc000 |   0x7fffc000 |   0x7fffc000 |   0x7fffc000 |   0x7fffc000 |
ld_stack_size                                16384 |        16384 |        16384 |        16384 |        16384 |        16384 |        16384 |        16384 |        16384 |        16384 |        16384 |        16384 |        16384 |        16384 |        16384 |        16384 |        16384 |        16384 |        16384 |        16384 |        16384 |        16384 |        16384 |        16384 |        16384 |        16384 |        16384 |        16384 |        16384 |        16384 |        16384 |        16384 |        16384 |        16384 |        16384 |        16384 |        16384 |        16384 |        16384 |        16384 |        16384 |        16384 |        16384 |        16384 |
ld_prog_entry                           0x00400140 |   0x00400140 |   0x00400140 |   0x00400140 |   0x00400140 |   0x00400140 |   0x00400140 |   0x00400140 |   0x00400140 |   0x00400140 |   0x00400140 |   0x00400140 |   0x00400140 |   0x00400140 |   0x00400140 |   0x00400140 |   0x00400140 |   0x00400140 |   0x00400140 |   0x00400140 |   0x00400140 |   0x00400140 |   0x00400140 |   0x00400140 |   0x00400140 |   0x00400140 |   0x00400140 |   0x00400140 |   0x00400140 |   0x00400140 |   0x00400140 |   0x00400140 |   0x00400140 |   0x00400140 |   0x00400140 |   0x00400140 |   0x00400140 |   0x00400140 |   0x00400140 |   0x00400140 |   0x00400140 |   0x00400140 |   0x00400140 |   0x00400140 |
ld_environ_base                         0x7fff8000 |   0x7fff8000 |   0x7fff8000 |   0x7fff8000 |   0x7fff8000 |   0x7fff8000 |   0x7fff8000 |   0x7fff8000 |   0x7fff8000 |   0x7fff8000 |   0x7fff8000 |   0x7fff8000 |   0x7fff8000 |   0x7fff8000 |   0x7fff8000 |   0x7fff8000 |   0x7fff8000 |   0x7fff8000 |   0x7fff8000 |   0x7fff8000 |   0x7fff8000 |   0x7fff8000 |   0x7fff8000 |   0x7fff8000 |   0x7fff8000 |   0x7fff8000 |   0x7fff8000 |   0x7fff8000 |   0x7fff8000 |   0x7fff8000 |   0x7fff8000 |   0x7fff8000 |   0x7fff8000 |   0x7fff8000 |   0x7fff8000 |   0x7fff8000 |   0x7fff8000 |   0x7fff8000 |   0x7fff8000 |   0x7fff8000 |   0x7fff8000 |   0x7fff8000 |   0x7fff8000 |   0x7fff8000 |
ld_target_big_endian                             0 |            0 |            0 |            0 |            0 |            0 |            0 |            0 |            0 |            0 |            0 |            0 |            0 |            0 |            0 |            0 |            0 |            0 |            0 |            0 |            0 |            0 |            0 |            0 |            0 |            0 |            0 |            0 |            0 |            0 |            0 |            0 |            0 |            0 |            0 |            0 |            0 |            0 |            0 |            0 |            0 |            0 |            0 |            0 |
mem.page_count                                  29 |           29 |           29 |           29 |           33 |           33 |           33 |           33 |           41 |           41 |           41 |           41 |           57 |           57 |           57 |           57 |           89 |           89 |           89 |           89 |          153 |          153 |          153 |          153 |          281 |          281 |          281 |          281 |          537 |          537 |          537 |          537 |         1049 |         1049 |         1049 |         1049 |         2073 |         2073 |         2073 |         2073 |         4121 |         4121 |         4121 |         4121 |
mem.page_mem                                  116k |         116k |         116k |         116k |         132k |         132k |         132k |         132k |         164k |         164k |         164k |         164k |         228k |         228k |         228k |         228k |         356k |         356k |         356k |         356k |         612k |         612k |         612k |         612k |        1124k |        1124k |        1124k |        1124k |        2148k |        2148k |        2148k |        2148k |        4196k |        4196k |        4196k |        4196k |        8292k |        8292k |        8292k |        8292k |       16484k |       16484k |       16484k |       16484k |
mem.ptab_misses                                 29 |           29 |           29 |           29 |           33 |           33 |           33 |           33 |           41 |           41 |           41 |           41 |           57 |           57 |           57 |           57 |           89 |           89 |           89 |           89 |          153 |          153 |          153 |          153 |          281 |          281 |          281 |          281 |          537 |          537 |          537 |          537 |         1049 |         1049 |         1049 |         1049 |         2073 |         2073 |         2073 |         2073 |         4121 |         4121 |         4121 |         4121 |
mem.ptab_accesses                          4448032 |      4448032 |      4448032 |      4448032 |      9483622 |      9483622 |      9483622 |      9483622 |     20675062 |     20675062 |     20675062 |     20675062 |     44340932 |     44340932 |     44340932 |     44340932 |     95401494 |     95401494 |     95401494 |     95401494 |    211051520 |    211051520 |    211051520 |    211051520 |    432294870 |    432294870 |    432294870 |    432294870 |    925976412 |    925976412 |    925976412 |    925976412 |   1963264254 |   1963264254 |   1963264254 |   1963264254 |   4223325522 |   4223325522 |   4223325522 |   4223325522 |   8780790956 |   8780790956 |   8780790956 |   8780790956 |
mem.ptab_miss_rate                          0.0000 |       0.0000 |       0.0000 |       0.0000 |       0.0000 |       0.0000 |       0.0000 |       0.0000 |       0.0000 |       0.0000 |       0.0000 |       0.0000 |       0.0000 |       0.0000 |       0.0000 |       0.0000 |       0.0000 |       0.0000 |       0.0000 |       0.0000 |       0.0000 |       0.0000 |       0.0000 |       0.0000 |       0.0000 |       0.0000 |       0.0000 |       0.0000 |       0.0000 |       0.0000 |       0.0000 |       0.0000 |       0.0000 |       0.0000 |       0.0000 |       0.0000 |       0.0000 |       0.0000 |       0.0000 |       0.0000 |       0.0000 |       0.0000 |       0.0000 |       0.0000 |
-------------------------------------------------------------------------------------------------
sim-bpred                                     4096 |         4096 |         4096 |         4096 |         4096 |         4096 |         4096 |         8192 |         8192 |         8192 |         8192 |         8192 |         8192 |         8192 |        16384 |        16384 |        16384 |        16384 |        16384 |        16384 |        16384 |        32768 |        32768 |        32768 |        32768 |        32768 |        32768 |        32768 |        65536 |        65536 |        65536 |        65536 |        65536 |        65536 |        65536 |       131072 |       131072 |       131072 |       131072 |       131072 |       131072 |       131072 |       262144 |       262144 |       262144 |       262144 |       262144 |       262144 |       262144 |       524288 |       524288 |       524288 |       524288 |       524288 |       524288 |       524288 |      1048576 |      1048576 |      1048576 |      1048576 |      1048576 |      1048576 |      1048576 |      2097152 |      2097152 |      2097152 |      2097152 |      2097152 |      2097152 |      2097152 |      4194304 |      4194304 |      4194304 |      4194304 |      4194304 |      4194304 |      4194304 |
-bpred bimod -bpred:bimod 512
-bpred bimod -bpred:bimod 1024
-bpred bimod -bpred:bimod 2048
-bpred 2lev -bpred:2lev 1 512 10 1
-bpred 2lev -bpred:2lev 1 1024 10 1
-bpred 2lev -bpred:2lev 1 2048 10 1
-bpred 2lev -bpred:2lev 1 4096 10 1
-------------------------------------------------------------------------------------------------
sim_num_insn                                895577 |       895577 |       895577 |       895577 |       895577 |       895577 |       895577 |      2029345 |      2029345 |      2029345 |      2029345 |      2029345 |      2029345 |      2029345 |      4562785 |      4562785 |      4562785 |      4562785 |      4562785 |      4562785 |      4562785 |      9915543 |      9915543 |      9915543 |      9915543 |      9915543 |      9915543 |      9915543 |     21291274 |     21291274 |     21291274 |     21291274 |     21291274 |     21291274 |     21291274 |     47329554 |     47329554 |     47329554 |     47329554 |     47329554 |     47329554 |     47329554 |     97398043 |     97398043 |     97398043 |     97398043 |     97398043 |     97398043 |     97398043 |    209105303 |    209105303 |    209105303 |    209105303 |    209105303 |    209105303 |    209105303 |    444370580 |    444370580 |    444370580 |    444370580 |    444370580 |    444370580 |    444370580 |    955874204 |    955874204 |    955874204 |    955874204 |    955874204 |    955874204 |    955874204 |   1993605739 |   1993605739 |   1993605739 |   1993605739 |   1993605739 |   1993605739 |   1993605739 |
sim_num_refs                                190938 |       190938 |       190938 |       190938 |       190938 |       190938 |       190938 |       424717 |       424717 |       424717 |       424717 |       424717 |       424717 |       424717 |       920741 |       920741 |       920741 |       920741 |       920741 |       920741 |       920741 |      1982576 |      1982576 |      1982576 |      1982576 |      1982576 |      1982576 |      1982576 |      4630323 |      4630323 |      4630323 |      4630323 |      4630323 |      4630323 |      4630323 |     10116632 |     10116632 |     10116632 |     10116632 |     10116632 |     10116632 |     10116632 |     20077041 |     20077041 |     20077041 |     20077041 |     20077041 |     20077041 |     20077041 |     42454716 |     42454716 |     42454716 |     42454716 |     42454716 |     42454716 |     42454716 |     88470931 |     88470931 |     88470931 |     88470931 |     88470931 |     88470931 |     88470931 |    191300013 |    191300013 |    191300013 |    191300013 |    191300013 |    191300013 |    191300013 |    386181052 |    386181052 |    386181052 |    386181052 |    386181052 |    386181052 |    386181052 |
sim_elapsed_time                                 1 |            1 |            1 |            1 |            1 |            1 |            1 |            1 |            1 |            1 |            1 |            1 |            1 |            1 |            1 |            1 |            1 |            1 |            1 |            1 |            1 |            1 |            1 |            1 |            2 |            1 |            1 |            1 |            3 |            2 |            3 |            2 |            3 |            2 |            3 |            5 |            6 |            5 |            6 |            6 |            5 |            6 |           12 |           11 |           11 |           11 |           12 |           11 |           12 |           24 |           24 |           25 |           25 |           25 |           25 |           24 |           52 |           52 |           52 |           53 |           53 |           54 |           53 |          112 |          112 |          111 |          114 |          114 |          114 |          113 |          233 |          234 |          233 |          237 |          237 |          237 |          238 |
sim_inst_rate                          895577.0000 |  895577.0000 |  895577.0000 |  895577.0000 |  895577.0000 |  895577.0000 |  895577.0000 | 2029345.0000 | 2029345.0000 | 2029345.0000 | 2029345.0000 | 2029345.0000 | 2029345.0000 | 2029345.0000 | 4562785.0000 | 4562785.0000 | 4562785.0000 | 4562785.0000 | 4562785.0000 | 4562785.0000 | 4562785.0000 | 9915543.0000 | 9915543.0000 | 9915543.0000 | 4957771.5000 | 9915543.0000 | 9915543.0000 | 9915543.0000 | 7097091.3333 |10645637.0000 | 7097091.3333 |10645637.0000 | 7097091.3333 |10645637.0000 | 7097091.3333 | 9465910.8000 | 7888259.0000 | 9465910.8000 | 7888259.0000 | 7888259.0000 | 9465910.8000 | 7888259.0000 | 8116503.5833 | 8854367.5455 | 8854367.5455 | 8854367.5455 | 8116503.5833 | 8854367.5455 | 8116503.5833 | 8712720.9583 | 8712720.9583 | 8364212.1200 | 8364212.1200 | 8364212.1200 | 8364212.1200 | 8712720.9583 | 8545588.0769 | 8545588.0769 | 8545588.0769 | 8384350.5660 | 8384350.5660 | 8229084.8148 | 8384350.5660 | 8534591.1071 | 8534591.1071 | 8611479.3153 | 8384861.4386 | 8384861.4386 | 8384861.4386 | 8459063.7522 | 8556247.8069 | 8519682.6453 | 8556247.8069 | 8411838.5612 | 8411838.5612 | 8411838.5612 | 8376494.7017 |
sim_num_branches                            144702 |       144702 |       144702 |       144702 |       144702 |       144702 |       144702 |       329246 |       329246 |       329246 |       329246 |       329246 |       329246 |       329246 |       744465 |       744465 |       744465 |       744465 |       744465 |       744465 |       744465 |      1621288 |      1621288 |      1621288 |      1621288 |      1621288 |      1621288 |      1621288 |      3447657 |      3447657 |      3447657 |      3447657 |      3447657 |      3447657 |      3447657 |      7686608 |      7686608 |      7686608 |      7686608 |      7686608 |      7686608 |      7686608 |     15897387 |     15897387 |     15897387 |     15897387 |     15897387 |     15897387 |     15897387 |     34211194 |     34211194 |     34211194 |     34211194 |     34211194 |     34211194 |     34211194 |     72902701 |     72902701 |     72902701 |     72902701 |     72902701 |     72902701 |     72902701 |    156801518 |    156801518 |    156801518 |    156801518 |    156801518 |    156801518 |    156801518 |    328351355 |    328351355 |    328351355 |    328351355 |    328351355 |    328351355 |    328351355 |
sim_IPB                                     6.1891 |       6.1891 |       6.1891 |       6.1891 |       6.1891 |       6.1891 |       6.1891 |       6.1636 |       6.1636 |       6.1636 |       6.1636 |       6.1636 |       6.1636 |       6.1636 |       6.1289 |       6.1289 |       6.1289 |       6.1289 |       6.1289 |       6.1289 |       6.1289 |       6.1158 |       6.1158 |       6.1158 |       6.1158 |       6.1158 |       6.1158 |       6.1158 |       6.1756 |       6.1756 |       6.1756 |       6.1756 |       6.1756 |       6.1756 |       6.1756 |       6.1574 |       6.1574 |       6.1574 |       6.1574 |       6.1574 |       6.1574 |       6.1574 |       6.1267 |       6.1267 |       6.1267 |       6.1267 |       6.1267 |       6.1267 |       6.1267 |       6.1122 |       6.1122 |       6.1122 |       6.1122 |       6.1122 |       6.1122 |       6.1122 |       6.0954 |       6.0954 |       6.0954 |       6.0954 |       6.0954 |       6.0954 |       6.0954 |       6.0961 |       6.0961 |       6.0961 |       6.0961 |       6.0961 |       6.0961 |       6.0961 |       6.0716 |       6.0716 |       6.0716 |       6.0716 |       6.0716 |       6.0716 |       6.0716 |
bpred_bimod.lookups                         144702 |       144702 |       144702 |xxxxxxxxxxxxx |xxxxxxxxxxxxx |xxxxxxxxxxxxx |xxxxxxxxxxxxx |       329246 |       329246 |       329246 |xxxxxxxxxxxxx |xxxxxxxxxxxxx |xxxxxxxxxxxxx |xxxxxxxxxxxxx |       744465 |       744465 |       744465 |xxxxxxxxxxxxx |xxxxxxxxxxxxx |xxxxxxxxxxxxx |xxxxxxxxxxxxx |      1621288 |      1621288 |      1621288 |xxxxxxxxxxxxx |xxxxxxxxxxxxx |xxxxxxxxxxxxx |xxxxxxxxxxxxx |      3447657 |      3447657 |      3447657 |xxxxxxxxxxxxx |xxxxxxxxxxxxx |xxxxxxxxxxxxx |xxxxxxxxxxxxx |      7686608 |      7686608 |      7686608 |xxxxxxxxxxxxx |xxxxxxxxxxxxx |xxxxxxxxxxxxx |xxxxxxxxxxxxx |     15897387 |     15897387 |     15897387 |xxxxxxxxxxxxx |xxxxxxxxxxxxx |xxxxxxxxxxxxx |xxxxxxxxxxxxx |     34211194 |     34211194 |     34211194 |xxxxxxxxxxxxx |xxxxxxxxxxxxx |xxxxxxxxxxxxx |xxxxxxxxxxxxx |     72902701 |     72902701 |     72902701 |xxxxxxxxxxxxx |xxxxxxxxxxxxx |xxxxxxxxxxxxx |xxxxxxxxxxxxx |    156801518 |    156801518 |    156801518 |xxxxxxxxxxxxx |xxxxxxxxxxxxx |xxxxxxxxxxxxx |xxxxxxxxxxxxx |    328351355 |    328351355 |    328351355 |
bpred_bimod.updates                         144702 |       144702 |       144702 |xxxxxxxxxxxxx |xxxxxxxxxxxxx |xxxxxxxxxxxxx |xxxxxxxxxxxxx |       329246 |       329246 |       329246 |xxxxxxxxxxxxx |xxxxxxxxxxxxx |xxxxxxxxxxxxx |xxxxxxxxxxxxx |       744465 |       744465 |       744465 |xxxxxxxxxxxxx |xxxxxxxxxxxxx |xxxxxxxxxxxxx |xxxxxxxxxxxxx |      1621288 |      1621288 |      1621288 |xxxxxxxxxxxxx |xxxxxxxxxxxxx |xxxxxxxxxxxxx |xxxxxxxxxxxxx |      3447657 |      3447657 |      3447657 |xxxxxxxxxxxxx |xxxxxxxxxxxxx |xxxxxxxxxxxxx |xxxxxxxxxxxxx |      7686608 |      7686608 |      7686608 |xxxxxxxxxxxxx |xxxxxxxxxxxxx |xxxxxxxxxxxxx |xxxxxxxxxxxxx |     15897387 |     15897387 |     15897387 |xxxxxxxxxxxxx |xxxxxxxxxxxxx |xxxxxxxxxxxxx |xxxxxxxxxxxxx |     34211194 |     34211194 |     34211194 |xxxxxxxxxxxxx |xxxxxxxxxxxxx |xxxxxxxxxxxxx |xxxxxxxxxxxxx |     72902701 |     72902701 |     72902701 |xxxxxxxxxxxxx |xxxxxxxxxxxxx |xxxxxxxxxxxxx |xxxxxxxxxxxxx |    156801518 |    156801518 |    156801518 |xxxxxxxxxxxxx |xxxxxxxxxxxxx |xxxxxxxxxxxxx |xxxxxxxxxxxxx |    328351355 |    328351355 |    328351355 |
bpred_bimod.addr_hits                       110645 |       110648 |       110650 |xxxxxxxxxxxxx |xxxxxxxxxxxxx |xxxxxxxxxxxxx |xxxxxxxxxxxxx |       253208 |       253213 |       253213 |xxxxxxxxxxxxx |xxxxxxxxxxxxx |xxxxxxxxxxxxx |xxxxxxxxxxxxx |       571871 |       571876 |       571876 |xxxxxxxxxxxxx |xxxxxxxxxxxxx |xxxxxxxxxxxxx |xxxxxxxxxxxxx |      1245157 |      1245160 |      1245161 |xxxxxxxxxxxxx |xxxxxxxxxxxxx |xxxxxxxxxxxxx |xxxxxxxxxxxxx |      2700502 |      2700505 |      2700506 |xxxxxxxxxxxxx |xxxxxxxxxxxxx |xxxxxxxxxxxxx |xxxxxxxxxxxxx |      6050487 |      6050490 |      6050491 |xxxxxxxxxxxxx |xxxxxxxxxxxxx |xxxxxxxxxxxxx |xxxxxxxxxxxxx |     12352325 |     12352328 |     12352329 |xxxxxxxxxxxxx |xxxxxxxxxxxxx |xxxxxxxxxxxxx |xxxxxxxxxxxxx |     26489988 |     26489991 |     26489992 |xxxxxxxxxxxxx |xxxxxxxxxxxxx |xxxxxxxxxxxxx |xxxxxxxxxxxxx |     56215318 |     56215321 |     56215322 |xxxxxxxxxxxxx |xxxxxxxxxxxxx |xxxxxxxxxxxxx |xxxxxxxxxxxxx |    121229740 |    121229743 |    121229744 |xxxxxxxxxxxxx |xxxxxxxxxxxxx |xxxxxxxxxxxxx |xxxxxxxxxxxxx |    252651747 |    252651750 |    252651751 |
bpred_bimod.dir_hits                        110748 |       110749 |       110749 |xxxxxxxxxxxxx |xxxxxxxxxxxxx |xxxxxxxxxxxxx |xxxxxxxxxxxxx |       253307 |       253311 |       253310 |xxxxxxxxxxxxx |xxxxxxxxxxxxx |xxxxxxxxxxxxx |xxxxxxxxxxxxx |       571973 |       571977 |       571974 |xxxxxxxxxxxxx |xxxxxxxxxxxxx |xxxxxxxxxxxxx |xxxxxxxxxxxxx |      1245260 |      1245263 |      1245262 |xxxxxxxxxxxxx |xxxxxxxxxxxxx |xxxxxxxxxxxxx |xxxxxxxxxxxxx |      2700601 |      2700604 |      2700603 |xxxxxxxxxxxxx |xxxxxxxxxxxxx |xxxxxxxxxxxxx |xxxxxxxxxxxxx |      6050588 |      6050591 |      6050590 |xxxxxxxxxxxxx |xxxxxxxxxxxxx |xxxxxxxxxxxxx |xxxxxxxxxxxxx |     12352427 |     12352429 |     12352428 |xxxxxxxxxxxxx |xxxxxxxxxxxxx |xxxxxxxxxxxxx |xxxxxxxxxxxxx |     26490090 |     26490092 |     26490091 |xxxxxxxxxxxxx |xxxxxxxxxxxxx |xxxxxxxxxxxxx |xxxxxxxxxxxxx |     56215417 |     56215420 |     56215419 |xxxxxxxxxxxxx |xxxxxxxxxxxxx |xxxxxxxxxxxxx |xxxxxxxxxxxxx |    121229844 |    121229847 |    121229846 |xxxxxxxxxxxxx |xxxxxxxxxxxxx |xxxxxxxxxxxxx |xxxxxxxxxxxxx |    252651849 |    252651851 |    252651850 |
bpred_bimod.misses                           33954 |        33953 |        33953 |xxxxxxxxxxxxx |xxxxxxxxxxxxx |xxxxxxxxxxxxx |xxxxxxxxxxxxx |        75939 |        75935 |        75936 |xxxxxxxxxxxxx |xxxxxxxxxxxxx |xxxxxxxxxxxxx |xxxxxxxxxxxxx |       172492 |       172488 |       172491 |xxxxxxxxxxxxx |xxxxxxxxxxxxx |xxxxxxxxxxxxx |xxxxxxxxxxxxx |       376028 |       376025 |       376026 |xxxxxxxxxxxxx |xxxxxxxxxxxxx |xxxxxxxxxxxxx |xxxxxxxxxxxxx |       747056 |       747053 |       747054 |xxxxxxxxxxxxx |xxxxxxxxxxxxx |xxxxxxxxxxxxx |xxxxxxxxxxxxx |      1636020 |      1636017 |      1636018 |xxxxxxxxxxxxx |xxxxxxxxxxxxx |xxxxxxxxxxxxx |xxxxxxxxxxxxx |      3544960 |      3544958 |      3544959 |xxxxxxxxxxxxx |xxxxxxxxxxxxx |xxxxxxxxxxxxx |xxxxxxxxxxxxx |      7721104 |      7721102 |      7721103 |xxxxxxxxxxxxx |xxxxxxxxxxxxx |xxxxxxxxxxxxx |xxxxxxxxxxxxx |     16687284 |     16687281 |     16687282 |xxxxxxxxxxxxx |xxxxxxxxxxxxx |xxxxxxxxxxxxx |xxxxxxxxxxxxx |     35571674 |     35571671 |     35571672 |xxxxxxxxxxxxx |xxxxxxxxxxxxx |xxxxxxxxxxxxx |xxxxxxxxxxxxx |     75699506 |     75699504 |     75699505 |
bpred_bimod.jr_hits                             57 |           57 |           57 |xxxxxxxxxxxxx |xxxxxxxxxxxxx |xxxxxxxxxxxxx |xxxxxxxxxxxxx |           57 |           57 |           57 |xxxxxxxxxxxxx |xxxxxxxxxxxxx |xxxxxxxxxxxxx |xxxxxxxxxxxxx |           57 |           57 |           57 |xxxxxxxxxxxxx |xxxxxxxxxxxxx |xxxxxxxxxxxxx |xxxxxxxxxxxxx |           57 |           57 |           57 |xxxxxxxxxxxxx |xxxxxxxxxxxxx |xxxxxxxxxxxxx |xxxxxxxxxxxxx |           57 |           57 |           57 |xxxxxxxxxxxxx |xxxxxxxxxxxxx |xxxxxxxxxxxxx |xxxxxxxxxxxxx |           57 |           57 |           57 |xxxxxxxxxxxxx |xxxxxxxxxxxxx |xxxxxxxxxxxxx |xxxxxxxxxxxxx |           57 |           57 |           57 |xxxxxxxxxxxxx |xxxxxxxxxxxxx |xxxxxxxxxxxxx |xxxxxxxxxxxxx |           57 |           57 |           57 |xxxxxxxxxxxxx |xxxxxxxxxxxxx |xxxxxxxxxxxxx |xxxxxxxxxxxxx |           57 |           57 |           57 |xxxxxxxxxxxxx |xxxxxxxxxxxxx |xxxxxxxxxxxxx |xxxxxxxxxxxxx |           57 |           57 |           57 |xxxxxxxxxxxxx |xxxxxxxxxxxxx |xxxxxxxxxxxxx |xxxxxxxxxxxxx |           57 |           57 |           57 |
bpred_bimod.jr_seen                             58 |           58 |           58 |xxxxxxxxxxxxx |xxxxxxxxxxxxx |xxxxxxxxxxxxx |xxxxxxxxxxxxx |           58 |           58 |           58 |xxxxxxxxxxxxx |xxxxxxxxxxxxx |xxxxxxxxxxxxx |xxxxxxxxxxxxx |           58 |           58 |           58 |xxxxxxxxxxxxx |xxxxxxxxxxxxx |xxxxxxxxxxxxx |xxxxxxxxxxxxx |           58 |           58 |           58 |xxxxxxxxxxxxx |xxxxxxxxxxxxx |xxxxxxxxxxxxx |xxxxxxxxxxxxx |           58 |           58 |           58 |xxxxxxxxxxxxx |xxxxxxxxxxxxx |xxxxxxxxxxxxx |xxxxxxxxxxxxx |           58 |           58 |           58 |xxxxxxxxxxxxx |xxxxxxxxxxxxx |xxxxxxxxxxxxx |xxxxxxxxxxxxx |           58 |           58 |           58 |xxxxxxxxxxxxx |xxxxxxxxxxxxx |xxxxxxxxxxxxx |xxxxxxxxxxxxx |           58 |           58 |           58 |xxxxxxxxxxxxx |xxxxxxxxxxxxx |xxxxxxxxxxxxx |xxxxxxxxxxxxx |           58 |           58 |           58 |xxxxxxxxxxxxx |xxxxxxxxxxxxx |xxxxxxxxxxxxx |xxxxxxxxxxxxx |           58 |           58 |           58 |xxxxxxxxxxxxx |xxxxxxxxxxxxx |xxxxxxxxxxxxx |xxxxxxxxxxxxx |           58 |           58 |           58 |
bpred_bimod.jr_non_ras_hits.PP                   0 |            0 |            0 |xxxxxxxxxxxxx |xxxxxxxxxxxxx |xxxxxxxxxxxxx |xxxxxxxxxxxxx |            0 |            0 |            0 |xxxxxxxxxxxxx |xxxxxxxxxxxxx |xxxxxxxxxxxxx |xxxxxxxxxxxxx |            0 |            0 |            0 |xxxxxxxxxxxxx |xxxxxxxxxxxxx |xxxxxxxxxxxxx |xxxxxxxxxxxxx |            0 |            0 |            0 |xxxxxxxxxxxxx |xxxxxxxxxxxxx |xxxxxxxxxxxxx |xxxxxxxxxxxxx |            0 |            0 |            0 |xxxxxxxxxxxxx |xxxxxxxxxxxxx |xxxxxxxxxxxxx |xxxxxxxxxxxxx |            0 |            0 |            0 |xxxxxxxxxxxxx |xxxxxxxxxxxxx |xxxxxxxxxxxxx |xxxxxxxxxxxxx |            0 |            0 |            0 |xxxxxxxxxxxxx |xxxxxxxxxxxxx |xxxxxxxxxxxxx |xxxxxxxxxxxxx |            0 |            0 |            0 |xxxxxxxxxxxxx |xxxxxxxxxxxxx |xxxxxxxxxxxxx |xxxxxxxxxxxxx |            0 |            0 |            0 |xxxxxxxxxxxxx |xxxxxxxxxxxxx |xxxxxxxxxxxxx |xxxxxxxxxxxxx |            0 |            0 |            0 |xxxxxxxxxxxxx |xxxxxxxxxxxxx |xxxxxxxxxxxxx |xxxxxxxxxxxxx |            0 |            0 |            0 |
bpred_bimod.jr_non_ras_seen.PP                   0 |            0 |            0 |xxxxxxxxxxxxx |xxxxxxxxxxxxx |xxxxxxxxxxxxx |xxxxxxxxxxxxx |            0 |            0 |            0 |xxxxxxxxxxxxx |xxxxxxxxxxxxx |xxxxxxxxxxxxx |xxxxxxxxxxxxx |            0 |            0 |            0 |xxxxxxxxxxxxx |xxxxxxxxxxxxx |xxxxxxxxxxxxx |xxxxxxxxxxxxx |            0 |            0 |            0 |xxxxxxxxxxxxx |xxxxxxxxxxxxx |xxxxxxxxxxxxx |xxxxxxxxxxxxx |            0 |            0 |            0 |xxxxxxxxxxxxx |xxxxxxxxxxxxx |xxxxxxxxxxxxx |xxxxxxxxxxxxx |            0 |            0 |            0 |xxxxxxxxxxxxx |xxxxxxxxxxxxx |xxxxxxxxxxxxx |xxxxxxxxxxxxx |            0 |            0 |            0 |xxxxxxxxxxxxx |xxxxxxxxxxxxx |xxxxxxxxxxxxx |xxxxxxxxxxxxx |            0 |            0 |            0 |xxxxxxxxxxxxx |xxxxxxxxxxxxx |xxxxxxxxxxxxx |xxxxxxxxxxxxx |            0 |            0 |            0 |xxxxxxxxxxxxx |xxxxxxxxxxxxx |xxxxxxxxxxxxx |xxxxxxxxxxxxx |            0 |            0 |            0 |xxxxxxxxxxxxx |xxxxxxxxxxxxx |xxxxxxxxxxxxx |xxxxxxxxxxxxx |            0 |            0 |            0 |
bpred_bimod.bpred_addr_rate                 0.7646 |       0.7647 |       0.7647 |xxxxxxxxxxxxx |xxxxxxxxxxxxx |xxxxxxxxxxxxx |xxxxxxxxxxxxx |       0.7691 |       0.7691 |       0.7691 |xxxxxxxxxxxxx |xxxxxxxxxxxxx |xxxxxxxxxxxxx |xxxxxxxxxxxxx |       0.7682 |       0.7682 |       0.7682 |xxxxxxxxxxxxx |xxxxxxxxxxxxx |xxxxxxxxxxxxx |xxxxxxxxxxxxx |       0.7680 |       0.7680 |       0.7680 |xxxxxxxxxxxxx |xxxxxxxxxxxxx |xxxxxxxxxxxxx |xxxxxxxxxxxxx |       0.7833 |       0.7833 |       0.7833 |xxxxxxxxxxxxx |xxxxxxxxxxxxx |xxxxxxxxxxxxx |xxxxxxxxxxxxx |       0.7871 |       0.7871 |       0.7871 |xxxxxxxxxxxxx |xxxxxxxxxxxxx |xxxxxxxxxxxxx |xxxxxxxxxxxxx |       0.7770 |       0.7770 |       0.7770 |xxxxxxxxxxxxx |xxxxxxxxxxxxx |xxxxxxxxxxxxx |xxxxxxxxxxxxx |       0.7743 |       0.7743 |       0.7743 |xxxxxxxxxxxxx |xxxxxxxxxxxxx |xxxxxxxxxxxxx |xxxxxxxxxxxxx |       0.7711 |       0.7711 |       0.7711 |xxxxxxxxxxxxx |xxxxxxxxxxxxx |xxxxxxxxxxxxx |xxxxxxxxxxxxx |       0.7731 |       0.7731 |       0.7731 |xxxxxxxxxxxxx |xxxxxxxxxxxxx |xxxxxxxxxxxxx |xxxxxxxxxxxxx |       0.7695 |       0.7695 |       0.7695 |
bpred_bimod.bpred_dir_rate                  0.7654 |       0.7654 |       0.7654 |xxxxxxxxxxxxx |xxxxxxxxxxxxx |xxxxxxxxxxxxx |xxxxxxxxxxxxx |       0.7694 |       0.7694 |       0.7694 |xxxxxxxxxxxxx |xxxxxxxxxxxxx |xxxxxxxxxxxxx |xxxxxxxxxxxxx |       0.7683 |       0.7683 |       0.7683 |xxxxxxxxxxxxx |xxxxxxxxxxxxx |xxxxxxxxxxxxx |xxxxxxxxxxxxx |       0.7681 |       0.7681 |       0.7681 |xxxxxxxxxxxxx |xxxxxxxxxxxxx |xxxxxxxxxxxxx |xxxxxxxxxxxxx |       0.7833 |       0.7833 |       0.7833 |xxxxxxxxxxxxx |xxxxxxxxxxxxx |xxxxxxxxxxxxx |xxxxxxxxxxxxx |       0.7872 |       0.7872 |       0.7872 |xxxxxxxxxxxxx |xxxxxxxxxxxxx |xxxxxxxxxxxxx |xxxxxxxxxxxxx |       0.7770 |       0.7770 |       0.7770 |xxxxxxxxxxxxx |xxxxxxxxxxxxx |xxxxxxxxxxxxx |xxxxxxxxxxxxx |       0.7743 |       0.7743 |       0.7743 |xxxxxxxxxxxxx |xxxxxxxxxxxxx |xxxxxxxxxxxxx |xxxxxxxxxxxxx |       0.7711 |       0.7711 |       0.7711 |xxxxxxxxxxxxx |xxxxxxxxxxxxx |xxxxxxxxxxxxx |xxxxxxxxxxxxx |       0.7731 |       0.7731 |       0.7731 |xxxxxxxxxxxxx |xxxxxxxxxxxxx |xxxxxxxxxxxxx |xxxxxxxxxxxxx |       0.7695 |       0.7695 |       0.7695 |
bpred_bimod.bpred_jr_rate                   0.9828 |       0.9828 |       0.9828 |xxxxxxxxxxxxx |xxxxxxxxxxxxx |xxxxxxxxxxxxx |xxxxxxxxxxxxx |       0.9828 |       0.9828 |       0.9828 |xxxxxxxxxxxxx |xxxxxxxxxxxxx |xxxxxxxxxxxxx |xxxxxxxxxxxxx |       0.9828 |       0.9828 |       0.9828 |xxxxxxxxxxxxx |xxxxxxxxxxxxx |xxxxxxxxxxxxx |xxxxxxxxxxxxx |       0.9828 |       0.9828 |       0.9828 |xxxxxxxxxxxxx |xxxxxxxxxxxxx |xxxxxxxxxxxxx |xxxxxxxxxxxxx |       0.9828 |       0.9828 |       0.9828 |xxxxxxxxxxxxx |xxxxxxxxxxxxx |xxxxxxxxxxxxx |xxxxxxxxxxxxx |       0.9828 |       0.9828 |       0.9828 |xxxxxxxxxxxxx |xxxxxxxxxxxxx |xxxxxxxxxxxxx |xxxxxxxxxxxxx |       0.9828 |       0.9828 |       0.9828 |xxxxxxxxxxxxx |xxxxxxxxxxxxx |xxxxxxxxxxxxx |xxxxxxxxxxxxx |       0.9828 |       0.9828 |       0.9828 |xxxxxxxxxxxxx |xxxxxxxxxxxxx |xxxxxxxxxxxxx |xxxxxxxxxxxxx |       0.9828 |       0.9828 |       0.9828 |xxxxxxxxxxxxx |xxxxxxxxxxxxx |xxxxxxxxxxxxx |xxxxxxxxxxxxx |       0.9828 |       0.9828 |       0.9828 |xxxxxxxxxxxxx |xxxxxxxxxxxxx |xxxxxxxxxxxxx |xxxxxxxxxxxxx |       0.9828 |       0.9828 |       0.9828 |
bpred_bimod.bpred_jr_non_ras_rate.PP       <error: |      <error: |      <error: |xxxxxxxxxxxxx |xxxxxxxxxxxxx |xxxxxxxxxxxxx |xxxxxxxxxxxxx |      <error: |      <error: |      <error: |xxxxxxxxxxxxx |xxxxxxxxxxxxx |xxxxxxxxxxxxx |xxxxxxxxxxxxx |      <error: |      <error: |      <error: |xxxxxxxxxxxxx |xxxxxxxxxxxxx |xxxxxxxxxxxxx |xxxxxxxxxxxxx |      <error: |      <error: |      <error: |xxxxxxxxxxxxx |xxxxxxxxxxxxx |xxxxxxxxxxxxx |xxxxxxxxxxxxx |      <error: |      <error: |      <error: |xxxxxxxxxxxxx |xxxxxxxxxxxxx |xxxxxxxxxxxxx |xxxxxxxxxxxxx |      <error: |      <error: |      <error: |xxxxxxxxxxxxx |xxxxxxxxxxxxx |xxxxxxxxxxxxx |xxxxxxxxxxxxx |      <error: |      <error: |      <error: |xxxxxxxxxxxxx |xxxxxxxxxxxxx |xxxxxxxxxxxxx |xxxxxxxxxxxxx |      <error: |      <error: |      <error: |xxxxxxxxxxxxx |xxxxxxxxxxxxx |xxxxxxxxxxxxx |xxxxxxxxxxxxx |      <error: |      <error: |      <error: |xxxxxxxxxxxxx |xxxxxxxxxxxxx |xxxxxxxxxxxxx |xxxxxxxxxxxxx |      <error: |      <error: |      <error: |xxxxxxxxxxxxx |xxxxxxxxxxxxx |xxxxxxxxxxxxx |xxxxxxxxxxxxx |      <error: |      <error: |      <error: |
bpred_bimod.retstack_pushes                     60 |           60 |           60 |xxxxxxxxxxxxx |xxxxxxxxxxxxx |xxxxxxxxxxxxx |xxxxxxxxxxxxx |           60 |           60 |           60 |xxxxxxxxxxxxx |xxxxxxxxxxxxx |xxxxxxxxxxxxx |xxxxxxxxxxxxx |           60 |           60 |           60 |xxxxxxxxxxxxx |xxxxxxxxxxxxx |xxxxxxxxxxxxx |xxxxxxxxxxxxx |           60 |           60 |           60 |xxxxxxxxxxxxx |xxxxxxxxxxxxx |xxxxxxxxxxxxx |xxxxxxxxxxxxx |           60 |           60 |           60 |xxxxxxxxxxxxx |xxxxxxxxxxxxx |xxxxxxxxxxxxx |xxxxxxxxxxxxx |           60 |           60 |           60 |xxxxxxxxxxxxx |xxxxxxxxxxxxx |xxxxxxxxxxxxx |xxxxxxxxxxxxx |           60 |           60 |           60 |xxxxxxxxxxxxx |xxxxxxxxxxxxx |xxxxxxxxxxxxx |xxxxxxxxxxxxx |           60 |           60 |           60 |xxxxxxxxxxxxx |xxxxxxxxxxxxx |xxxxxxxxxxxxx |xxxxxxxxxxxxx |           60 |           60 |           60 |xxxxxxxxxxxxx |xxxxxxxxxxxxx |xxxxxxxxxxxxx |xxxxxxxxxxxxx |           60 |           60 |           60 |xxxxxxxxxxxxx |xxxxxxxxxxxxx |xxxxxxxxxxxxx |xxxxxxxxxxxxx |           60 |           60 |           60 |
bpred_bimod.retstack_pops                       58 |           58 |           58 |xxxxxxxxxxxxx |xxxxxxxxxxxxx |xxxxxxxxxxxxx |xxxxxxxxxxxxx |           58 |           58 |           58 |xxxxxxxxxxxxx |xxxxxxxxxxxxx |xxxxxxxxxxxxx |xxxxxxxxxxxxx |           58 |           58 |           58 |xxxxxxxxxxxxx |xxxxxxxxxxxxx |xxxxxxxxxxxxx |xxxxxxxxxxxxx |           58 |           58 |           58 |xxxxxxxxxxxxx |xxxxxxxxxxxxx |xxxxxxxxxxxxx |xxxxxxxxxxxxx |           58 |           58 |           58 |xxxxxxxxxxxxx |xxxxxxxxxxxxx |xxxxxxxxxxxxx |xxxxxxxxxxxxx |           58 |           58 |           58 |xxxxxxxxxxxxx |xxxxxxxxxxxxx |xxxxxxxxxxxxx |xxxxxxxxxxxxx |           58 |           58 |           58 |xxxxxxxxxxxxx |xxxxxxxxxxxxx |xxxxxxxxxxxxx |xxxxxxxxxxxxx |           58 |           58 |           58 |xxxxxxxxxxxxx |xxxxxxxxxxxxx |xxxxxxxxxxxxx |xxxxxxxxxxxxx |           58 |           58 |           58 |xxxxxxxxxxxxx |xxxxxxxxxxxxx |xxxxxxxxxxxxx |xxxxxxxxxxxxx |           58 |           58 |           58 |xxxxxxxxxxxxx |xxxxxxxxxxxxx |xxxxxxxxxxxxx |xxxxxxxxxxxxx |           58 |           58 |           58 |
bpred_bimod.used_ras.PP                         58 |           58 |           58 |xxxxxxxxxxxxx |xxxxxxxxxxxxx |xxxxxxxxxxxxx |xxxxxxxxxxxxx |           58 |           58 |           58 |xxxxxxxxxxxxx |xxxxxxxxxxxxx |xxxxxxxxxxxxx |xxxxxxxxxxxxx |           58 |           58 |           58 |xxxxxxxxxxxxx |xxxxxxxxxxxxx |xxxxxxxxxxxxx |xxxxxxxxxxxxx |           58 |           58 |           58 |xxxxxxxxxxxxx |xxxxxxxxxxxxx |xxxxxxxxxxxxx |xxxxxxxxxxxxx |           58 |           58 |           58 |xxxxxxxxxxxxx |xxxxxxxxxxxxx |xxxxxxxxxxxxx |xxxxxxxxxxxxx |           58 |           58 |           58 |xxxxxxxxxxxxx |xxxxxxxxxxxxx |xxxxxxxxxxxxx |xxxxxxxxxxxxx |           58 |           58 |           58 |xxxxxxxxxxxxx |xxxxxxxxxxxxx |xxxxxxxxxxxxx |xxxxxxxxxxxxx |           58 |           58 |           58 |xxxxxxxxxxxxx |xxxxxxxxxxxxx |xxxxxxxxxxxxx |xxxxxxxxxxxxx |           58 |           58 |           58 |xxxxxxxxxxxxx |xxxxxxxxxxxxx |xxxxxxxxxxxxx |xxxxxxxxxxxxx |           58 |           58 |           58 |xxxxxxxxxxxxx |xxxxxxxxxxxxx |xxxxxxxxxxxxx |xxxxxxxxxxxxx |           58 |           58 |           58 |
bpred_bimod.ras_hits.PP                         57 |           57 |           57 |xxxxxxxxxxxxx |xxxxxxxxxxxxx |xxxxxxxxxxxxx |xxxxxxxxxxxxx |           57 |           57 |           57 |xxxxxxxxxxxxx |xxxxxxxxxxxxx |xxxxxxxxxxxxx |xxxxxxxxxxxxx |           57 |           57 |           57 |xxxxxxxxxxxxx |xxxxxxxxxxxxx |xxxxxxxxxxxxx |xxxxxxxxxxxxx |           57 |           57 |           57 |xxxxxxxxxxxxx |xxxxxxxxxxxxx |xxxxxxxxxxxxx |xxxxxxxxxxxxx |           57 |           57 |           57 |xxxxxxxxxxxxx |xxxxxxxxxxxxx |xxxxxxxxxxxxx |xxxxxxxxxxxxx |           57 |           57 |           57 |xxxxxxxxxxxxx |xxxxxxxxxxxxx |xxxxxxxxxxxxx |xxxxxxxxxxxxx |           57 |           57 |           57 |xxxxxxxxxxxxx |xxxxxxxxxxxxx |xxxxxxxxxxxxx |xxxxxxxxxxxxx |           57 |           57 |           57 |xxxxxxxxxxxxx |xxxxxxxxxxxxx |xxxxxxxxxxxxx |xxxxxxxxxxxxx |           57 |           57 |           57 |xxxxxxxxxxxxx |xxxxxxxxxxxxx |xxxxxxxxxxxxx |xxxxxxxxxxxxx |           57 |           57 |           57 |xxxxxxxxxxxxx |xxxxxxxxxxxxx |xxxxxxxxxxxxx |xxxxxxxxxxxxx |           57 |           57 |           57 |
bpred_bimod.ras_rate.PP                     0.9828 |       0.9828 |       0.9828 |xxxxxxxxxxxxx |xxxxxxxxxxxxx |xxxxxxxxxxxxx |xxxxxxxxxxxxx |       0.9828 |       0.9828 |       0.9828 |xxxxxxxxxxxxx |xxxxxxxxxxxxx |xxxxxxxxxxxxx |xxxxxxxxxxxxx |       0.9828 |       0.9828 |       0.9828 |xxxxxxxxxxxxx |xxxxxxxxxxxxx |xxxxxxxxxxxxx |xxxxxxxxxxxxx |       0.9828 |       0.9828 |       0.9828 |xxxxxxxxxxxxx |xxxxxxxxxxxxx |xxxxxxxxxxxxx |xxxxxxxxxxxxx |       0.9828 |       0.9828 |       0.9828 |xxxxxxxxxxxxx |xxxxxxxxxxxxx |xxxxxxxxxxxxx |xxxxxxxxxxxxx |       0.9828 |       0.9828 |       0.9828 |xxxxxxxxxxxxx |xxxxxxxxxxxxx |xxxxxxxxxxxxx |xxxxxxxxxxxxx |       0.9828 |       0.9828 |       0.9828 |xxxxxxxxxxxxx |xxxxxxxxxxxxx |xxxxxxxxxxxxx |xxxxxxxxxxxxx |       0.9828 |       0.9828 |       0.9828 |xxxxxxxxxxxxx |xxxxxxxxxxxxx |xxxxxxxxxxxxx |xxxxxxxxxxxxx |       0.9828 |       0.9828 |       0.9828 |xxxxxxxxxxxxx |xxxxxxxxxxxxx |xxxxxxxxxxxxx |xxxxxxxxxxxxx |       0.9828 |       0.9828 |       0.9828 |xxxxxxxxxxxxx |xxxxxxxxxxxxx |xxxxxxxxxxxxx |xxxxxxxxxxxxx |       0.9828 |       0.9828 |       0.9828 |
bpred_2lev.lookups                   xxxxxxxxxxxxx |xxxxxxxxxxxxx |xxxxxxxxxxxxx |       144702 |       144702 |       144702 |       144702 |xxxxxxxxxxxxx |xxxxxxxxxxxxx |xxxxxxxxxxxxx |       329246 |       329246 |       329246 |       329246 |xxxxxxxxxxxxx |xxxxxxxxxxxxx |xxxxxxxxxxxxx |       744465 |       744465 |       744465 |       744465 |xxxxxxxxxxxxx |xxxxxxxxxxxxx |xxxxxxxxxxxxx |      1621288 |      1621288 |      1621288 |      1621288 |xxxxxxxxxxxxx |xxxxxxxxxxxxx |xxxxxxxxxxxxx |      3447657 |      3447657 |      3447657 |      3447657 |xxxxxxxxxxxxx |xxxxxxxxxxxxx |xxxxxxxxxxxxx |      7686608 |      7686608 |      7686608 |      7686608 |xxxxxxxxxxxxx |xxxxxxxxxxxxx |xxxxxxxxxxxxx |     15897387 |     15897387 |     15897387 |     15897387 |xxxxxxxxxxxxx |xxxxxxxxxxxxx |xxxxxxxxxxxxx |     34211194 |     34211194 |     34211194 |     34211194 |xxxxxxxxxxxxx |xxxxxxxxxxxxx |xxxxxxxxxxxxx |     72902701 |     72902701 |     72902701 |     72902701 |xxxxxxxxxxxxx |xxxxxxxxxxxxx |xxxxxxxxxxxxx |    156801518 |    156801518 |    156801518 |    156801518 |xxxxxxxxxxxxx |xxxxxxxxxxxxx |xxxxxxxxxxxxx |    328351355 |    328351355 |    328351355 |    328351355 |
[...]
bpred_2lev.retstack_pushes           xxxxxxxxxxxxx |xxxxxxxxxxxxx |xxxxxxxxxxxxx |           60 |           60 |           60 |           60 |xxxxxxxxxxxxx |xxxxxxxxxxxxx |xxxxxxxxxxxxx |           60 |           60 |           60 |           60 |xxxxxxxxxxxxx |xxxxxxxxxxxxx |xxxxxxxxxxxxx |           60 |           60 |           60 |           60 |xxxxxxxxxxxxx |xxxxxxxxxxxxx |xxxxxxxxxxxxx |           60 |           60 |           60 |           60 |xxxxxxxxxxxxx |xxxxxxxxxxxxx |xxxxxxxxxxxxx |           60 |           60 |           60 |           60 |xxxxxxxxxxxxx |xxxxxxxxxxxxx |xxxxxxxxxxxxx |           60 |           60 |           60 |           60 |xxxxxxxxxxxxx |xxxxxxxxxxxxx |xxxxxxxxxxxxx |           60 |           60 |           60 |           60 |xxxxxxxxxxxxx |xxxxxxxxxxxxx |xxxxxxxxxxxxx |           60 |           60 |           60 |           60 |xxxxxxxxxxxxx |xxxxxxxxxxxxx |xxxxxxxxxxxxx |           60 |           60 |           60 |           60 |xxxxxxxxxxxxx |xxxxxxxxxxxxx |xxxxxxxxxxxxx |           60 |           60 |           60 |           60 |xxxxxxxxxxxxx |xxxxxxxxxxxxx |xxxxxxxxxxxxx |           60 |           60 |           60 |           60 |
bpred_2lev.retstack_pops             xxxxxxxxxxxxx |xxxxxxxxxxxxx |xxxxxxxxxxxxx |           58 |           58 |           58 |           58 |xxxxxxxxxxxxx |xxxxxxxxxxxxx |xxxxxxxxxxxxx |           58 |           58 |           58 |           58 |xxxxxxxxxxxxx |xxxxxxxxxxxxx |xxxxxxxxxxxxx |           58 |           58 |           58 |           58 |xxxxxxxxxxxxx |xxxxxxxxxxxxx |xxxxxxxxxxxxx |           58 |           58 |           58 |           58 |xxxxxxxxxxxxx |xxxxxxxxxxxxx |xxxxxxxxxxxxx |           58 |           58 |           58 |           58 |xxxxxxxxxxxxx |xxxxxxxxxxxxx |xxxxxxxxxxxxx |           58 |           58 |           58 |           58 |xxxxxxxxxxxxx |xxxxxxxxxxxxx |xxxxxxxxxxxxx |           58 |           58 |           58 |           58 |xxxxxxxxxxxxx |xxxxxxxxxxxxx |xxxxxxxxxxxxx |           58 |           58 |           58 |           58 |xxxxxxxxxxxxx |xxxxxxxxxxxxx |xxxxxxxxxxxxx |           58 |           58 |           58 |           58 |xxxxxxxxxxxxx |xxxxxxxxxxxxx |xxxxxxxxxxxxx |           58 |           58 |           58 |           58 |xxxxxxxxxxxxx |xxxxxxxxxxxxx |xxxxxxxxxxxxx |           58 |           58 |           58 |           58 |
bpred_2lev.used_ras.PP               xxxxxxxxxxxxx |xxxxxxxxxxxxx |xxxxxxxxxxxxx |           58 |           58 |           58 |           58 |xxxxxxxxxxxxx |xxxxxxxxxxxxx |xxxxxxxxxxxxx |           58 |           58 |           58 |           58 |xxxxxxxxxxxxx |xxxxxxxxxxxxx |xxxxxxxxxxxxx |           58 |           58 |           58 |           58 |xxxxxxxxxxxxx |xxxxxxxxxxxxx |xxxxxxxxxxxxx |           58 |           58 |           58 |           58 |xxxxxxxxxxxxx |xxxxxxxxxxxxx |xxxxxxxxxxxxx |           58 |           58 |           58 |           58 |xxxxxxxxxxxxx |xxxxxxxxxxxxx |xxxxxxxxxxxxx |           58 |           58 |           58 |           58 |xxxxxxxxxxxxx |xxxxxxxxxxxxx |xxxxxxxxxxxxx |           58 |           58 |           58 |           58 |xxxxxxxxxxxxx |xxxxxxxxxxxxx |xxxxxxxxxxxxx |           58 |           58 |           58 |           58 |xxxxxxxxxxxxx |xxxxxxxxxxxxx |xxxxxxxxxxxxx |           58 |           58 |           58 |           58 |xxxxxxxxxxxxx |xxxxxxxxxxxxx |xxxxxxxxxxxxx |           58 |           58 |           58 |           58 |xxxxxxxxxxxxx |xxxxxxxxxxxxx |xxxxxxxxxxxxx |           58 |           58 |           58 |           58 |
bpred_2lev.ras_hits.PP               xxxxxxxxxxxxx |xxxxxxxxxxxxx |xxxxxxxxxxxxx |           57 |           57 |           57 |           57 |xxxxxxxxxxxxx |xxxxxxxxxxxxx |xxxxxxxxxxxxx |           57 |           57 |           57 |           57 |xxxxxxxxxxxxx |xxxxxxxxxxxxx |xxxxxxxxxxxxx |           57 |           57 |           57 |           57 |xxxxxxxxxxxxx |xxxxxxxxxxxxx |xxxxxxxxxxxxx |           57 |           57 |           57 |           57 |xxxxxxxxxxxxx |xxxxxxxxxxxxx |xxxxxxxxxxxxx |           57 |           57 |           57 |           57 |xxxxxxxxxxxxx |xxxxxxxxxxxxx |xxxxxxxxxxxxx |           57 |           57 |           57 |           57 |xxxxxxxxxxxxx |xxxxxxxxxxxxx |xxxxxxxxxxxxx |           57 |           57 |           57 |           57 |xxxxxxxxxxxxx |xxxxxxxxxxxxx |xxxxxxxxxxxxx |           57 |           57 |           57 |           57 |xxxxxxxxxxxxx |xxxxxxxxxxxxx |xxxxxxxxxxxxx |           57 |           57 |           57 |           57 |xxxxxxxxxxxxx |xxxxxxxxxxxxx |xxxxxxxxxxxxx |           57 |           57 |           57 |           57 |xxxxxxxxxxxxx |xxxxxxxxxxxxx |xxxxxxxxxxxxx |           57 |           57 |           57 |           57 |
bpred_2lev.ras_rate.PP               xxxxxxxxxxxxx |xxxxxxxxxxxxx |xxxxxxxxxxxxx |       0.9828 |       0.9828 |       0.9828 |       0.9828 |xxxxxxxxxxxxx |xxxxxxxxxxxxx |xxxxxxxxxxxxx |       0.9828 |       0.9828 |       0.9828 |       0.9828 |xxxxxxxxxxxxx |xxxxxxxxxxxxx |xxxxxxxxxxxxx |       0.9828 |       0.9828 |       0.9828 |       0.9828 |xxxxxxxxxxxxx |xxxxxxxxxxxxx |xxxxxxxxxxxxx |       0.9828 |       0.9828 |       0.9828 |       0.9828 |xxxxxxxxxxxxx |xxxxxxxxxxxxx |xxxxxxxxxxxxx |       0.9828 |       0.9828 |       0.9828 |       0.9828 |xxxxxxxxxxxxx |xxxxxxxxxxxxx |xxxxxxxxxxxxx |       0.9828 |       0.9828 |       0.9828 |       0.9828 |xxxxxxxxxxxxx |xxxxxxxxxxxxx |xxxxxxxxxxxxx |       0.9828 |       0.9828 |       0.9828 |       0.9828 |xxxxxxxxxxxxx |xxxxxxxxxxxxx |xxxxxxxxxxxxx |       0.9828 |       0.9828 |       0.9828 |       0.9828 |xxxxxxxxxxxxx |xxxxxxxxxxxxx |xxxxxxxxxxxxx |       0.9828 |       0.9828 |       0.9828 |       0.9828 |xxxxxxxxxxxxx |xxxxxxxxxxxxx |xxxxxxxxxxxxx |       0.9828 |       0.9828 |       0.9828 |       0.9828 |xxxxxxxxxxxxx |xxxxxxxxxxxxx |xxxxxxxxxxxxx |       0.9828 |       0.9828 |       0.9828 |       0.9828 |

Command list: 
	sslittle-na-sstrix-gcc -Wall -O3 -funroll-loops -finline-functions  -DRANDOM_SIZE=4096 -DOFFSET=3 -DSORT=improved_shellsort sorts/improved_shellsort1724488213.c simpleMain.c -o improved_shellsort325640923
	sim-cache -cache:dl1 dl1:256:32:1:l -cache:dl2 dl2:131072:32:1:l -cache:il1 il1:256:32:1:l -cache:il2 dl2 improved_shellsort325640923
	sim-cache -cache:dl1 dl1:256:32:1:l -cache:dl2 dl2:65536:32:1:l -cache:il1 il1:256:32:1:l -cache:il2 dl2 improved_shellsort325640923
	sim-cache -cache:dl1 dl1:1:32:256:l -cache:dl2 dl2:1:32:131072:l -cache:il1 il1:1:32:256:l -cache:il2 dl2 improved_shellsort325640923
	sim-cache -cache:dl1 dl1:1:32:256:l -cache:dl2 dl2:1:32:65536:l -cache:il1 il1:1:32:256:l -cache:il2 dl2 improved_shellsort325640923
	sim-bpred -bpred bimod -bpred:bimod 512 improved_shellsort325640923
	sim-bpred -bpred bimod -bpred:bimod 1024 improved_shellsort325640923
	sim-bpred -bpred bimod -bpred:bimod 2048 improved_shellsort325640923
	sim-bpred -bpred 2lev -bpred:2lev 1 512 10 1 improved_shellsort325640923
	sim-bpred -bpred 2lev -bpred:2lev 1 1024 10 1 improved_shellsort325640923
	sim-bpred -bpred 2lev -bpred:2lev 1 2048 10 1 improved_shellsort325640923
	sim-bpred -bpred 2lev -bpred:2lev 1 4096 10 1 improved_shellsort325640923
	sslittle-na-sstrix-gcc -Wall -O3 -funroll-loops -finline-functions  -DRANDOM_SIZE=8192 -DOFFSET=3 -DSORT=improved_shellsort sorts/improved_shellsort1724488213.c simpleMain.c -o improved_shellsort325640923
	sim-cache -cache:dl1 dl1:256:32:1:l -cache:dl2 dl2:131072:32:1:l -cache:il1 il1:256:32:1:l -cache:il2 dl2 improved_shellsort325640923
	sim-cache -cache:dl1 dl1:256:32:1:l -cache:dl2 dl2:65536:32:1:l -cache:il1 il1:256:32:1:l -cache:il2 dl2 improved_shellsort325640923
	sim-cache -cache:dl1 dl1:1:32:256:l -cache:dl2 dl2:1:32:131072:l -cache:il1 il1:1:32:256:l -cache:il2 dl2 improved_shellsort325640923
	sim-cache -cache:dl1 dl1:1:32:256:l -cache:dl2 dl2:1:32:65536:l -cache:il1 il1:1:32:256:l -cache:il2 dl2 improved_shellsort325640923
	sim-bpred -bpred bimod -bpred:bimod 512 improved_shellsort325640923
	sim-bpred -bpred bimod -bpred:bimod 1024 improved_shellsort325640923
	sim-bpred -bpred bimod -bpred:bimod 2048 improved_shellsort325640923
	sim-bpred -bpred 2lev -bpred:2lev 1 512 10 1 improved_shellsort325640923
	sim-bpred -bpred 2lev -bpred:2lev 1 1024 10 1 improved_shellsort325640923
	sim-bpred -bpred 2lev -bpred:2lev 1 2048 10 1 improved_shellsort325640923
	sim-bpred -bpred 2lev -bpred:2lev 1 4096 10 1 improved_shellsort325640923
	sslittle-na-sstrix-gcc -Wall -O3 -funroll-loops -finline-functions  -DRANDOM_SIZE=16384 -DOFFSET=3 -DSORT=improved_shellsort sorts/improved_shellsort1724488213.c simpleMain.c -o improved_shellsort325640923
	sim-cache -cache:dl1 dl1:256:32:1:l -cache:dl2 dl2:131072:32:1:l -cache:il1 il1:256:32:1:l -cache:il2 dl2 improved_shellsort325640923
	sim-cache -cache:dl1 dl1:256:32:1:l -cache:dl2 dl2:65536:32:1:l -cache:il1 il1:256:32:1:l -cache:il2 dl2 improved_shellsort325640923
	sim-cache -cache:dl1 dl1:1:32:256:l -cache:dl2 dl2:1:32:131072:l -cache:il1 il1:1:32:256:l -cache:il2 dl2 improved_shellsort325640923
	sim-cache -cache:dl1 dl1:1:32:256:l -cache:dl2 dl2:1:32:65536:l -cache:il1 il1:1:32:256:l -cache:il2 dl2 improved_shellsort325640923
	sim-bpred -bpred bimod -bpred:bimod 512 improved_shellsort325640923
	sim-bpred -bpred bimod -bpred:bimod 1024 improved_shellsort325640923
	sim-bpred -bpred bimod -bpred:bimod 2048 improved_shellsort325640923
	sim-bpred -bpred 2lev -bpred:2lev 1 512 10 1 improved_shellsort325640923
	sim-bpred -bpred 2lev -bpred:2lev 1 1024 10 1 improved_shellsort325640923
	sim-bpred -bpred 2lev -bpred:2lev 1 2048 10 1 improved_shellsort325640923
	sim-bpred -bpred 2lev -bpred:2lev 1 4096 10 1 improved_shellsort325640923
	sslittle-na-sstrix-gcc -Wall -O3 -funroll-loops -finline-functions  -DRANDOM_SIZE=32768 -DOFFSET=3 -DSORT=improved_shellsort sorts/improved_shellsort1724488213.c simpleMain.c -o improved_shellsort325640923
	sim-cache -cache:dl1 dl1:256:32:1:l -cache:dl2 dl2:131072:32:1:l -cache:il1 il1:256:32:1:l -cache:il2 dl2 improved_shellsort325640923
	sim-cache -cache:dl1 dl1:256:32:1:l -cache:dl2 dl2:65536:32:1:l -cache:il1 il1:256:32:1:l -cache:il2 dl2 improved_shellsort325640923
	sim-cache -cache:dl1 dl1:1:32:256:l -cache:dl2 dl2:1:32:131072:l -cache:il1 il1:1:32:256:l -cache:il2 dl2 improved_shellsort325640923
	sim-cache -cache:dl1 dl1:1:32:256:l -cache:dl2 dl2:1:32:65536:l -cache:il1 il1:1:32:256:l -cache:il2 dl2 improved_shellsort325640923
	sim-bpred -bpred bimod -bpred:bimod 512 improved_shellsort325640923
	sim-bpred -bpred bimod -bpred:bimod 1024 improved_shellsort325640923
	sim-bpred -bpred bimod -bpred:bimod 2048 improved_shellsort325640923
	sim-bpred -bpred 2lev -bpred:2lev 1 512 10 1 improved_shellsort325640923
	sim-bpred -bpred 2lev -bpred:2lev 1 1024 10 1 improved_shellsort325640923
	sim-bpred -bpred 2lev -bpred:2lev 1 2048 10 1 improved_shellsort325640923
	sim-bpred -bpred 2lev -bpred:2lev 1 4096 10 1 improved_shellsort325640923
	sslittle-na-sstrix-gcc -Wall -O3 -funroll-loops -finline-functions  -DRANDOM_SIZE=65536 -DOFFSET=3 -DSORT=improved_shellsort sorts/improved_shellsort1724488213.c simpleMain.c -o improved_shellsort325640923
	sim-cache -cache:dl1 dl1:256:32:1:l -cache:dl2 dl2:131072:32:1:l -cache:il1 il1:256:32:1:l -cache:il2 dl2 improved_shellsort325640923
	sim-cache -cache:dl1 dl1:256:32:1:l -cache:dl2 dl2:65536:32:1:l -cache:il1 il1:256:32:1:l -cache:il2 dl2 improved_shellsort325640923
	sim-cache -cache:dl1 dl1:1:32:256:l -cache:dl2 dl2:1:32:131072:l -cache:il1 il1:1:32:256:l -cache:il2 dl2 improved_shellsort325640923
	sim-cache -cache:dl1 dl1:1:32:256:l -cache:dl2 dl2:1:32:65536:l -cache:il1 il1:1:32:256:l -cache:il2 dl2 improved_shellsort325640923
	sim-bpred -bpred bimod -bpred:bimod 512 improved_shellsort325640923
	sim-bpred -bpred bimod -bpred:bimod 1024 improved_shellsort325640923
	sim-bpred -bpred bimod -bpred:bimod 2048 improved_shellsort325640923
	sim-bpred -bpred 2lev -bpred:2lev 1 512 10 1 improved_shellsort325640923
	sim-bpred -bpred 2lev -bpred:2lev 1 1024 10 1 improved_shellsort325640923
	sim-bpred -bpred 2lev -bpred:2lev 1 2048 10 1 improved_shellsort325640923
	sim-bpred -bpred 2lev -bpred:2lev 1 4096 10 1 improved_shellsort325640923
	sslittle-na-sstrix-gcc -Wall -O3 -funroll-loops -finline-functions  -DRANDOM_SIZE=131072 -DOFFSET=3 -DSORT=improved_shellsort sorts/improved_shellsort1724488213.c simpleMain.c -o improved_shellsort325640923
	sim-cache -cache:dl1 dl1:256:32:1:l -cache:dl2 dl2:131072:32:1:l -cache:il1 il1:256:32:1:l -cache:il2 dl2 improved_shellsort325640923
	sim-cache -cache:dl1 dl1:256:32:1:l -cache:dl2 dl2:65536:32:1:l -cache:il1 il1:256:32:1:l -cache:il2 dl2 improved_shellsort325640923
	sim-cache -cache:dl1 dl1:1:32:256:l -cache:dl2 dl2:1:32:131072:l -cache:il1 il1:1:32:256:l -cache:il2 dl2 improved_shellsort325640923
	sim-cache -cache:dl1 dl1:1:32:256:l -cache:dl2 dl2:1:32:65536:l -cache:il1 il1:1:32:256:l -cache:il2 dl2 improved_shellsort325640923
	sim-bpred -bpred bimod -bpred:bimod 512 improved_shellsort325640923
	sim-bpred -bpred bimod -bpred:bimod 1024 improved_shellsort325640923
	sim-bpred -bpred bimod -bpred:bimod 2048 improved_shellsort325640923
	sim-bpred -bpred 2lev -bpred:2lev 1 512 10 1 improved_shellsort325640923
	sim-bpred -bpred 2lev -bpred:2lev 1 1024 10 1 improved_shellsort325640923
	sim-bpred -bpred 2lev -bpred:2lev 1 2048 10 1 improved_shellsort325640923
	sim-bpred -bpred 2lev -bpred:2lev 1 4096 10 1 improved_shellsort325640923
	sslittle-na-sstrix-gcc -Wall -O3 -funroll-loops -finline-functions  -DRANDOM_SIZE=262144 -DOFFSET=3 -DSORT=improved_shellsort sorts/improved_shellsort1724488213.c simpleMain.c -o improved_shellsort325640923
	sim-cache -cache:dl1 dl1:256:32:1:l -cache:dl2 dl2:131072:32:1:l -cache:il1 il1:256:32:1:l -cache:il2 dl2 improved_shellsort325640923
	sim-cache -cache:dl1 dl1:256:32:1:l -cache:dl2 dl2:65536:32:1:l -cache:il1 il1:256:32:1:l -cache:il2 dl2 improved_shellsort325640923
	sim-cache -cache:dl1 dl1:1:32:256:l -cache:dl2 dl2:1:32:131072:l -cache:il1 il1:1:32:256:l -cache:il2 dl2 improved_shellsort325640923
	sim-cache -cache:dl1 dl1:1:32:256:l -cache:dl2 dl2:1:32:65536:l -cache:il1 il1:1:32:256:l -cache:il2 dl2 improved_shellsort325640923
	sim-bpred -bpred bimod -bpred:bimod 512 improved_shellsort325640923
	sim-bpred -bpred bimod -bpred:bimod 1024 improved_shellsort325640923
	sim-bpred -bpred bimod -bpred:bimod 2048 improved_shellsort325640923
	sim-bpred -bpred 2lev -bpred:2lev 1 512 10 1 improved_shellsort325640923
	sim-bpred -bpred 2lev -bpred:2lev 1 1024 10 1 improved_shellsort325640923
	sim-bpred -bpred 2lev -bpred:2lev 1 2048 10 1 improved_shellsort325640923
	sim-bpred -bpred 2lev -bpred:2lev 1 4096 10 1 improved_shellsort325640923
	sslittle-na-sstrix-gcc -Wall -O3 -funroll-loops -finline-functions  -DRANDOM_SIZE=524288 -DOFFSET=3 -DSORT=improved_shellsort sorts/improved_shellsort1724488213.c simpleMain.c -o improved_shellsort325640923
	sim-cache -cache:dl1 dl1:256:32:1:l -cache:dl2 dl2:131072:32:1:l -cache:il1 il1:256:32:1:l -cache:il2 dl2 improved_shellsort325640923
	sim-cache -cache:dl1 dl1:256:32:1:l -cache:dl2 dl2:65536:32:1:l -cache:il1 il1:256:32:1:l -cache:il2 dl2 improved_shellsort325640923
	sim-cache -cache:dl1 dl1:1:32:256:l -cache:dl2 dl2:1:32:131072:l -cache:il1 il1:1:32:256:l -cache:il2 dl2 improved_shellsort325640923
	sim-cache -cache:dl1 dl1:1:32:256:l -cache:dl2 dl2:1:32:65536:l -cache:il1 il1:1:32:256:l -cache:il2 dl2 improved_shellsort325640923
	sim-bpred -bpred bimod -bpred:bimod 512 improved_shellsort325640923
	sim-bpred -bpred bimod -bpred:bimod 1024 improved_shellsort325640923
	sim-bpred -bpred bimod -bpred:bimod 2048 improved_shellsort325640923
	sim-bpred -bpred 2lev -bpred:2lev 1 512 10 1 improved_shellsort325640923
	sim-bpred -bpred 2lev -bpred:2lev 1 1024 10 1 improved_shellsort325640923
	sim-bpred -bpred 2lev -bpred:2lev 1 2048 10 1 improved_shellsort325640923
	sim-bpred -bpred 2lev -bpred:2lev 1 4096 10 1 improved_shellsort325640923
	sslittle-na-sstrix-gcc -Wall -O3 -funroll-loops -finline-functions  -DRANDOM_SIZE=1048576 -DOFFSET=3 -DSORT=improved_shellsort sorts/improved_shellsort1724488213.c simpleMain.c -o improved_shellsort325640923
	sim-cache -cache:dl1 dl1:256:32:1:l -cache:dl2 dl2:131072:32:1:l -cache:il1 il1:256:32:1:l -cache:il2 dl2 improved_shellsort325640923
	sim-cache -cache:dl1 dl1:256:32:1:l -cache:dl2 dl2:65536:32:1:l -cache:il1 il1:256:32:1:l -cache:il2 dl2 improved_shellsort325640923
	sim-cache -cache:dl1 dl1:1:32:256:l -cache:dl2 dl2:1:32:131072:l -cache:il1 il1:1:32:256:l -cache:il2 dl2 improved_shellsort325640923
	sim-cache -cache:dl1 dl1:1:32:256:l -cache:dl2 dl2:1:32:65536:l -cache:il1 il1:1:32:256:l -cache:il2 dl2 improved_shellsort325640923
	sim-bpred -bpred bimod -bpred:bimod 512 improved_shellsort325640923
	sim-bpred -bpred bimod -bpred:bimod 1024 improved_shellsort325640923
	sim-bpred -bpred bimod -bpred:bimod 2048 improved_shellsort325640923
	sim-bpred -bpred 2lev -bpred:2lev 1 512 10 1 improved_shellsort325640923
	sim-bpred -bpred 2lev -bpred:2lev 1 1024 10 1 improved_shellsort325640923
	sim-bpred -bpred 2lev -bpred:2lev 1 2048 10 1 improved_shellsort325640923
	sim-bpred -bpred 2lev -bpred:2lev 1 4096 10 1 improved_shellsort325640923
	sslittle-na-sstrix-gcc -Wall -O3 -funroll-loops -finline-functions  -DRANDOM_SIZE=2097152 -DOFFSET=3 -DSORT=improved_shellsort sorts/improved_shellsort1724488213.c simpleMain.c -o improved_shellsort325640923
	sim-cache -cache:dl1 dl1:256:32:1:l -cache:dl2 dl2:131072:32:1:l -cache:il1 il1:256:32:1:l -cache:il2 dl2 improved_shellsort325640923
	sim-cache -cache:dl1 dl1:256:32:1:l -cache:dl2 dl2:65536:32:1:l -cache:il1 il1:256:32:1:l -cache:il2 dl2 improved_shellsort325640923
	sim-cache -cache:dl1 dl1:1:32:256:l -cache:dl2 dl2:1:32:131072:l -cache:il1 il1:1:32:256:l -cache:il2 dl2 improved_shellsort325640923
	sim-cache -cache:dl1 dl1:1:32:256:l -cache:dl2 dl2:1:32:65536:l -cache:il1 il1:1:32:256:l -cache:il2 dl2 improved_shellsort325640923
	sim-bpred -bpred bimod -bpred:bimod 512 improved_shellsort325640923
	sim-bpred -bpred bimod -bpred:bimod 1024 improved_shellsort325640923
	sim-bpred -bpred bimod -bpred:bimod 2048 improved_shellsort325640923
	sim-bpred -bpred 2lev -bpred:2lev 1 512 10 1 improved_shellsort325640923
	sim-bpred -bpred 2lev -bpred:2lev 1 1024 10 1 improved_shellsort325640923
	sim-bpred -bpred 2lev -bpred:2lev 1 2048 10 1 improved_shellsort325640923
	sim-bpred -bpred 2lev -bpred:2lev 1 4096 10 1 improved_shellsort325640923
	sslittle-na-sstrix-gcc -Wall -O3 -funroll-loops -finline-functions  -DRANDOM_SIZE=4194304 -DOFFSET=3 -DSORT=improved_shellsort sorts/improved_shellsort1724488213.c simpleMain.c -o improved_shellsort325640923
	sim-cache -cache:dl1 dl1:256:32:1:l -cache:dl2 dl2:131072:32:1:l -cache:il1 il1:256:32:1:l -cache:il2 dl2 improved_shellsort325640923
	sim-cache -cache:dl1 dl1:256:32:1:l -cache:dl2 dl2:65536:32:1:l -cache:il1 il1:256:32:1:l -cache:il2 dl2 improved_shellsort325640923
	sim-cache -cache:dl1 dl1:1:32:256:l -cache:dl2 dl2:1:32:131072:l -cache:il1 il1:1:32:256:l -cache:il2 dl2 improved_shellsort325640923
	sim-cache -cache:dl1 dl1:1:32:256:l -cache:dl2 dl2:1:32:65536:l -cache:il1 il1:1:32:256:l -cache:il2 dl2 improved_shellsort325640923
	sim-bpred -bpred bimod -bpred:bimod 512 improved_shellsort325640923
	sim-bpred -bpred bimod -bpred:bimod 1024 improved_shellsort325640923
	sim-bpred -bpred bimod -bpred:bimod 2048 improved_shellsort325640923
	sim-bpred -bpred 2lev -bpred:2lev 1 512 10 1 improved_shellsort325640923
	sim-bpred -bpred 2lev -bpred:2lev 1 1024 10 1 improved_shellsort325640923
	sim-bpred -bpred 2lev -bpred:2lev 1 2048 10 1 improved_shellsort325640923
	sim-bpred -bpred 2lev -bpred:2lev 1 4096 10 1 improved_shellsort325640923
