Tue Jul 26 01:36:42 2005
Run as: "./do_simple -c random.org7 -o 7 improved_shellsort"
-------------------------------------------------------------------------------------------------
sim-cache                                     4096 |         4096 |         4096 |         4096 |         8192 |         8192 |         8192 |         8192 |        16384 |        16384 |        16384 |        16384 |        32768 |        32768 |        32768 |        32768 |        65536 |        65536 |        65536 |        65536 |       131072 |       131072 |       131072 |       131072 |       262144 |       262144 |       262144 |       262144 |       524288 |       524288 |       524288 |       524288 |      1048576 |      1048576 |      1048576 |      1048576 |      2097152 |      2097152 |      2097152 |      2097152 |      4194304 |      4194304 |      4194304 |      4194304 |
-cache:dl1 dl1:256:32:1:l -cache:dl2 dl2:131072:32:1:l -cache:il1 il1:256:32:1:l -cache:il2 dl2
-cache:dl1 dl1:256:32:1:l -cache:dl2 dl2:65536:32:1:l -cache:il1 il1:256:32:1:l -cache:il2 dl2
-cache:dl1 dl1:1:32:256:l -cache:dl2 dl2:1:32:131072:l -cache:il1 il1:1:32:256:l -cache:il2 dl2
-cache:dl1 dl1:1:32:256:l -cache:dl2 dl2:1:32:65536:l -cache:il1 il1:1:32:256:l -cache:il2 dl2
-------------------------------------------------------------------------------------------------
sim_num_insn                                901642 |       901642 |       901642 |       901642 |      2004698 |      2004698 |      2004698 |      2004698 |      4638916 |      4638916 |      4638916 |      4638916 |      9953682 |      9953682 |      9953682 |      9953682 |     21228976 |     21228976 |     21228976 |     21228976 |     47429039 |     47429039 |     47429039 |     47429039 |     97630615 |     97630615 |     97630615 |     97630615 |    209459046 |    209459046 |    209459046 |    209459046 |    444939341 |    444939341 |    444939341 |    444939341 |    953482898 |    953482898 |    953482898 |    953482898 |   1993946591 |   1993946591 |   1993946591 |   1993946591 |
sim_num_refs                                192282 |       192282 |       192282 |       192282 |       419542 |       419542 |       419542 |       419542 |       932967 |       932967 |       932967 |       932967 |      1990857 |      1990857 |      1990857 |      1990857 |      4621674 |      4621674 |      4621674 |      4621674 |     10133308 |     10133308 |     10133308 |     10133308 |     20126894 |     20126894 |     20126894 |     20126894 |     42522667 |     42522667 |     42522667 |     42522667 |     88585475 |     88585475 |     88585475 |     88585475 |    190800192 |    190800192 |    190800192 |    190800192 |    386247104 |    386247104 |    386247104 |    386247104 |
sim_elapsed_time                                 1 |            1 |            7 |            3 |            1 |            1 |           10 |            5 |            1 |            1 |           16 |            8 |            3 |            3 |           27 |           15 |            6 |            6 |           50 |           28 |           12 |           12 |           96 |           52 |           25 |           25 |          178 |           91 |           54 |           53 |          313 |          141 |          113 |          114 |          462 |          211 |          244 |          245 |          613 |          358 |          511 |          508 |          909 |          655 |
sim_inst_rate                          901642.0000 |  901642.0000 |  128806.0000 |  300547.3333 | 2004698.0000 | 2004698.0000 |  200469.8000 |  400939.6000 | 4638916.0000 | 4638916.0000 |  289932.2500 |  579864.5000 | 3317894.0000 | 3317894.0000 |  368654.8889 |  663578.8000 | 3538162.6667 | 3538162.6667 |  424579.5200 |  758177.7143 | 3952419.9167 | 3952419.9167 |  494052.4896 |  912096.9038 | 3905224.6000 | 3905224.6000 |  548486.6011 | 1072863.9011 | 3878871.2222 | 3952057.4717 |  669198.2300 | 1485525.1489 | 3937516.2920 | 3902976.6754 |  963072.1667 | 2108717.2559 | 3907716.7951 | 3891766.9306 | 1555437.0277 | 2663360.0503 | 3902048.1233 | 3925091.7146 | 2193560.6062 | 3044193.2687 |
il1.accesses                                901642 |       901642 |       901642 |       901642 |      2004698 |      2004698 |      2004698 |      2004698 |      4638916 |      4638916 |      4638916 |      4638916 |      9953682 |      9953682 |      9953682 |      9953682 |     21228976 |     21228976 |     21228976 |     21228976 |     47429039 |     47429039 |     47429039 |     47429039 |     97630615 |     97630615 |     97630615 |     97630615 |    209459046 |    209459046 |    209459046 |    209459046 |    444939341 |    444939341 |    444939341 |    444939341 |    953482898 |    953482898 |    953482898 |    953482898 |   1993946591 |   1993946591 |   1993946591 |   1993946591 |
il1.hits                                    901221 |       901221 |       901281 |       901281 |      2004275 |      2004275 |      2004335 |      2004335 |      4638502 |      4638502 |      4638556 |      4638556 |      9953258 |      9953258 |      9953318 |      9953318 |     21228552 |     21228552 |     21228612 |     21228612 |     47428616 |     47428616 |     47428676 |     47428676 |     97630192 |     97630192 |     97630252 |     97630252 |    209458623 |    209458623 |    209458683 |    209458683 |    444938918 |    444938918 |    444938978 |    444938978 |    953482475 |    953482475 |    953482535 |    953482535 |   1993946168 |   1993946168 |   1993946228 |   1993946228 |
il1.misses                                     421 |          421 |          361 |          361 |          423 |          423 |          363 |          363 |          414 |          414 |          360 |          360 |          424 |          424 |          364 |          364 |          424 |          424 |          364 |          364 |          423 |          423 |          363 |          363 |          423 |          423 |          363 |          363 |          423 |          423 |          363 |          363 |          423 |          423 |          363 |          363 |          423 |          423 |          363 |          363 |          423 |          423 |          363 |          363 |
il1.replacements                               210 |          210 |          105 |          105 |          210 |          210 |          107 |          107 |          204 |          204 |          104 |          104 |          210 |          210 |          108 |          108 |          210 |          210 |          108 |          108 |          209 |          209 |          107 |          107 |          209 |          209 |          107 |          107 |          209 |          209 |          107 |          107 |          209 |          209 |          107 |          107 |          209 |          209 |          107 |          107 |          209 |          209 |          107 |          107 |
il1.writebacks                                   0 |            0 |            0 |            0 |            0 |            0 |            0 |            0 |            0 |            0 |            0 |            0 |            0 |            0 |            0 |            0 |            0 |            0 |            0 |            0 |            0 |            0 |            0 |            0 |            0 |            0 |            0 |            0 |            0 |            0 |            0 |            0 |            0 |            0 |            0 |            0 |            0 |            0 |            0 |            0 |            0 |            0 |            0 |            0 |
il1.invalidations                                0 |            0 |            0 |            0 |            0 |            0 |            0 |            0 |            0 |            0 |            0 |            0 |            0 |            0 |            0 |            0 |            0 |            0 |            0 |            0 |            0 |            0 |            0 |            0 |            0 |            0 |            0 |            0 |            0 |            0 |            0 |            0 |            0 |            0 |            0 |            0 |            0 |            0 |            0 |            0 |            0 |            0 |            0 |            0 |
il1.miss_rate                               0.0005 |       0.0005 |       0.0004 |       0.0004 |       0.0002 |       0.0002 |       0.0002 |       0.0002 |       0.0001 |       0.0001 |       0.0001 |       0.0001 |       0.0000 |       0.0000 |       0.0000 |       0.0000 |       0.0000 |       0.0000 |       0.0000 |       0.0000 |       0.0000 |       0.0000 |       0.0000 |       0.0000 |       0.0000 |       0.0000 |       0.0000 |       0.0000 |       0.0000 |       0.0000 |       0.0000 |       0.0000 |       0.0000 |       0.0000 |       0.0000 |       0.0000 |       0.0000 |       0.0000 |       0.0000 |       0.0000 |       0.0000 |       0.0000 |       0.0000 |       0.0000 |
il1.repl_rate                               0.0002 |       0.0002 |       0.0001 |       0.0001 |       0.0001 |       0.0001 |       0.0001 |       0.0001 |       0.0000 |       0.0000 |       0.0000 |       0.0000 |       0.0000 |       0.0000 |       0.0000 |       0.0000 |       0.0000 |       0.0000 |       0.0000 |       0.0000 |       0.0000 |       0.0000 |       0.0000 |       0.0000 |       0.0000 |       0.0000 |       0.0000 |       0.0000 |       0.0000 |       0.0000 |       0.0000 |       0.0000 |       0.0000 |       0.0000 |       0.0000 |       0.0000 |       0.0000 |       0.0000 |       0.0000 |       0.0000 |       0.0000 |       0.0000 |       0.0000 |       0.0000 |
il1.wb_rate                                 0.0000 |       0.0000 |       0.0000 |       0.0000 |       0.0000 |       0.0000 |       0.0000 |       0.0000 |       0.0000 |       0.0000 |       0.0000 |       0.0000 |       0.0000 |       0.0000 |       0.0000 |       0.0000 |       0.0000 |       0.0000 |       0.0000 |       0.0000 |       0.0000 |       0.0000 |       0.0000 |       0.0000 |       0.0000 |       0.0000 |       0.0000 |       0.0000 |       0.0000 |       0.0000 |       0.0000 |       0.0000 |       0.0000 |       0.0000 |       0.0000 |       0.0000 |       0.0000 |       0.0000 |       0.0000 |       0.0000 |       0.0000 |       0.0000 |       0.0000 |       0.0000 |
il1.inv_rate                                0.0000 |       0.0000 |       0.0000 |       0.0000 |       0.0000 |       0.0000 |       0.0000 |       0.0000 |       0.0000 |       0.0000 |       0.0000 |       0.0000 |       0.0000 |       0.0000 |       0.0000 |       0.0000 |       0.0000 |       0.0000 |       0.0000 |       0.0000 |       0.0000 |       0.0000 |       0.0000 |       0.0000 |       0.0000 |       0.0000 |       0.0000 |       0.0000 |       0.0000 |       0.0000 |       0.0000 |       0.0000 |       0.0000 |       0.0000 |       0.0000 |       0.0000 |       0.0000 |       0.0000 |       0.0000 |       0.0000 |       0.0000 |       0.0000 |       0.0000 |       0.0000 |
dl1.accesses                                208748 |       208748 |       208748 |       208748 |       452392 |       452392 |       452392 |       452392 |       998585 |       998585 |       998585 |       998585 |      2122011 |      2122011 |      2122011 |      2122011 |      4883900 |      4883900 |      4883900 |      4883900 |     10657678 |     10657678 |     10657678 |     10657678 |     21175552 |     21175552 |     21175552 |     21175552 |     44619901 |     44619901 |     44619901 |     44619901 |     92779861 |     92779861 |     92779861 |     92779861 |    199188882 |    199188882 |    199188882 |    199188882 |    403024402 |    403024402 |    403024402 |    403024402 |
dl1.hits                                    202776 |       202776 |       202390 |       202390 |       436744 |       436744 |       436104 |       436104 |       958229 |       958229 |       956832 |       956832 |      2025297 |      2025297 |      2018680 |      2018680 |      4654999 |      4654999 |      4642574 |      4642574 |     10108098 |     10108098 |     10084525 |     10084525 |     19938649 |     19938649 |     19847524 |     19847524 |     41786834 |     41786834 |     41594867 |     41594867 |     86487833 |     86487833 |     85979668 |     85979668 |    185151271 |    185151271 |    184763916 |    184763916 |    372274976 |    372274976 |    372100846 |    372100846 |
dl1.misses                                    5972 |         5972 |         6358 |         6358 |        15648 |        15648 |        16288 |        16288 |        40356 |        40356 |        41753 |        41753 |        96714 |        96714 |       103331 |       103331 |       228901 |       228901 |       241326 |       241326 |       549580 |       549580 |       573153 |       573153 |      1236903 |      1236903 |      1328028 |      1328028 |      2833067 |      2833067 |      3025034 |      3025034 |      6292028 |      6292028 |      6800193 |      6800193 |     14037611 |     14037611 |     14424966 |     14424966 |     30749426 |     30749426 |     30923556 |     30923556 |
dl1.replacements                              5716 |         5716 |         6102 |         6102 |        15392 |        15392 |        16032 |        16032 |        40100 |        40100 |        41497 |        41497 |        96458 |        96458 |       103075 |       103075 |       228645 |       228645 |       241070 |       241070 |       549324 |       549324 |       572897 |       572897 |      1236647 |      1236647 |      1327772 |      1327772 |      2832811 |      2832811 |      3024778 |      3024778 |      6291772 |      6291772 |      6799937 |      6799937 |     14037355 |     14037355 |     14424710 |     14424710 |     30749170 |     30749170 |     30923300 |     30923300 |
dl1.writebacks                                5598 |         5598 |         5891 |         5891 |        14316 |        14316 |        14845 |        14845 |        36093 |        36093 |        37173 |        37173 |        85526 |        85526 |        90940 |        90940 |       198685 |       198685 |       209136 |       209136 |       472962 |       472962 |       493257 |       493257 |      1060573 |      1060573 |      1136003 |      1136003 |      2415732 |      2415732 |      2577449 |      2577449 |      5359338 |      5359338 |      5775443 |      5775443 |     11915228 |     11915228 |     12237093 |     12237093 |     26057710 |     26057710 |     26173204 |     26173204 |
dl1.invalidations                                0 |            0 |            0 |            0 |            0 |            0 |            0 |            0 |            0 |            0 |            0 |            0 |            0 |            0 |            0 |            0 |            0 |            0 |            0 |            0 |            0 |            0 |            0 |            0 |            0 |            0 |            0 |            0 |            0 |            0 |            0 |            0 |            0 |            0 |            0 |            0 |            0 |            0 |            0 |            0 |            0 |            0 |            0 |            0 |
dl1.miss_rate                               0.0286 |       0.0286 |       0.0305 |       0.0305 |       0.0346 |       0.0346 |       0.0360 |       0.0360 |       0.0404 |       0.0404 |       0.0418 |       0.0418 |       0.0456 |       0.0456 |       0.0487 |       0.0487 |       0.0469 |       0.0469 |       0.0494 |       0.0494 |       0.0516 |       0.0516 |       0.0538 |       0.0538 |       0.0584 |       0.0584 |       0.0627 |       0.0627 |       0.0635 |       0.0635 |       0.0678 |       0.0678 |       0.0678 |       0.0678 |       0.0733 |       0.0733 |       0.0705 |       0.0705 |       0.0724 |       0.0724 |       0.0763 |       0.0763 |       0.0767 |       0.0767 |
dl1.repl_rate                               0.0274 |       0.0274 |       0.0292 |       0.0292 |       0.0340 |       0.0340 |       0.0354 |       0.0354 |       0.0402 |       0.0402 |       0.0416 |       0.0416 |       0.0455 |       0.0455 |       0.0486 |       0.0486 |       0.0468 |       0.0468 |       0.0494 |       0.0494 |       0.0515 |       0.0515 |       0.0538 |       0.0538 |       0.0584 |       0.0584 |       0.0627 |       0.0627 |       0.0635 |       0.0635 |       0.0678 |       0.0678 |       0.0678 |       0.0678 |       0.0733 |       0.0733 |       0.0705 |       0.0705 |       0.0724 |       0.0724 |       0.0763 |       0.0763 |       0.0767 |       0.0767 |
dl1.wb_rate                                 0.0268 |       0.0268 |       0.0282 |       0.0282 |       0.0316 |       0.0316 |       0.0328 |       0.0328 |       0.0361 |       0.0361 |       0.0372 |       0.0372 |       0.0403 |       0.0403 |       0.0429 |       0.0429 |       0.0407 |       0.0407 |       0.0428 |       0.0428 |       0.0444 |       0.0444 |       0.0463 |       0.0463 |       0.0501 |       0.0501 |       0.0536 |       0.0536 |       0.0541 |       0.0541 |       0.0578 |       0.0578 |       0.0578 |       0.0578 |       0.0622 |       0.0622 |       0.0598 |       0.0598 |       0.0614 |       0.0614 |       0.0647 |       0.0647 |       0.0649 |       0.0649 |
dl1.inv_rate                                0.0000 |       0.0000 |       0.0000 |       0.0000 |       0.0000 |       0.0000 |       0.0000 |       0.0000 |       0.0000 |       0.0000 |       0.0000 |       0.0000 |       0.0000 |       0.0000 |       0.0000 |       0.0000 |       0.0000 |       0.0000 |       0.0000 |       0.0000 |       0.0000 |       0.0000 |       0.0000 |       0.0000 |       0.0000 |       0.0000 |       0.0000 |       0.0000 |       0.0000 |       0.0000 |       0.0000 |       0.0000 |       0.0000 |       0.0000 |       0.0000 |       0.0000 |       0.0000 |       0.0000 |       0.0000 |       0.0000 |       0.0000 |       0.0000 |       0.0000 |       0.0000 |
dl2.accesses                                 11991 |        11991 |        12610 |        12610 |        30387 |        30387 |        31496 |        31496 |        76863 |        76863 |        79286 |        79286 |       182664 |       182664 |       194635 |       194635 |       428010 |       428010 |       450826 |       450826 |      1022965 |      1022965 |      1066773 |      1066773 |      2297899 |      2297899 |      2464394 |      2464394 |      5249222 |      5249222 |      5602846 |      5602846 |     11651789 |     11651789 |     12575999 |     12575999 |     25953262 |     25953262 |     26662422 |     26662422 |     56807559 |     56807559 |     57097123 |     57097123 |
dl2.hits                                     10702 |        10702 |        11325 |        11325 |        28584 |        28584 |        29697 |        29697 |        74040 |        74040 |        76469 |        76469 |       177788 |       177788 |       189763 |       189763 |       419038 |       419038 |       441858 |       441858 |      1005802 |      1005802 |      1049614 |      1049614 |      2264352 |      2264352 |      2430851 |      2430851 |      5182907 |      5182800 |      5536535 |      5303277 |     11519829 |      9324808 |     11965513 |     10146262 |     21038176 |     20216190 |     21541477 |     20762860 |     44807383 |     42897206 |     44773835 |     42834611 |
dl2.misses                                    1289 |         1289 |         1285 |         1285 |         1803 |         1803 |         1799 |         1799 |         2823 |         2823 |         2817 |         2817 |         4876 |         4876 |         4872 |         4872 |         8972 |         8972 |         8968 |         8968 |        17163 |        17163 |        17159 |        17159 |        33547 |        33547 |        33543 |        33543 |        66315 |        66422 |        66311 |       299569 |       131960 |      2326981 |       610486 |      2429737 |      4915086 |      5737072 |      5120945 |      5899562 |     12000176 |     13910353 |     12323288 |     14262512 |
dl2.replacements                                57 |           57 |            0 |            0 |           58 |           58 |            0 |            0 |           63 |           63 |            0 |            0 |           59 |           59 |            0 |            0 |           59 |           59 |            0 |            0 |           59 |           59 |            0 |            0 |           59 |           59 |            0 |            0 |           59 |          886 |            0 |       234033 |          888 |      2261445 |       479414 |      2364201 |      4784014 |      5671536 |      4989873 |      5834026 |     11869104 |     13844817 |     12192216 |     14196976 |
dl2.writebacks                                   2 |            2 |            0 |            0 |            2 |            2 |            0 |            0 |            2 |            2 |            0 |            0 |            2 |            2 |            0 |            0 |            2 |            2 |            0 |            0 |            2 |            2 |            0 |            0 |            2 |            2 |            0 |            0 |            2 |          692 |            0 |       233886 |          695 |      2235873 |       479269 |      2314362 |      4732861 |      5393830 |      4889986 |      5526248 |     11313212 |     12828023 |     11576809 |     13105734 |
dl2.invalidations                                0 |            0 |            0 |            0 |            0 |            0 |            0 |            0 |            0 |            0 |            0 |            0 |            0 |            0 |            0 |            0 |            0 |            0 |            0 |            0 |            0 |            0 |            0 |            0 |            0 |            0 |            0 |            0 |            0 |            0 |            0 |            0 |            0 |            0 |            0 |            0 |            0 |            0 |            0 |            0 |            0 |            0 |            0 |            0 |
dl2.miss_rate                               0.1075 |       0.1075 |       0.1019 |       0.1019 |       0.0593 |       0.0593 |       0.0571 |       0.0571 |       0.0367 |       0.0367 |       0.0355 |       0.0355 |       0.0267 |       0.0267 |       0.0250 |       0.0250 |       0.0210 |       0.0210 |       0.0199 |       0.0199 |       0.0168 |       0.0168 |       0.0161 |       0.0161 |       0.0146 |       0.0146 |       0.0136 |       0.0136 |       0.0126 |       0.0127 |       0.0118 |       0.0535 |       0.0113 |       0.1997 |       0.0485 |       0.1932 |       0.1894 |       0.2211 |       0.1921 |       0.2213 |       0.2112 |       0.2449 |       0.2158 |       0.2498 |
dl2.repl_rate                               0.0048 |       0.0048 |       0.0000 |       0.0000 |       0.0019 |       0.0019 |       0.0000 |       0.0000 |       0.0008 |       0.0008 |       0.0000 |       0.0000 |       0.0003 |       0.0003 |       0.0000 |       0.0000 |       0.0001 |       0.0001 |       0.0000 |       0.0000 |       0.0001 |       0.0001 |       0.0000 |       0.0000 |       0.0000 |       0.0000 |       0.0000 |       0.0000 |       0.0000 |       0.0002 |       0.0000 |       0.0418 |       0.0001 |       0.1941 |       0.0381 |       0.1880 |       0.1843 |       0.2185 |       0.1872 |       0.2188 |       0.2089 |       0.2437 |       0.2135 |       0.2486 |
dl2.wb_rate                                 0.0002 |       0.0002 |       0.0000 |       0.0000 |       0.0001 |       0.0001 |       0.0000 |       0.0000 |       0.0000 |       0.0000 |       0.0000 |       0.0000 |       0.0000 |       0.0000 |       0.0000 |       0.0000 |       0.0000 |       0.0000 |       0.0000 |       0.0000 |       0.0000 |       0.0000 |       0.0000 |       0.0000 |       0.0000 |       0.0000 |       0.0000 |       0.0000 |       0.0000 |       0.0001 |       0.0000 |       0.0417 |       0.0001 |       0.1919 |       0.0381 |       0.1840 |       0.1824 |       0.2078 |       0.1834 |       0.2073 |       0.1991 |       0.2258 |       0.2028 |       0.2295 |
dl2.inv_rate                                0.0000 |       0.0000 |       0.0000 |       0.0000 |       0.0000 |       0.0000 |       0.0000 |       0.0000 |       0.0000 |       0.0000 |       0.0000 |       0.0000 |       0.0000 |       0.0000 |       0.0000 |       0.0000 |       0.0000 |       0.0000 |       0.0000 |       0.0000 |       0.0000 |       0.0000 |       0.0000 |       0.0000 |       0.0000 |       0.0000 |       0.0000 |       0.0000 |       0.0000 |       0.0000 |       0.0000 |       0.0000 |       0.0000 |       0.0000 |       0.0000 |       0.0000 |       0.0000 |       0.0000 |       0.0000 |       0.0000 |       0.0000 |       0.0000 |       0.0000 |       0.0000 |
itlb.accesses                               901642 |       901642 |       901642 |       901642 |      2004698 |      2004698 |      2004698 |      2004698 |      4638916 |      4638916 |      4638916 |      4638916 |      9953682 |      9953682 |      9953682 |      9953682 |     21228976 |     21228976 |     21228976 |     21228976 |     47429039 |     47429039 |     47429039 |     47429039 |     97630615 |     97630615 |     97630615 |     97630615 |    209459046 |    209459046 |    209459046 |    209459046 |    444939341 |    444939341 |    444939341 |    444939341 |    953482898 |    953482898 |    953482898 |    953482898 |   1993946591 |   1993946591 |   1993946591 |   1993946591 |
itlb.hits                                   901633 |       901633 |       901633 |       901633 |      2004689 |      2004689 |      2004689 |      2004689 |      4638907 |      4638907 |      4638907 |      4638907 |      9953672 |      9953672 |      9953672 |      9953672 |     21228966 |     21228966 |     21228966 |     21228966 |     47429029 |     47429029 |     47429029 |     47429029 |     97630605 |     97630605 |     97630605 |     97630605 |    209459036 |    209459036 |    209459036 |    209459036 |    444939331 |    444939331 |    444939331 |    444939331 |    953482888 |    953482888 |    953482888 |    953482888 |   1993946581 |   1993946581 |   1993946581 |   1993946581 |
itlb.misses                                      9 |            9 |            9 |            9 |            9 |            9 |            9 |            9 |            9 |            9 |            9 |            9 |           10 |           10 |           10 |           10 |           10 |           10 |           10 |           10 |           10 |           10 |           10 |           10 |           10 |           10 |           10 |           10 |           10 |           10 |           10 |           10 |           10 |           10 |           10 |           10 |           10 |           10 |           10 |           10 |           10 |           10 |           10 |           10 |
itlb.replacements                                0 |            0 |            0 |            0 |            0 |            0 |            0 |            0 |            0 |            0 |            0 |            0 |            0 |            0 |            0 |            0 |            0 |            0 |            0 |            0 |            0 |            0 |            0 |            0 |            0 |            0 |            0 |            0 |            0 |            0 |            0 |            0 |            0 |            0 |            0 |            0 |            0 |            0 |            0 |            0 |            0 |            0 |            0 |            0 |
itlb.writebacks                                  0 |            0 |            0 |            0 |            0 |            0 |            0 |            0 |            0 |            0 |            0 |            0 |            0 |            0 |            0 |            0 |            0 |            0 |            0 |            0 |            0 |            0 |            0 |            0 |            0 |            0 |            0 |            0 |            0 |            0 |            0 |            0 |            0 |            0 |            0 |            0 |            0 |            0 |            0 |            0 |            0 |            0 |            0 |            0 |
itlb.invalidations                               0 |            0 |            0 |            0 |            0 |            0 |            0 |            0 |            0 |            0 |            0 |            0 |            0 |            0 |            0 |            0 |            0 |            0 |            0 |            0 |            0 |            0 |            0 |            0 |            0 |            0 |            0 |            0 |            0 |            0 |            0 |            0 |            0 |            0 |            0 |            0 |            0 |            0 |            0 |            0 |            0 |            0 |            0 |            0 |
itlb.miss_rate                              0.0000 |       0.0000 |       0.0000 |       0.0000 |       0.0000 |       0.0000 |       0.0000 |       0.0000 |       0.0000 |       0.0000 |       0.0000 |       0.0000 |       0.0000 |       0.0000 |       0.0000 |       0.0000 |       0.0000 |       0.0000 |       0.0000 |       0.0000 |       0.0000 |       0.0000 |       0.0000 |       0.0000 |       0.0000 |       0.0000 |       0.0000 |       0.0000 |       0.0000 |       0.0000 |       0.0000 |       0.0000 |       0.0000 |       0.0000 |       0.0000 |       0.0000 |       0.0000 |       0.0000 |       0.0000 |       0.0000 |       0.0000 |       0.0000 |       0.0000 |       0.0000 |
itlb.repl_rate                              0.0000 |       0.0000 |       0.0000 |       0.0000 |       0.0000 |       0.0000 |       0.0000 |       0.0000 |       0.0000 |       0.0000 |       0.0000 |       0.0000 |       0.0000 |       0.0000 |       0.0000 |       0.0000 |       0.0000 |       0.0000 |       0.0000 |       0.0000 |       0.0000 |       0.0000 |       0.0000 |       0.0000 |       0.0000 |       0.0000 |       0.0000 |       0.0000 |       0.0000 |       0.0000 |       0.0000 |       0.0000 |       0.0000 |       0.0000 |       0.0000 |       0.0000 |       0.0000 |       0.0000 |       0.0000 |       0.0000 |       0.0000 |       0.0000 |       0.0000 |       0.0000 |
itlb.wb_rate                                0.0000 |       0.0000 |       0.0000 |       0.0000 |       0.0000 |       0.0000 |       0.0000 |       0.0000 |       0.0000 |       0.0000 |       0.0000 |       0.0000 |       0.0000 |       0.0000 |       0.0000 |       0.0000 |       0.0000 |       0.0000 |       0.0000 |       0.0000 |       0.0000 |       0.0000 |       0.0000 |       0.0000 |       0.0000 |       0.0000 |       0.0000 |       0.0000 |       0.0000 |       0.0000 |       0.0000 |       0.0000 |       0.0000 |       0.0000 |       0.0000 |       0.0000 |       0.0000 |       0.0000 |       0.0000 |       0.0000 |       0.0000 |       0.0000 |       0.0000 |       0.0000 |
itlb.inv_rate                               0.0000 |       0.0000 |       0.0000 |       0.0000 |       0.0000 |       0.0000 |       0.0000 |       0.0000 |       0.0000 |       0.0000 |       0.0000 |       0.0000 |       0.0000 |       0.0000 |       0.0000 |       0.0000 |       0.0000 |       0.0000 |       0.0000 |       0.0000 |       0.0000 |       0.0000 |       0.0000 |       0.0000 |       0.0000 |       0.0000 |       0.0000 |       0.0000 |       0.0000 |       0.0000 |       0.0000 |       0.0000 |       0.0000 |       0.0000 |       0.0000 |       0.0000 |       0.0000 |       0.0000 |       0.0000 |       0.0000 |       0.0000 |       0.0000 |       0.0000 |       0.0000 |
dtlb.accesses                               208748 |       208748 |       208748 |       208748 |       452392 |       452392 |       452392 |       452392 |       998585 |       998585 |       998585 |       998585 |      2122011 |      2122011 |      2122011 |      2122011 |      4883900 |      4883900 |      4883900 |      4883900 |     10657678 |     10657678 |     10657678 |     10657678 |     21175552 |     21175552 |     21175552 |     21175552 |     44619901 |     44619901 |     44619901 |     44619901 |     92779861 |     92779861 |     92779861 |     92779861 |    199188882 |    199188882 |    199188882 |    199188882 |    403024402 |    403024402 |    403024402 |    403024402 |
dtlb.hits                                   208737 |       208737 |       208737 |       208737 |       452377 |       452377 |       452377 |       452377 |       998562 |       998562 |       998562 |       998562 |      2121972 |      2121972 |      2121972 |      2121972 |      4883829 |      4883829 |      4883829 |      4883829 |     10657480 |     10657480 |     10657480 |     10657480 |     21170555 |     21170555 |     21170555 |     21170555 |     44605539 |     44605539 |     44605539 |     44605539 |     92632087 |     92632087 |     92632087 |     92632087 |    199093085 |    199093085 |    199093085 |    199093085 |    402791508 |    402791508 |    402791508 |    402791508 |
dtlb.misses                                     11 |           11 |           11 |           11 |           15 |           15 |           15 |           15 |           23 |           23 |           23 |           23 |           39 |           39 |           39 |           39 |           71 |           71 |           71 |           71 |          198 |          198 |          198 |          198 |         4997 |         4997 |         4997 |         4997 |        14362 |        14362 |        14362 |        14362 |       147774 |       147774 |       147774 |       147774 |        95797 |        95797 |        95797 |        95797 |       232894 |       232894 |       232894 |       232894 |
dtlb.replacements                                0 |            0 |            0 |            0 |            0 |            0 |            0 |            0 |            0 |            0 |            0 |            0 |            0 |            0 |            0 |            0 |            0 |            0 |            0 |            0 |           70 |           70 |           70 |           70 |         4869 |         4869 |         4869 |         4869 |        14234 |        14234 |        14234 |        14234 |       147646 |       147646 |       147646 |       147646 |        95669 |        95669 |        95669 |        95669 |       232766 |       232766 |       232766 |       232766 |
dtlb.writebacks                                  0 |            0 |            0 |            0 |            0 |            0 |            0 |            0 |            0 |            0 |            0 |            0 |            0 |            0 |            0 |            0 |            0 |            0 |            0 |            0 |           68 |           68 |           68 |           68 |         4787 |         4787 |         4787 |         4787 |        13679 |        13679 |        13679 |        13679 |       126133 |       126133 |       126133 |       126133 |        89879 |        89879 |        89879 |        89879 |       217092 |       217092 |       217092 |       217092 |
dtlb.invalidations                               0 |            0 |            0 |            0 |            0 |            0 |            0 |            0 |            0 |            0 |            0 |            0 |            0 |            0 |            0 |            0 |            0 |            0 |            0 |            0 |            0 |            0 |            0 |            0 |            0 |            0 |            0 |            0 |            0 |            0 |            0 |            0 |            0 |            0 |            0 |            0 |            0 |            0 |            0 |            0 |            0 |            0 |            0 |            0 |
dtlb.miss_rate                              0.0001 |       0.0001 |       0.0001 |       0.0001 |       0.0000 |       0.0000 |       0.0000 |       0.0000 |       0.0000 |       0.0000 |       0.0000 |       0.0000 |       0.0000 |       0.0000 |       0.0000 |       0.0000 |       0.0000 |       0.0000 |       0.0000 |       0.0000 |       0.0000 |       0.0000 |       0.0000 |       0.0000 |       0.0002 |       0.0002 |       0.0002 |       0.0002 |       0.0003 |       0.0003 |       0.0003 |       0.0003 |       0.0016 |       0.0016 |       0.0016 |       0.0016 |       0.0005 |       0.0005 |       0.0005 |       0.0005 |       0.0006 |       0.0006 |       0.0006 |       0.0006 |
dtlb.repl_rate                              0.0000 |       0.0000 |       0.0000 |       0.0000 |       0.0000 |       0.0000 |       0.0000 |       0.0000 |       0.0000 |       0.0000 |       0.0000 |       0.0000 |       0.0000 |       0.0000 |       0.0000 |       0.0000 |       0.0000 |       0.0000 |       0.0000 |       0.0000 |       0.0000 |       0.0000 |       0.0000 |       0.0000 |       0.0002 |       0.0002 |       0.0002 |       0.0002 |       0.0003 |       0.0003 |       0.0003 |       0.0003 |       0.0016 |       0.0016 |       0.0016 |       0.0016 |       0.0005 |       0.0005 |       0.0005 |       0.0005 |       0.0006 |       0.0006 |       0.0006 |       0.0006 |
dtlb.wb_rate                                0.0000 |       0.0000 |       0.0000 |       0.0000 |       0.0000 |       0.0000 |       0.0000 |       0.0000 |       0.0000 |       0.0000 |       0.0000 |       0.0000 |       0.0000 |       0.0000 |       0.0000 |       0.0000 |       0.0000 |       0.0000 |       0.0000 |       0.0000 |       0.0000 |       0.0000 |       0.0000 |       0.0000 |       0.0002 |       0.0002 |       0.0002 |       0.0002 |       0.0003 |       0.0003 |       0.0003 |       0.0003 |       0.0014 |       0.0014 |       0.0014 |       0.0014 |       0.0005 |       0.0005 |       0.0005 |       0.0005 |       0.0005 |       0.0005 |       0.0005 |       0.0005 |
dtlb.inv_rate                               0.0000 |       0.0000 |       0.0000 |       0.0000 |       0.0000 |       0.0000 |       0.0000 |       0.0000 |       0.0000 |       0.0000 |       0.0000 |       0.0000 |       0.0000 |       0.0000 |       0.0000 |       0.0000 |       0.0000 |       0.0000 |       0.0000 |       0.0000 |       0.0000 |       0.0000 |       0.0000 |       0.0000 |       0.0000 |       0.0000 |       0.0000 |       0.0000 |       0.0000 |       0.0000 |       0.0000 |       0.0000 |       0.0000 |       0.0000 |       0.0000 |       0.0000 |       0.0000 |       0.0000 |       0.0000 |       0.0000 |       0.0000 |       0.0000 |       0.0000 |       0.0000 |
ld_text_base                            0x00400000 |   0x00400000 |   0x00400000 |   0x00400000 |   0x00400000 |   0x00400000 |   0x00400000 |   0x00400000 |   0x00400000 |   0x00400000 |   0x00400000 |   0x00400000 |   0x00400000 |   0x00400000 |   0x00400000 |   0x00400000 |   0x00400000 |   0x00400000 |   0x00400000 |   0x00400000 |   0x00400000 |   0x00400000 |   0x00400000 |   0x00400000 |   0x00400000 |   0x00400000 |   0x00400000 |   0x00400000 |   0x00400000 |   0x00400000 |   0x00400000 |   0x00400000 |   0x00400000 |   0x00400000 |   0x00400000 |   0x00400000 |   0x00400000 |   0x00400000 |   0x00400000 |   0x00400000 |   0x00400000 |   0x00400000 |   0x00400000 |   0x00400000 |
ld_text_size                                 72720 |        72720 |        72720 |        72720 |        72752 |        72752 |        72752 |        72752 |        72768 |        72768 |        72768 |        72768 |        72784 |        72784 |        72784 |        72784 |        72784 |        72784 |        72784 |        72784 |        72784 |        72784 |        72784 |        72784 |        72784 |        72784 |        72784 |        72784 |        72784 |        72784 |        72784 |        72784 |        72784 |        72784 |        72784 |        72784 |        72784 |        72784 |        72784 |        72784 |        72784 |        72784 |        72784 |        72784 |
ld_data_base                            0x10000000 |   0x10000000 |   0x10000000 |   0x10000000 |   0x10000000 |   0x10000000 |   0x10000000 |   0x10000000 |   0x10000000 |   0x10000000 |   0x10000000 |   0x10000000 |   0x10000000 |   0x10000000 |   0x10000000 |   0x10000000 |   0x10000000 |   0x10000000 |   0x10000000 |   0x10000000 |   0x10000000 |   0x10000000 |   0x10000000 |   0x10000000 |   0x10000000 |   0x10000000 |   0x10000000 |   0x10000000 |   0x10000000 |   0x10000000 |   0x10000000 |   0x10000000 |   0x10000000 |   0x10000000 |   0x10000000 |   0x10000000 |   0x10000000 |   0x10000000 |   0x10000000 |   0x10000000 |   0x10000000 |   0x10000000 |   0x10000000 |   0x10000000 |
ld_data_size                                  8192 |         8192 |         8192 |         8192 |         8192 |         8192 |         8192 |         8192 |         8192 |         8192 |         8192 |         8192 |         8192 |         8192 |         8192 |         8192 |         8192 |         8192 |         8192 |         8192 |         8192 |         8192 |         8192 |         8192 |         8192 |         8192 |         8192 |         8192 |         8192 |         8192 |         8192 |         8192 |         8192 |         8192 |         8192 |         8192 |         8192 |         8192 |         8192 |         8192 |         8192 |         8192 |         8192 |         8192 |
ld_stack_base                           0x7fffc000 |   0x7fffc000 |   0x7fffc000 |   0x7fffc000 |   0x7fffc000 |   0x7fffc000 |   0x7fffc000 |   0x7fffc000 |   0x7fffc000 |   0x7fffc000 |   0x7fffc000 |   0x7fffc000 |   0x7fffc000 |   0x7fffc000 |   0x7fffc000 |   0x7fffc000 |   0x7fffc000 |   0x7fffc000 |   0x7fffc000 |   0x7fffc000 |   0x7fffc000 |   0x7fffc000 |   0x7fffc000 |   0x7fffc000 |   0x7fffc000 |   0x7fffc000 |   0x7fffc000 |   0x7fffc000 |   0x7fffc000 |   0x7fffc000 |   0x7fffc000 |   0x7fffc000 |   0x7fffc000 |   0x7fffc000 |   0x7fffc000 |   0x7fffc000 |   0x7fffc000 |   0x7fffc000 |   0x7fffc000 |   0x7fffc000 |   0x7fffc000 |   0x7fffc000 |   0x7fffc000 |   0x7fffc000 |
ld_stack_size                                16384 |        16384 |        16384 |        16384 |        16384 |        16384 |        16384 |        16384 |        16384 |        16384 |        16384 |        16384 |        16384 |        16384 |        16384 |        16384 |        16384 |        16384 |        16384 |        16384 |        16384 |        16384 |        16384 |        16384 |        16384 |        16384 |        16384 |        16384 |        16384 |        16384 |        16384 |        16384 |        16384 |        16384 |        16384 |        16384 |        16384 |        16384 |        16384 |        16384 |        16384 |        16384 |        16384 |        16384 |
ld_prog_entry                           0x00400140 |   0x00400140 |   0x00400140 |   0x00400140 |   0x00400140 |   0x00400140 |   0x00400140 |   0x00400140 |   0x00400140 |   0x00400140 |   0x00400140 |   0x00400140 |   0x00400140 |   0x00400140 |   0x00400140 |   0x00400140 |   0x00400140 |   0x00400140 |   0x00400140 |   0x00400140 |   0x00400140 |   0x00400140 |   0x00400140 |   0x00400140 |   0x00400140 |   0x00400140 |   0x00400140 |   0x00400140 |   0x00400140 |   0x00400140 |   0x00400140 |   0x00400140 |   0x00400140 |   0x00400140 |   0x00400140 |   0x00400140 |   0x00400140 |   0x00400140 |   0x00400140 |   0x00400140 |   0x00400140 |   0x00400140 |   0x00400140 |   0x00400140 |
ld_environ_base                         0x7fff8000 |   0x7fff8000 |   0x7fff8000 |   0x7fff8000 |   0x7fff8000 |   0x7fff8000 |   0x7fff8000 |   0x7fff8000 |   0x7fff8000 |   0x7fff8000 |   0x7fff8000 |   0x7fff8000 |   0x7fff8000 |   0x7fff8000 |   0x7fff8000 |   0x7fff8000 |   0x7fff8000 |   0x7fff8000 |   0x7fff8000 |   0x7fff8000 |   0x7fff8000 |   0x7fff8000 |   0x7fff8000 |   0x7fff8000 |   0x7fff8000 |   0x7fff8000 |   0x7fff8000 |   0x7fff8000 |   0x7fff8000 |   0x7fff8000 |   0x7fff8000 |   0x7fff8000 |   0x7fff8000 |   0x7fff8000 |   0x7fff8000 |   0x7fff8000 |   0x7fff8000 |   0x7fff8000 |   0x7fff8000 |   0x7fff8000 |   0x7fff8000 |   0x7fff8000 |   0x7fff8000 |   0x7fff8000 |
ld_target_big_endian                             0 |            0 |            0 |            0 |            0 |            0 |            0 |            0 |            0 |            0 |            0 |            0 |            0 |            0 |            0 |            0 |            0 |            0 |            0 |            0 |            0 |            0 |            0 |            0 |            0 |            0 |            0 |            0 |            0 |            0 |            0 |            0 |            0 |            0 |            0 |            0 |            0 |            0 |            0 |            0 |            0 |            0 |            0 |            0 |
mem.page_count                                  29 |           29 |           29 |           29 |           33 |           33 |           33 |           33 |           41 |           41 |           41 |           41 |           57 |           57 |           57 |           57 |           89 |           89 |           89 |           89 |          153 |          153 |          153 |          153 |          281 |          281 |          281 |          281 |          537 |          537 |          537 |          537 |         1049 |         1049 |         1049 |         1049 |         2073 |         2073 |         2073 |         2073 |         4121 |         4121 |         4121 |         4121 |
mem.page_mem                                  116k |         116k |         116k |         116k |         132k |         132k |         132k |         132k |         164k |         164k |         164k |         164k |         228k |         228k |         228k |         228k |         356k |         356k |         356k |         356k |         612k |         612k |         612k |         612k |        1124k |        1124k |        1124k |        1124k |        2148k |        2148k |        2148k |        2148k |        4196k |        4196k |        4196k |        4196k |        8292k |        8292k |        8292k |        8292k |       16484k |       16484k |       16484k |       16484k |
mem.ptab_misses                                 29 |           29 |           29 |           29 |           33 |           33 |           33 |           33 |           41 |           41 |           41 |           41 |           57 |           57 |           57 |           57 |           89 |           89 |           89 |           89 |          153 |          153 |          153 |          153 |          281 |          281 |          281 |          281 |          537 |          537 |          537 |          537 |         1049 |         1049 |         1049 |         1049 |         2073 |         2073 |         2073 |         2073 |         4121 |         4121 |         4121 |         4121 |
mem.ptab_accesses                          4474970 |      4474970 |      4474970 |      4474970 |      9374674 |      9374674 |      9374674 |      9374674 |     21004028 |     21004028 |     21004028 |     21004028 |     44510040 |     44510040 |     44510040 |     44510040 |     95134994 |     95134994 |     95134994 |     95134994 |    211482802 |    211482802 |    211482802 |    211482802 |    433324854 |    433324854 |    433324854 |    433324854 |    927527276 |    927527276 |    927527276 |    927527276 |   1965768376 |   1965768376 |   1965768376 |   1965768376 |   4212760646 |   4212760646 |   4212760646 |   4212760646 |   8782286458 |   8782286458 |   8782286458 |   8782286458 |
mem.ptab_miss_rate                          0.0000 |       0.0000 |       0.0000 |       0.0000 |       0.0000 |       0.0000 |       0.0000 |       0.0000 |       0.0000 |       0.0000 |       0.0000 |       0.0000 |       0.0000 |       0.0000 |       0.0000 |       0.0000 |       0.0000 |       0.0000 |       0.0000 |       0.0000 |       0.0000 |       0.0000 |       0.0000 |       0.0000 |       0.0000 |       0.0000 |       0.0000 |       0.0000 |       0.0000 |       0.0000 |       0.0000 |       0.0000 |       0.0000 |       0.0000 |       0.0000 |       0.0000 |       0.0000 |       0.0000 |       0.0000 |       0.0000 |       0.0000 |       0.0000 |       0.0000 |       0.0000 |
-------------------------------------------------------------------------------------------------
sim-bpred                                     4096 |         4096 |         4096 |         4096 |         4096 |         4096 |         4096 |         8192 |         8192 |         8192 |         8192 |         8192 |         8192 |         8192 |        16384 |        16384 |        16384 |        16384 |        16384 |        16384 |        16384 |        32768 |        32768 |        32768 |        32768 |        32768 |        32768 |        32768 |        65536 |        65536 |        65536 |        65536 |        65536 |        65536 |        65536 |       131072 |       131072 |       131072 |       131072 |       131072 |       131072 |       131072 |       262144 |       262144 |       262144 |       262144 |       262144 |       262144 |       262144 |       524288 |       524288 |       524288 |       524288 |       524288 |       524288 |       524288 |      1048576 |      1048576 |      1048576 |      1048576 |      1048576 |      1048576 |      1048576 |      2097152 |      2097152 |      2097152 |      2097152 |      2097152 |      2097152 |      2097152 |      4194304 |      4194304 |      4194304 |      4194304 |      4194304 |      4194304 |      4194304 |
-bpred bimod -bpred:bimod 512
-bpred bimod -bpred:bimod 1024
-bpred bimod -bpred:bimod 2048
-bpred 2lev -bpred:2lev 1 512 10 1
-bpred 2lev -bpred:2lev 1 1024 10 1
-bpred 2lev -bpred:2lev 1 2048 10 1
-bpred 2lev -bpred:2lev 1 4096 10 1
-------------------------------------------------------------------------------------------------
sim_num_insn                                901642 |       901642 |       901642 |       901642 |       901642 |       901642 |       901642 |      2004698 |      2004698 |      2004698 |      2004698 |      2004698 |      2004698 |      2004698 |      4638916 |      4638916 |      4638916 |      4638916 |      4638916 |      4638916 |      4638916 |      9953682 |      9953682 |      9953682 |      9953682 |      9953682 |      9953682 |      9953682 |     21228976 |     21228976 |     21228976 |     21228976 |     21228976 |     21228976 |     21228976 |     47429039 |     47429039 |     47429039 |     47429039 |     47429039 |     47429039 |     47429039 |     97630615 |     97630615 |     97630615 |     97630615 |     97630615 |     97630615 |     97630615 |    209459046 |    209459046 |    209459046 |    209459046 |    209459046 |    209459046 |    209459046 |    444939341 |    444939341 |    444939341 |    444939341 |    444939341 |    444939341 |    444939341 |    953482898 |    953482898 |    953482898 |    953482898 |    953482898 |    953482898 |    953482898 |   1993946591 |   1993946591 |   1993946591 |   1993946591 |   1993946591 |   1993946591 |   1993946591 |
sim_num_refs                                192282 |       192282 |       192282 |       192282 |       192282 |       192282 |       192282 |       419542 |       419542 |       419542 |       419542 |       419542 |       419542 |       419542 |       932967 |       932967 |       932967 |       932967 |       932967 |       932967 |       932967 |      1990857 |      1990857 |      1990857 |      1990857 |      1990857 |      1990857 |      1990857 |      4621674 |      4621674 |      4621674 |      4621674 |      4621674 |      4621674 |      4621674 |     10133308 |     10133308 |     10133308 |     10133308 |     10133308 |     10133308 |     10133308 |     20126894 |     20126894 |     20126894 |     20126894 |     20126894 |     20126894 |     20126894 |     42522667 |     42522667 |     42522667 |     42522667 |     42522667 |     42522667 |     42522667 |     88585475 |     88585475 |     88585475 |     88585475 |     88585475 |     88585475 |     88585475 |    190800192 |    190800192 |    190800192 |    190800192 |    190800192 |    190800192 |    190800192 |    386247104 |    386247104 |    386247104 |    386247104 |    386247104 |    386247104 |    386247104 |
sim_elapsed_time                                 1 |            1 |            1 |            1 |            1 |            1 |            1 |            1 |            1 |            1 |            1 |            1 |            1 |            1 |            1 |            1 |            1 |            1 |            1 |            1 |            1 |            1 |            1 |            1 |            2 |            1 |            1 |            1 |            2 |            3 |            2 |            3 |            2 |            3 |            2 |            5 |            6 |            6 |            5 |            6 |            6 |            5 |           12 |           11 |           11 |           12 |           12 |           12 |           11 |           25 |           25 |           24 |           25 |           26 |           25 |           25 |           52 |           53 |           52 |           53 |           53 |           54 |           53 |          112 |          113 |          112 |          115 |          114 |          115 |          114 |          234 |          236 |          233 |          241 |          238 |          239 |          239 |
sim_inst_rate                          901642.0000 |  901642.0000 |  901642.0000 |  901642.0000 |  901642.0000 |  901642.0000 |  901642.0000 | 2004698.0000 | 2004698.0000 | 2004698.0000 | 2004698.0000 | 2004698.0000 | 2004698.0000 | 2004698.0000 | 4638916.0000 | 4638916.0000 | 4638916.0000 | 4638916.0000 | 4638916.0000 | 4638916.0000 | 4638916.0000 | 9953682.0000 | 9953682.0000 | 9953682.0000 | 4976841.0000 | 9953682.0000 | 9953682.0000 | 9953682.0000 |10614488.0000 | 7076325.3333 |10614488.0000 | 7076325.3333 |10614488.0000 | 7076325.3333 |10614488.0000 | 9485807.8000 | 7904839.8333 | 7904839.8333 | 9485807.8000 | 7904839.8333 | 7904839.8333 | 9485807.8000 | 8135884.5833 | 8875510.4545 | 8875510.4545 | 8135884.5833 | 8135884.5833 | 8135884.5833 | 8875510.4545 | 8378361.8400 | 8378361.8400 | 8727460.2500 | 8378361.8400 | 8056117.1538 | 8378361.8400 | 8378361.8400 | 8556525.7885 | 8395081.9057 | 8556525.7885 | 8395081.9057 | 8395081.9057 | 8239617.4259 | 8395081.9057 | 8513240.1607 | 8437901.7522 | 8513240.1607 | 8291155.6348 | 8363885.0702 | 8291155.6348 | 8363885.0702 | 8521139.2778 | 8448926.2331 | 8557710.6910 | 8273637.3071 | 8377926.8529 | 8342872.7657 | 8342872.7657 |
sim_num_branches                            145677 |       145677 |       145677 |       145677 |       145677 |       145677 |       145677 |       325230 |       325230 |       325230 |       325230 |       325230 |       325230 |       325230 |       757190 |       757190 |       757190 |       757190 |       757190 |       757190 |       757190 |      1627464 |      1627464 |      1627464 |      1627464 |      1627464 |      1627464 |      1627464 |      3437111 |      3437111 |      3437111 |      3437111 |      3437111 |      3437111 |      3437111 |      7703175 |      7703175 |      7703175 |      7703175 |      7703175 |      7703175 |      7703175 |     15935135 |     15935135 |     15935135 |     15935135 |     15935135 |     15935135 |     15935135 |     34269328 |     34269328 |     34269328 |     34269328 |     34269328 |     34269328 |     34269328 |     72995694 |     72995694 |     72995694 |     72995694 |     72995694 |     72995694 |     72995694 |    156412168 |    156412168 |    156412168 |    156412168 |    156412168 |    156412168 |    156412168 |    328407318 |    328407318 |    328407318 |    328407318 |    328407318 |    328407318 |    328407318 |
sim_IPB                                     6.1893 |       6.1893 |       6.1893 |       6.1893 |       6.1893 |       6.1893 |       6.1893 |       6.1639 |       6.1639 |       6.1639 |       6.1639 |       6.1639 |       6.1639 |       6.1639 |       6.1265 |       6.1265 |       6.1265 |       6.1265 |       6.1265 |       6.1265 |       6.1265 |       6.1161 |       6.1161 |       6.1161 |       6.1161 |       6.1161 |       6.1161 |       6.1161 |       6.1764 |       6.1764 |       6.1764 |       6.1764 |       6.1764 |       6.1764 |       6.1764 |       6.1571 |       6.1571 |       6.1571 |       6.1571 |       6.1571 |       6.1571 |       6.1571 |       6.1268 |       6.1268 |       6.1268 |       6.1268 |       6.1268 |       6.1268 |       6.1268 |       6.1121 |       6.1121 |       6.1121 |       6.1121 |       6.1121 |       6.1121 |       6.1121 |       6.0954 |       6.0954 |       6.0954 |       6.0954 |       6.0954 |       6.0954 |       6.0954 |       6.0960 |       6.0960 |       6.0960 |       6.0960 |       6.0960 |       6.0960 |       6.0960 |       6.0716 |       6.0716 |       6.0716 |       6.0716 |       6.0716 |       6.0716 |       6.0716 |
bpred_bimod.lookups                         145677 |       145677 |       145677 |xxxxxxxxxxxxx |xxxxxxxxxxxxx |xxxxxxxxxxxxx |xxxxxxxxxxxxx |       325230 |       325230 |       325230 |xxxxxxxxxxxxx |xxxxxxxxxxxxx |xxxxxxxxxxxxx |xxxxxxxxxxxxx |       757190 |       757190 |       757190 |xxxxxxxxxxxxx |xxxxxxxxxxxxx |xxxxxxxxxxxxx |xxxxxxxxxxxxx |      1627464 |      1627464 |      1627464 |xxxxxxxxxxxxx |xxxxxxxxxxxxx |xxxxxxxxxxxxx |xxxxxxxxxxxxx |      3437111 |      3437111 |      3437111 |xxxxxxxxxxxxx |xxxxxxxxxxxxx |xxxxxxxxxxxxx |xxxxxxxxxxxxx |      7703175 |      7703175 |      7703175 |xxxxxxxxxxxxx |xxxxxxxxxxxxx |xxxxxxxxxxxxx |xxxxxxxxxxxxx |     15935135 |     15935135 |     15935135 |xxxxxxxxxxxxx |xxxxxxxxxxxxx |xxxxxxxxxxxxx |xxxxxxxxxxxxx |     34269328 |     34269328 |     34269328 |xxxxxxxxxxxxx |xxxxxxxxxxxxx |xxxxxxxxxxxxx |xxxxxxxxxxxxx |     72995694 |     72995694 |     72995694 |xxxxxxxxxxxxx |xxxxxxxxxxxxx |xxxxxxxxxxxxx |xxxxxxxxxxxxx |    156412168 |    156412168 |    156412168 |xxxxxxxxxxxxx |xxxxxxxxxxxxx |xxxxxxxxxxxxx |xxxxxxxxxxxxx |    328407318 |    328407318 |    328407318 |
bpred_bimod.updates                         145677 |       145677 |       145677 |xxxxxxxxxxxxx |xxxxxxxxxxxxx |xxxxxxxxxxxxx |xxxxxxxxxxxxx |       325230 |       325230 |       325230 |xxxxxxxxxxxxx |xxxxxxxxxxxxx |xxxxxxxxxxxxx |xxxxxxxxxxxxx |       757190 |       757190 |       757190 |xxxxxxxxxxxxx |xxxxxxxxxxxxx |xxxxxxxxxxxxx |xxxxxxxxxxxxx |      1627464 |      1627464 |      1627464 |xxxxxxxxxxxxx |xxxxxxxxxxxxx |xxxxxxxxxxxxx |xxxxxxxxxxxxx |      3437111 |      3437111 |      3437111 |xxxxxxxxxxxxx |xxxxxxxxxxxxx |xxxxxxxxxxxxx |xxxxxxxxxxxxx |      7703175 |      7703175 |      7703175 |xxxxxxxxxxxxx |xxxxxxxxxxxxx |xxxxxxxxxxxxx |xxxxxxxxxxxxx |     15935135 |     15935135 |     15935135 |xxxxxxxxxxxxx |xxxxxxxxxxxxx |xxxxxxxxxxxxx |xxxxxxxxxxxxx |     34269328 |     34269328 |     34269328 |xxxxxxxxxxxxx |xxxxxxxxxxxxx |xxxxxxxxxxxxx |xxxxxxxxxxxxx |     72995694 |     72995694 |     72995694 |xxxxxxxxxxxxx |xxxxxxxxxxxxx |xxxxxxxxxxxxx |xxxxxxxxxxxxx |    156412168 |    156412168 |    156412168 |xxxxxxxxxxxxx |xxxxxxxxxxxxx |xxxxxxxxxxxxx |xxxxxxxxxxxxx |    328407318 |    328407318 |    328407318 |
bpred_bimod.addr_hits                       111582 |       111585 |       111587 |xxxxxxxxxxxxx |xxxxxxxxxxxxx |xxxxxxxxxxxxx |xxxxxxxxxxxxx |       249847 |       249851 |       249851 |xxxxxxxxxxxxx |xxxxxxxxxxxxx |xxxxxxxxxxxxx |xxxxxxxxxxxxx |       583779 |       583782 |       583782 |xxxxxxxxxxxxx |xxxxxxxxxxxxx |xxxxxxxxxxxxx |xxxxxxxxxxxxx |      1251827 |      1251829 |      1251830 |xxxxxxxxxxxxx |xxxxxxxxxxxxx |xxxxxxxxxxxxx |xxxxxxxxxxxxx |      2693145 |      2693146 |      2693147 |xxxxxxxxxxxxx |xxxxxxxxxxxxx |xxxxxxxxxxxxx |xxxxxxxxxxxxx |      6064818 |      6064820 |      6064821 |xxxxxxxxxxxxx |xxxxxxxxxxxxx |xxxxxxxxxxxxx |xxxxxxxxxxxxx |     12388959 |     12388961 |     12388961 |xxxxxxxxxxxxx |xxxxxxxxxxxxx |xxxxxxxxxxxxx |xxxxxxxxxxxxx |     26553226 |     26553228 |     26553229 |xxxxxxxxxxxxx |xxxxxxxxxxxxx |xxxxxxxxxxxxx |xxxxxxxxxxxxx |     56296091 |     56296092 |     56296093 |xxxxxxxxxxxxx |xxxxxxxxxxxxx |xxxxxxxxxxxxx |xxxxxxxxxxxxx |    120892954 |    120892956 |    120892957 |xxxxxxxxxxxxx |xxxxxxxxxxxxx |xxxxxxxxxxxxx |xxxxxxxxxxxxx |    252660840 |    252660841 |    252660842 |
bpred_bimod.dir_hits                        111689 |       111689 |       111689 |xxxxxxxxxxxxx |xxxxxxxxxxxxx |xxxxxxxxxxxxx |xxxxxxxxxxxxx |       249946 |       249949 |       249948 |xxxxxxxxxxxxx |xxxxxxxxxxxxx |xxxxxxxxxxxxx |xxxxxxxxxxxxx |       583881 |       583883 |       583880 |xxxxxxxxxxxxx |xxxxxxxxxxxxx |xxxxxxxxxxxxx |xxxxxxxxxxxxx |      1251930 |      1251931 |      1251930 |xxxxxxxxxxxxx |xxxxxxxxxxxxx |xxxxxxxxxxxxx |xxxxxxxxxxxxx |      2693247 |      2693247 |      2693246 |xxxxxxxxxxxxx |xxxxxxxxxxxxx |xxxxxxxxxxxxx |xxxxxxxxxxxxx |      6064919 |      6064921 |      6064920 |xxxxxxxxxxxxx |xxxxxxxxxxxxx |xxxxxxxxxxxxx |xxxxxxxxxxxxx |     12389063 |     12389064 |     12389063 |xxxxxxxxxxxxx |xxxxxxxxxxxxx |xxxxxxxxxxxxx |xxxxxxxxxxxxx |     26553330 |     26553331 |     26553330 |xxxxxxxxxxxxx |xxxxxxxxxxxxx |xxxxxxxxxxxxx |xxxxxxxxxxxxx |     56296194 |     56296194 |     56296193 |xxxxxxxxxxxxx |xxxxxxxxxxxxx |xxxxxxxxxxxxx |xxxxxxxxxxxxx |    120893057 |    120893058 |    120893057 |xxxxxxxxxxxxx |xxxxxxxxxxxxx |xxxxxxxxxxxxx |xxxxxxxxxxxxx |    252660940 |    252660941 |    252660940 |
bpred_bimod.misses                           33988 |        33988 |        33988 |xxxxxxxxxxxxx |xxxxxxxxxxxxx |xxxxxxxxxxxxx |xxxxxxxxxxxxx |        75284 |        75281 |        75282 |xxxxxxxxxxxxx |xxxxxxxxxxxxx |xxxxxxxxxxxxx |xxxxxxxxxxxxx |       173309 |       173307 |       173310 |xxxxxxxxxxxxx |xxxxxxxxxxxxx |xxxxxxxxxxxxx |xxxxxxxxxxxxx |       375534 |       375533 |       375534 |xxxxxxxxxxxxx |xxxxxxxxxxxxx |xxxxxxxxxxxxx |xxxxxxxxxxxxx |       743864 |       743864 |       743865 |xxxxxxxxxxxxx |xxxxxxxxxxxxx |xxxxxxxxxxxxx |xxxxxxxxxxxxx |      1638256 |      1638254 |      1638255 |xxxxxxxxxxxxx |xxxxxxxxxxxxx |xxxxxxxxxxxxx |xxxxxxxxxxxxx |      3546072 |      3546071 |      3546072 |xxxxxxxxxxxxx |xxxxxxxxxxxxx |xxxxxxxxxxxxx |xxxxxxxxxxxxx |      7715998 |      7715997 |      7715998 |xxxxxxxxxxxxx |xxxxxxxxxxxxx |xxxxxxxxxxxxx |xxxxxxxxxxxxx |     16699500 |     16699500 |     16699501 |xxxxxxxxxxxxx |xxxxxxxxxxxxx |xxxxxxxxxxxxx |xxxxxxxxxxxxx |     35519111 |     35519110 |     35519111 |xxxxxxxxxxxxx |xxxxxxxxxxxxx |xxxxxxxxxxxxx |xxxxxxxxxxxxx |     75746378 |     75746377 |     75746378 |
bpred_bimod.jr_hits                             57 |           57 |           57 |xxxxxxxxxxxxx |xxxxxxxxxxxxx |xxxxxxxxxxxxx |xxxxxxxxxxxxx |           57 |           57 |           57 |xxxxxxxxxxxxx |xxxxxxxxxxxxx |xxxxxxxxxxxxx |xxxxxxxxxxxxx |           57 |           57 |           57 |xxxxxxxxxxxxx |xxxxxxxxxxxxx |xxxxxxxxxxxxx |xxxxxxxxxxxxx |           57 |           57 |           57 |xxxxxxxxxxxxx |xxxxxxxxxxxxx |xxxxxxxxxxxxx |xxxxxxxxxxxxx |           57 |           57 |           57 |xxxxxxxxxxxxx |xxxxxxxxxxxxx |xxxxxxxxxxxxx |xxxxxxxxxxxxx |           57 |           57 |           57 |xxxxxxxxxxxxx |xxxxxxxxxxxxx |xxxxxxxxxxxxx |xxxxxxxxxxxxx |           57 |           57 |           57 |xxxxxxxxxxxxx |xxxxxxxxxxxxx |xxxxxxxxxxxxx |xxxxxxxxxxxxx |           57 |           57 |           57 |xxxxxxxxxxxxx |xxxxxxxxxxxxx |xxxxxxxxxxxxx |xxxxxxxxxxxxx |           57 |           57 |           57 |xxxxxxxxxxxxx |xxxxxxxxxxxxx |xxxxxxxxxxxxx |xxxxxxxxxxxxx |           57 |           57 |           57 |xxxxxxxxxxxxx |xxxxxxxxxxxxx |xxxxxxxxxxxxx |xxxxxxxxxxxxx |           57 |           57 |           57 |
bpred_bimod.jr_seen                             58 |           58 |           58 |xxxxxxxxxxxxx |xxxxxxxxxxxxx |xxxxxxxxxxxxx |xxxxxxxxxxxxx |           58 |           58 |           58 |xxxxxxxxxxxxx |xxxxxxxxxxxxx |xxxxxxxxxxxxx |xxxxxxxxxxxxx |           58 |           58 |           58 |xxxxxxxxxxxxx |xxxxxxxxxxxxx |xxxxxxxxxxxxx |xxxxxxxxxxxxx |           58 |           58 |           58 |xxxxxxxxxxxxx |xxxxxxxxxxxxx |xxxxxxxxxxxxx |xxxxxxxxxxxxx |           58 |           58 |           58 |xxxxxxxxxxxxx |xxxxxxxxxxxxx |xxxxxxxxxxxxx |xxxxxxxxxxxxx |           58 |           58 |           58 |xxxxxxxxxxxxx |xxxxxxxxxxxxx |xxxxxxxxxxxxx |xxxxxxxxxxxxx |           58 |           58 |           58 |xxxxxxxxxxxxx |xxxxxxxxxxxxx |xxxxxxxxxxxxx |xxxxxxxxxxxxx |           58 |           58 |           58 |xxxxxxxxxxxxx |xxxxxxxxxxxxx |xxxxxxxxxxxxx |xxxxxxxxxxxxx |           58 |           58 |           58 |xxxxxxxxxxxxx |xxxxxxxxxxxxx |xxxxxxxxxxxxx |xxxxxxxxxxxxx |           58 |           58 |           58 |xxxxxxxxxxxxx |xxxxxxxxxxxxx |xxxxxxxxxxxxx |xxxxxxxxxxxxx |           58 |           58 |           58 |
bpred_bimod.jr_non_ras_hits.PP                   0 |            0 |            0 |xxxxxxxxxxxxx |xxxxxxxxxxxxx |xxxxxxxxxxxxx |xxxxxxxxxxxxx |            0 |            0 |            0 |xxxxxxxxxxxxx |xxxxxxxxxxxxx |xxxxxxxxxxxxx |xxxxxxxxxxxxx |            0 |            0 |            0 |xxxxxxxxxxxxx |xxxxxxxxxxxxx |xxxxxxxxxxxxx |xxxxxxxxxxxxx |            0 |            0 |            0 |xxxxxxxxxxxxx |xxxxxxxxxxxxx |xxxxxxxxxxxxx |xxxxxxxxxxxxx |            0 |            0 |            0 |xxxxxxxxxxxxx |xxxxxxxxxxxxx |xxxxxxxxxxxxx |xxxxxxxxxxxxx |            0 |            0 |            0 |xxxxxxxxxxxxx |xxxxxxxxxxxxx |xxxxxxxxxxxxx |xxxxxxxxxxxxx |            0 |            0 |            0 |xxxxxxxxxxxxx |xxxxxxxxxxxxx |xxxxxxxxxxxxx |xxxxxxxxxxxxx |            0 |            0 |            0 |xxxxxxxxxxxxx |xxxxxxxxxxxxx |xxxxxxxxxxxxx |xxxxxxxxxxxxx |            0 |            0 |            0 |xxxxxxxxxxxxx |xxxxxxxxxxxxx |xxxxxxxxxxxxx |xxxxxxxxxxxxx |            0 |            0 |            0 |xxxxxxxxxxxxx |xxxxxxxxxxxxx |xxxxxxxxxxxxx |xxxxxxxxxxxxx |            0 |            0 |            0 |
bpred_bimod.jr_non_ras_seen.PP                   0 |            0 |            0 |xxxxxxxxxxxxx |xxxxxxxxxxxxx |xxxxxxxxxxxxx |xxxxxxxxxxxxx |            0 |            0 |            0 |xxxxxxxxxxxxx |xxxxxxxxxxxxx |xxxxxxxxxxxxx |xxxxxxxxxxxxx |            0 |            0 |            0 |xxxxxxxxxxxxx |xxxxxxxxxxxxx |xxxxxxxxxxxxx |xxxxxxxxxxxxx |            0 |            0 |            0 |xxxxxxxxxxxxx |xxxxxxxxxxxxx |xxxxxxxxxxxxx |xxxxxxxxxxxxx |            0 |            0 |            0 |xxxxxxxxxxxxx |xxxxxxxxxxxxx |xxxxxxxxxxxxx |xxxxxxxxxxxxx |            0 |            0 |            0 |xxxxxxxxxxxxx |xxxxxxxxxxxxx |xxxxxxxxxxxxx |xxxxxxxxxxxxx |            0 |            0 |            0 |xxxxxxxxxxxxx |xxxxxxxxxxxxx |xxxxxxxxxxxxx |xxxxxxxxxxxxx |            0 |            0 |            0 |xxxxxxxxxxxxx |xxxxxxxxxxxxx |xxxxxxxxxxxxx |xxxxxxxxxxxxx |            0 |            0 |            0 |xxxxxxxxxxxxx |xxxxxxxxxxxxx |xxxxxxxxxxxxx |xxxxxxxxxxxxx |            0 |            0 |            0 |xxxxxxxxxxxxx |xxxxxxxxxxxxx |xxxxxxxxxxxxx |xxxxxxxxxxxxx |            0 |            0 |            0 |
bpred_bimod.bpred_addr_rate                 0.7660 |       0.7660 |       0.7660 |xxxxxxxxxxxxx |xxxxxxxxxxxxx |xxxxxxxxxxxxx |xxxxxxxxxxxxx |       0.7682 |       0.7682 |       0.7682 |xxxxxxxxxxxxx |xxxxxxxxxxxxx |xxxxxxxxxxxxx |xxxxxxxxxxxxx |       0.7710 |       0.7710 |       0.7710 |xxxxxxxxxxxxx |xxxxxxxxxxxxx |xxxxxxxxxxxxx |xxxxxxxxxxxxx |       0.7692 |       0.7692 |       0.7692 |xxxxxxxxxxxxx |xxxxxxxxxxxxx |xxxxxxxxxxxxx |xxxxxxxxxxxxx |       0.7835 |       0.7835 |       0.7835 |xxxxxxxxxxxxx |xxxxxxxxxxxxx |xxxxxxxxxxxxx |xxxxxxxxxxxxx |       0.7873 |       0.7873 |       0.7873 |xxxxxxxxxxxxx |xxxxxxxxxxxxx |xxxxxxxxxxxxx |xxxxxxxxxxxxx |       0.7775 |       0.7775 |       0.7775 |xxxxxxxxxxxxx |xxxxxxxxxxxxx |xxxxxxxxxxxxx |xxxxxxxxxxxxx |       0.7748 |       0.7748 |       0.7748 |xxxxxxxxxxxxx |xxxxxxxxxxxxx |xxxxxxxxxxxxx |xxxxxxxxxxxxx |       0.7712 |       0.7712 |       0.7712 |xxxxxxxxxxxxx |xxxxxxxxxxxxx |xxxxxxxxxxxxx |xxxxxxxxxxxxx |       0.7729 |       0.7729 |       0.7729 |xxxxxxxxxxxxx |xxxxxxxxxxxxx |xxxxxxxxxxxxx |xxxxxxxxxxxxx |       0.7694 |       0.7694 |       0.7694 |
bpred_bimod.bpred_dir_rate                  0.7667 |       0.7667 |       0.7667 |xxxxxxxxxxxxx |xxxxxxxxxxxxx |xxxxxxxxxxxxx |xxxxxxxxxxxxx |       0.7685 |       0.7685 |       0.7685 |xxxxxxxxxxxxx |xxxxxxxxxxxxx |xxxxxxxxxxxxx |xxxxxxxxxxxxx |       0.7711 |       0.7711 |       0.7711 |xxxxxxxxxxxxx |xxxxxxxxxxxxx |xxxxxxxxxxxxx |xxxxxxxxxxxxx |       0.7693 |       0.7693 |       0.7693 |xxxxxxxxxxxxx |xxxxxxxxxxxxx |xxxxxxxxxxxxx |xxxxxxxxxxxxx |       0.7836 |       0.7836 |       0.7836 |xxxxxxxxxxxxx |xxxxxxxxxxxxx |xxxxxxxxxxxxx |xxxxxxxxxxxxx |       0.7873 |       0.7873 |       0.7873 |xxxxxxxxxxxxx |xxxxxxxxxxxxx |xxxxxxxxxxxxx |xxxxxxxxxxxxx |       0.7775 |       0.7775 |       0.7775 |xxxxxxxxxxxxx |xxxxxxxxxxxxx |xxxxxxxxxxxxx |xxxxxxxxxxxxx |       0.7748 |       0.7748 |       0.7748 |xxxxxxxxxxxxx |xxxxxxxxxxxxx |xxxxxxxxxxxxx |xxxxxxxxxxxxx |       0.7712 |       0.7712 |       0.7712 |xxxxxxxxxxxxx |xxxxxxxxxxxxx |xxxxxxxxxxxxx |xxxxxxxxxxxxx |       0.7729 |       0.7729 |       0.7729 |xxxxxxxxxxxxx |xxxxxxxxxxxxx |xxxxxxxxxxxxx |xxxxxxxxxxxxx |       0.7694 |       0.7694 |       0.7694 |
bpred_bimod.bpred_jr_rate                   0.9828 |       0.9828 |       0.9828 |xxxxxxxxxxxxx |xxxxxxxxxxxxx |xxxxxxxxxxxxx |xxxxxxxxxxxxx |       0.9828 |       0.9828 |       0.9828 |xxxxxxxxxxxxx |xxxxxxxxxxxxx |xxxxxxxxxxxxx |xxxxxxxxxxxxx |       0.9828 |       0.9828 |       0.9828 |xxxxxxxxxxxxx |xxxxxxxxxxxxx |xxxxxxxxxxxxx |xxxxxxxxxxxxx |       0.9828 |       0.9828 |       0.9828 |xxxxxxxxxxxxx |xxxxxxxxxxxxx |xxxxxxxxxxxxx |xxxxxxxxxxxxx |       0.9828 |       0.9828 |       0.9828 |xxxxxxxxxxxxx |xxxxxxxxxxxxx |xxxxxxxxxxxxx |xxxxxxxxxxxxx |       0.9828 |       0.9828 |       0.9828 |xxxxxxxxxxxxx |xxxxxxxxxxxxx |xxxxxxxxxxxxx |xxxxxxxxxxxxx |       0.9828 |       0.9828 |       0.9828 |xxxxxxxxxxxxx |xxxxxxxxxxxxx |xxxxxxxxxxxxx |xxxxxxxxxxxxx |       0.9828 |       0.9828 |       0.9828 |xxxxxxxxxxxxx |xxxxxxxxxxxxx |xxxxxxxxxxxxx |xxxxxxxxxxxxx |       0.9828 |       0.9828 |       0.9828 |xxxxxxxxxxxxx |xxxxxxxxxxxxx |xxxxxxxxxxxxx |xxxxxxxxxxxxx |       0.9828 |       0.9828 |       0.9828 |xxxxxxxxxxxxx |xxxxxxxxxxxxx |xxxxxxxxxxxxx |xxxxxxxxxxxxx |       0.9828 |       0.9828 |       0.9828 |
bpred_bimod.bpred_jr_non_ras_rate.PP       <error: |      <error: |      <error: |xxxxxxxxxxxxx |xxxxxxxxxxxxx |xxxxxxxxxxxxx |xxxxxxxxxxxxx |      <error: |      <error: |      <error: |xxxxxxxxxxxxx |xxxxxxxxxxxxx |xxxxxxxxxxxxx |xxxxxxxxxxxxx |      <error: |      <error: |      <error: |xxxxxxxxxxxxx |xxxxxxxxxxxxx |xxxxxxxxxxxxx |xxxxxxxxxxxxx |      <error: |      <error: |      <error: |xxxxxxxxxxxxx |xxxxxxxxxxxxx |xxxxxxxxxxxxx |xxxxxxxxxxxxx |      <error: |      <error: |      <error: |xxxxxxxxxxxxx |xxxxxxxxxxxxx |xxxxxxxxxxxxx |xxxxxxxxxxxxx |      <error: |      <error: |      <error: |xxxxxxxxxxxxx |xxxxxxxxxxxxx |xxxxxxxxxxxxx |xxxxxxxxxxxxx |      <error: |      <error: |      <error: |xxxxxxxxxxxxx |xxxxxxxxxxxxx |xxxxxxxxxxxxx |xxxxxxxxxxxxx |      <error: |      <error: |      <error: |xxxxxxxxxxxxx |xxxxxxxxxxxxx |xxxxxxxxxxxxx |xxxxxxxxxxxxx |      <error: |      <error: |      <error: |xxxxxxxxxxxxx |xxxxxxxxxxxxx |xxxxxxxxxxxxx |xxxxxxxxxxxxx |      <error: |      <error: |      <error: |xxxxxxxxxxxxx |xxxxxxxxxxxxx |xxxxxxxxxxxxx |xxxxxxxxxxxxx |      <error: |      <error: |      <error: |
bpred_bimod.retstack_pushes                     60 |           60 |           60 |xxxxxxxxxxxxx |xxxxxxxxxxxxx |xxxxxxxxxxxxx |xxxxxxxxxxxxx |           60 |           60 |           60 |xxxxxxxxxxxxx |xxxxxxxxxxxxx |xxxxxxxxxxxxx |xxxxxxxxxxxxx |           60 |           60 |           60 |xxxxxxxxxxxxx |xxxxxxxxxxxxx |xxxxxxxxxxxxx |xxxxxxxxxxxxx |           60 |           60 |           60 |xxxxxxxxxxxxx |xxxxxxxxxxxxx |xxxxxxxxxxxxx |xxxxxxxxxxxxx |           60 |           60 |           60 |xxxxxxxxxxxxx |xxxxxxxxxxxxx |xxxxxxxxxxxxx |xxxxxxxxxxxxx |           60 |           60 |           60 |xxxxxxxxxxxxx |xxxxxxxxxxxxx |xxxxxxxxxxxxx |xxxxxxxxxxxxx |           60 |           60 |           60 |xxxxxxxxxxxxx |xxxxxxxxxxxxx |xxxxxxxxxxxxx |xxxxxxxxxxxxx |           60 |           60 |           60 |xxxxxxxxxxxxx |xxxxxxxxxxxxx |xxxxxxxxxxxxx |xxxxxxxxxxxxx |           60 |           60 |           60 |xxxxxxxxxxxxx |xxxxxxxxxxxxx |xxxxxxxxxxxxx |xxxxxxxxxxxxx |           60 |           60 |           60 |xxxxxxxxxxxxx |xxxxxxxxxxxxx |xxxxxxxxxxxxx |xxxxxxxxxxxxx |           60 |           60 |           60 |
bpred_bimod.retstack_pops                       58 |           58 |           58 |xxxxxxxxxxxxx |xxxxxxxxxxxxx |xxxxxxxxxxxxx |xxxxxxxxxxxxx |           58 |           58 |           58 |xxxxxxxxxxxxx |xxxxxxxxxxxxx |xxxxxxxxxxxxx |xxxxxxxxxxxxx |           58 |           58 |           58 |xxxxxxxxxxxxx |xxxxxxxxxxxxx |xxxxxxxxxxxxx |xxxxxxxxxxxxx |           58 |           58 |           58 |xxxxxxxxxxxxx |xxxxxxxxxxxxx |xxxxxxxxxxxxx |xxxxxxxxxxxxx |           58 |           58 |           58 |xxxxxxxxxxxxx |xxxxxxxxxxxxx |xxxxxxxxxxxxx |xxxxxxxxxxxxx |           58 |           58 |           58 |xxxxxxxxxxxxx |xxxxxxxxxxxxx |xxxxxxxxxxxxx |xxxxxxxxxxxxx |           58 |           58 |           58 |xxxxxxxxxxxxx |xxxxxxxxxxxxx |xxxxxxxxxxxxx |xxxxxxxxxxxxx |           58 |           58 |           58 |xxxxxxxxxxxxx |xxxxxxxxxxxxx |xxxxxxxxxxxxx |xxxxxxxxxxxxx |           58 |           58 |           58 |xxxxxxxxxxxxx |xxxxxxxxxxxxx |xxxxxxxxxxxxx |xxxxxxxxxxxxx |           58 |           58 |           58 |xxxxxxxxxxxxx |xxxxxxxxxxxxx |xxxxxxxxxxxxx |xxxxxxxxxxxxx |           58 |           58 |           58 |
bpred_bimod.used_ras.PP                         58 |           58 |           58 |xxxxxxxxxxxxx |xxxxxxxxxxxxx |xxxxxxxxxxxxx |xxxxxxxxxxxxx |           58 |           58 |           58 |xxxxxxxxxxxxx |xxxxxxxxxxxxx |xxxxxxxxxxxxx |xxxxxxxxxxxxx |           58 |           58 |           58 |xxxxxxxxxxxxx |xxxxxxxxxxxxx |xxxxxxxxxxxxx |xxxxxxxxxxxxx |           58 |           58 |           58 |xxxxxxxxxxxxx |xxxxxxxxxxxxx |xxxxxxxxxxxxx |xxxxxxxxxxxxx |           58 |           58 |           58 |xxxxxxxxxxxxx |xxxxxxxxxxxxx |xxxxxxxxxxxxx |xxxxxxxxxxxxx |           58 |           58 |           58 |xxxxxxxxxxxxx |xxxxxxxxxxxxx |xxxxxxxxxxxxx |xxxxxxxxxxxxx |           58 |           58 |           58 |xxxxxxxxxxxxx |xxxxxxxxxxxxx |xxxxxxxxxxxxx |xxxxxxxxxxxxx |           58 |           58 |           58 |xxxxxxxxxxxxx |xxxxxxxxxxxxx |xxxxxxxxxxxxx |xxxxxxxxxxxxx |           58 |           58 |           58 |xxxxxxxxxxxxx |xxxxxxxxxxxxx |xxxxxxxxxxxxx |xxxxxxxxxxxxx |           58 |           58 |           58 |xxxxxxxxxxxxx |xxxxxxxxxxxxx |xxxxxxxxxxxxx |xxxxxxxxxxxxx |           58 |           58 |           58 |
bpred_bimod.ras_hits.PP                         57 |           57 |           57 |xxxxxxxxxxxxx |xxxxxxxxxxxxx |xxxxxxxxxxxxx |xxxxxxxxxxxxx |           57 |           57 |           57 |xxxxxxxxxxxxx |xxxxxxxxxxxxx |xxxxxxxxxxxxx |xxxxxxxxxxxxx |           57 |           57 |           57 |xxxxxxxxxxxxx |xxxxxxxxxxxxx |xxxxxxxxxxxxx |xxxxxxxxxxxxx |           57 |           57 |           57 |xxxxxxxxxxxxx |xxxxxxxxxxxxx |xxxxxxxxxxxxx |xxxxxxxxxxxxx |           57 |           57 |           57 |xxxxxxxxxxxxx |xxxxxxxxxxxxx |xxxxxxxxxxxxx |xxxxxxxxxxxxx |           57 |           57 |           57 |xxxxxxxxxxxxx |xxxxxxxxxxxxx |xxxxxxxxxxxxx |xxxxxxxxxxxxx |           57 |           57 |           57 |xxxxxxxxxxxxx |xxxxxxxxxxxxx |xxxxxxxxxxxxx |xxxxxxxxxxxxx |           57 |           57 |           57 |xxxxxxxxxxxxx |xxxxxxxxxxxxx |xxxxxxxxxxxxx |xxxxxxxxxxxxx |           57 |           57 |           57 |xxxxxxxxxxxxx |xxxxxxxxxxxxx |xxxxxxxxxxxxx |xxxxxxxxxxxxx |           57 |           57 |           57 |xxxxxxxxxxxxx |xxxxxxxxxxxxx |xxxxxxxxxxxxx |xxxxxxxxxxxxx |           57 |           57 |           57 |
bpred_bimod.ras_rate.PP                     0.9828 |       0.9828 |       0.9828 |xxxxxxxxxxxxx |xxxxxxxxxxxxx |xxxxxxxxxxxxx |xxxxxxxxxxxxx |       0.9828 |       0.9828 |       0.9828 |xxxxxxxxxxxxx |xxxxxxxxxxxxx |xxxxxxxxxxxxx |xxxxxxxxxxxxx |       0.9828 |       0.9828 |       0.9828 |xxxxxxxxxxxxx |xxxxxxxxxxxxx |xxxxxxxxxxxxx |xxxxxxxxxxxxx |       0.9828 |       0.9828 |       0.9828 |xxxxxxxxxxxxx |xxxxxxxxxxxxx |xxxxxxxxxxxxx |xxxxxxxxxxxxx |       0.9828 |       0.9828 |       0.9828 |xxxxxxxxxxxxx |xxxxxxxxxxxxx |xxxxxxxxxxxxx |xxxxxxxxxxxxx |       0.9828 |       0.9828 |       0.9828 |xxxxxxxxxxxxx |xxxxxxxxxxxxx |xxxxxxxxxxxxx |xxxxxxxxxxxxx |       0.9828 |       0.9828 |       0.9828 |xxxxxxxxxxxxx |xxxxxxxxxxxxx |xxxxxxxxxxxxx |xxxxxxxxxxxxx |       0.9828 |       0.9828 |       0.9828 |xxxxxxxxxxxxx |xxxxxxxxxxxxx |xxxxxxxxxxxxx |xxxxxxxxxxxxx |       0.9828 |       0.9828 |       0.9828 |xxxxxxxxxxxxx |xxxxxxxxxxxxx |xxxxxxxxxxxxx |xxxxxxxxxxxxx |       0.9828 |       0.9828 |       0.9828 |xxxxxxxxxxxxx |xxxxxxxxxxxxx |xxxxxxxxxxxxx |xxxxxxxxxxxxx |       0.9828 |       0.9828 |       0.9828 |
bpred_2lev.lookups                   xxxxxxxxxxxxx |xxxxxxxxxxxxx |xxxxxxxxxxxxx |       145677 |       145677 |       145677 |       145677 |xxxxxxxxxxxxx |xxxxxxxxxxxxx |xxxxxxxxxxxxx |       325230 |       325230 |       325230 |       325230 |xxxxxxxxxxxxx |xxxxxxxxxxxxx |xxxxxxxxxxxxx |       757190 |       757190 |       757190 |       757190 |xxxxxxxxxxxxx |xxxxxxxxxxxxx |xxxxxxxxxxxxx |      1627464 |      1627464 |      1627464 |      1627464 |xxxxxxxxxxxxx |xxxxxxxxxxxxx |xxxxxxxxxxxxx |      3437111 |      3437111 |      3437111 |      3437111 |xxxxxxxxxxxxx |xxxxxxxxxxxxx |xxxxxxxxxxxxx |      7703175 |      7703175 |      7703175 |      7703175 |xxxxxxxxxxxxx |xxxxxxxxxxxxx |xxxxxxxxxxxxx |     15935135 |     15935135 |     15935135 |     15935135 |xxxxxxxxxxxxx |xxxxxxxxxxxxx |xxxxxxxxxxxxx |     34269328 |     34269328 |     34269328 |     34269328 |xxxxxxxxxxxxx |xxxxxxxxxxxxx |xxxxxxxxxxxxx |     72995694 |     72995694 |     72995694 |     72995694 |xxxxxxxxxxxxx |xxxxxxxxxxxxx |xxxxxxxxxxxxx |    156412168 |    156412168 |    156412168 |    156412168 |xxxxxxxxxxxxx |xxxxxxxxxxxxx |xxxxxxxxxxxxx |    328407318 |    328407318 |    328407318 |    328407318 |
[...]
bpred_2lev.retstack_pushes           xxxxxxxxxxxxx |xxxxxxxxxxxxx |xxxxxxxxxxxxx |           60 |           60 |           60 |           60 |xxxxxxxxxxxxx |xxxxxxxxxxxxx |xxxxxxxxxxxxx |           60 |           60 |           60 |           60 |xxxxxxxxxxxxx |xxxxxxxxxxxxx |xxxxxxxxxxxxx |           60 |           60 |           60 |           60 |xxxxxxxxxxxxx |xxxxxxxxxxxxx |xxxxxxxxxxxxx |           60 |           60 |           60 |           60 |xxxxxxxxxxxxx |xxxxxxxxxxxxx |xxxxxxxxxxxxx |           60 |           60 |           60 |           60 |xxxxxxxxxxxxx |xxxxxxxxxxxxx |xxxxxxxxxxxxx |           60 |           60 |           60 |           60 |xxxxxxxxxxxxx |xxxxxxxxxxxxx |xxxxxxxxxxxxx |           60 |           60 |           60 |           60 |xxxxxxxxxxxxx |xxxxxxxxxxxxx |xxxxxxxxxxxxx |           60 |           60 |           60 |           60 |xxxxxxxxxxxxx |xxxxxxxxxxxxx |xxxxxxxxxxxxx |           60 |           60 |           60 |           60 |xxxxxxxxxxxxx |xxxxxxxxxxxxx |xxxxxxxxxxxxx |           60 |           60 |           60 |           60 |xxxxxxxxxxxxx |xxxxxxxxxxxxx |xxxxxxxxxxxxx |           60 |           60 |           60 |           60 |
bpred_2lev.retstack_pops             xxxxxxxxxxxxx |xxxxxxxxxxxxx |xxxxxxxxxxxxx |           58 |           58 |           58 |           58 |xxxxxxxxxxxxx |xxxxxxxxxxxxx |xxxxxxxxxxxxx |           58 |           58 |           58 |           58 |xxxxxxxxxxxxx |xxxxxxxxxxxxx |xxxxxxxxxxxxx |           58 |           58 |           58 |           58 |xxxxxxxxxxxxx |xxxxxxxxxxxxx |xxxxxxxxxxxxx |           58 |           58 |           58 |           58 |xxxxxxxxxxxxx |xxxxxxxxxxxxx |xxxxxxxxxxxxx |           58 |           58 |           58 |           58 |xxxxxxxxxxxxx |xxxxxxxxxxxxx |xxxxxxxxxxxxx |           58 |           58 |           58 |           58 |xxxxxxxxxxxxx |xxxxxxxxxxxxx |xxxxxxxxxxxxx |           58 |           58 |           58 |           58 |xxxxxxxxxxxxx |xxxxxxxxxxxxx |xxxxxxxxxxxxx |           58 |           58 |           58 |           58 |xxxxxxxxxxxxx |xxxxxxxxxxxxx |xxxxxxxxxxxxx |           58 |           58 |           58 |           58 |xxxxxxxxxxxxx |xxxxxxxxxxxxx |xxxxxxxxxxxxx |           58 |           58 |           58 |           58 |xxxxxxxxxxxxx |xxxxxxxxxxxxx |xxxxxxxxxxxxx |           58 |           58 |           58 |           58 |
bpred_2lev.used_ras.PP               xxxxxxxxxxxxx |xxxxxxxxxxxxx |xxxxxxxxxxxxx |           58 |           58 |           58 |           58 |xxxxxxxxxxxxx |xxxxxxxxxxxxx |xxxxxxxxxxxxx |           58 |           58 |           58 |           58 |xxxxxxxxxxxxx |xxxxxxxxxxxxx |xxxxxxxxxxxxx |           58 |           58 |           58 |           58 |xxxxxxxxxxxxx |xxxxxxxxxxxxx |xxxxxxxxxxxxx |           58 |           58 |           58 |           58 |xxxxxxxxxxxxx |xxxxxxxxxxxxx |xxxxxxxxxxxxx |           58 |           58 |           58 |           58 |xxxxxxxxxxxxx |xxxxxxxxxxxxx |xxxxxxxxxxxxx |           58 |           58 |           58 |           58 |xxxxxxxxxxxxx |xxxxxxxxxxxxx |xxxxxxxxxxxxx |           58 |           58 |           58 |           58 |xxxxxxxxxxxxx |xxxxxxxxxxxxx |xxxxxxxxxxxxx |           58 |           58 |           58 |           58 |xxxxxxxxxxxxx |xxxxxxxxxxxxx |xxxxxxxxxxxxx |           58 |           58 |           58 |           58 |xxxxxxxxxxxxx |xxxxxxxxxxxxx |xxxxxxxxxxxxx |           58 |           58 |           58 |           58 |xxxxxxxxxxxxx |xxxxxxxxxxxxx |xxxxxxxxxxxxx |           58 |           58 |           58 |           58 |
bpred_2lev.ras_hits.PP               xxxxxxxxxxxxx |xxxxxxxxxxxxx |xxxxxxxxxxxxx |           57 |           57 |           57 |           57 |xxxxxxxxxxxxx |xxxxxxxxxxxxx |xxxxxxxxxxxxx |           57 |           57 |           57 |           57 |xxxxxxxxxxxxx |xxxxxxxxxxxxx |xxxxxxxxxxxxx |           57 |           57 |           57 |           57 |xxxxxxxxxxxxx |xxxxxxxxxxxxx |xxxxxxxxxxxxx |           57 |           57 |           57 |           57 |xxxxxxxxxxxxx |xxxxxxxxxxxxx |xxxxxxxxxxxxx |           57 |           57 |           57 |           57 |xxxxxxxxxxxxx |xxxxxxxxxxxxx |xxxxxxxxxxxxx |           57 |           57 |           57 |           57 |xxxxxxxxxxxxx |xxxxxxxxxxxxx |xxxxxxxxxxxxx |           57 |           57 |           57 |           57 |xxxxxxxxxxxxx |xxxxxxxxxxxxx |xxxxxxxxxxxxx |           57 |           57 |           57 |           57 |xxxxxxxxxxxxx |xxxxxxxxxxxxx |xxxxxxxxxxxxx |           57 |           57 |           57 |           57 |xxxxxxxxxxxxx |xxxxxxxxxxxxx |xxxxxxxxxxxxx |           57 |           57 |           57 |           57 |xxxxxxxxxxxxx |xxxxxxxxxxxxx |xxxxxxxxxxxxx |           57 |           57 |           57 |           57 |
bpred_2lev.ras_rate.PP               xxxxxxxxxxxxx |xxxxxxxxxxxxx |xxxxxxxxxxxxx |       0.9828 |       0.9828 |       0.9828 |       0.9828 |xxxxxxxxxxxxx |xxxxxxxxxxxxx |xxxxxxxxxxxxx |       0.9828 |       0.9828 |       0.9828 |       0.9828 |xxxxxxxxxxxxx |xxxxxxxxxxxxx |xxxxxxxxxxxxx |       0.9828 |       0.9828 |       0.9828 |       0.9828 |xxxxxxxxxxxxx |xxxxxxxxxxxxx |xxxxxxxxxxxxx |       0.9828 |       0.9828 |       0.9828 |       0.9828 |xxxxxxxxxxxxx |xxxxxxxxxxxxx |xxxxxxxxxxxxx |       0.9828 |       0.9828 |       0.9828 |       0.9828 |xxxxxxxxxxxxx |xxxxxxxxxxxxx |xxxxxxxxxxxxx |       0.9828 |       0.9828 |       0.9828 |       0.9828 |xxxxxxxxxxxxx |xxxxxxxxxxxxx |xxxxxxxxxxxxx |       0.9828 |       0.9828 |       0.9828 |       0.9828 |xxxxxxxxxxxxx |xxxxxxxxxxxxx |xxxxxxxxxxxxx |       0.9828 |       0.9828 |       0.9828 |       0.9828 |xxxxxxxxxxxxx |xxxxxxxxxxxxx |xxxxxxxxxxxxx |       0.9828 |       0.9828 |       0.9828 |       0.9828 |xxxxxxxxxxxxx |xxxxxxxxxxxxx |xxxxxxxxxxxxx |       0.9828 |       0.9828 |       0.9828 |       0.9828 |xxxxxxxxxxxxx |xxxxxxxxxxxxx |xxxxxxxxxxxxx |       0.9828 |       0.9828 |       0.9828 |       0.9828 |

Command list: 
	sslittle-na-sstrix-gcc -Wall -O3 -funroll-loops -finline-functions  -DRANDOM_SIZE=4096 -DOFFSET=7 -DSORT=improved_shellsort sorts/improved_shellsort1883581923.c simpleMain.c -o improved_shellsort2033211592
	sim-cache -cache:dl1 dl1:256:32:1:l -cache:dl2 dl2:131072:32:1:l -cache:il1 il1:256:32:1:l -cache:il2 dl2 improved_shellsort2033211592
	sim-cache -cache:dl1 dl1:256:32:1:l -cache:dl2 dl2:65536:32:1:l -cache:il1 il1:256:32:1:l -cache:il2 dl2 improved_shellsort2033211592
	sim-cache -cache:dl1 dl1:1:32:256:l -cache:dl2 dl2:1:32:131072:l -cache:il1 il1:1:32:256:l -cache:il2 dl2 improved_shellsort2033211592
	sim-cache -cache:dl1 dl1:1:32:256:l -cache:dl2 dl2:1:32:65536:l -cache:il1 il1:1:32:256:l -cache:il2 dl2 improved_shellsort2033211592
	sim-bpred -bpred bimod -bpred:bimod 512 improved_shellsort2033211592
	sim-bpred -bpred bimod -bpred:bimod 1024 improved_shellsort2033211592
	sim-bpred -bpred bimod -bpred:bimod 2048 improved_shellsort2033211592
	sim-bpred -bpred 2lev -bpred:2lev 1 512 10 1 improved_shellsort2033211592
	sim-bpred -bpred 2lev -bpred:2lev 1 1024 10 1 improved_shellsort2033211592
	sim-bpred -bpred 2lev -bpred:2lev 1 2048 10 1 improved_shellsort2033211592
	sim-bpred -bpred 2lev -bpred:2lev 1 4096 10 1 improved_shellsort2033211592
	sslittle-na-sstrix-gcc -Wall -O3 -funroll-loops -finline-functions  -DRANDOM_SIZE=8192 -DOFFSET=7 -DSORT=improved_shellsort sorts/improved_shellsort1883581923.c simpleMain.c -o improved_shellsort2033211592
	sim-cache -cache:dl1 dl1:256:32:1:l -cache:dl2 dl2:131072:32:1:l -cache:il1 il1:256:32:1:l -cache:il2 dl2 improved_shellsort2033211592
	sim-cache -cache:dl1 dl1:256:32:1:l -cache:dl2 dl2:65536:32:1:l -cache:il1 il1:256:32:1:l -cache:il2 dl2 improved_shellsort2033211592
	sim-cache -cache:dl1 dl1:1:32:256:l -cache:dl2 dl2:1:32:131072:l -cache:il1 il1:1:32:256:l -cache:il2 dl2 improved_shellsort2033211592
	sim-cache -cache:dl1 dl1:1:32:256:l -cache:dl2 dl2:1:32:65536:l -cache:il1 il1:1:32:256:l -cache:il2 dl2 improved_shellsort2033211592
	sim-bpred -bpred bimod -bpred:bimod 512 improved_shellsort2033211592
	sim-bpred -bpred bimod -bpred:bimod 1024 improved_shellsort2033211592
	sim-bpred -bpred bimod -bpred:bimod 2048 improved_shellsort2033211592
	sim-bpred -bpred 2lev -bpred:2lev 1 512 10 1 improved_shellsort2033211592
	sim-bpred -bpred 2lev -bpred:2lev 1 1024 10 1 improved_shellsort2033211592
	sim-bpred -bpred 2lev -bpred:2lev 1 2048 10 1 improved_shellsort2033211592
	sim-bpred -bpred 2lev -bpred:2lev 1 4096 10 1 improved_shellsort2033211592
	sslittle-na-sstrix-gcc -Wall -O3 -funroll-loops -finline-functions  -DRANDOM_SIZE=16384 -DOFFSET=7 -DSORT=improved_shellsort sorts/improved_shellsort1883581923.c simpleMain.c -o improved_shellsort2033211592
	sim-cache -cache:dl1 dl1:256:32:1:l -cache:dl2 dl2:131072:32:1:l -cache:il1 il1:256:32:1:l -cache:il2 dl2 improved_shellsort2033211592
	sim-cache -cache:dl1 dl1:256:32:1:l -cache:dl2 dl2:65536:32:1:l -cache:il1 il1:256:32:1:l -cache:il2 dl2 improved_shellsort2033211592
	sim-cache -cache:dl1 dl1:1:32:256:l -cache:dl2 dl2:1:32:131072:l -cache:il1 il1:1:32:256:l -cache:il2 dl2 improved_shellsort2033211592
	sim-cache -cache:dl1 dl1:1:32:256:l -cache:dl2 dl2:1:32:65536:l -cache:il1 il1:1:32:256:l -cache:il2 dl2 improved_shellsort2033211592
	sim-bpred -bpred bimod -bpred:bimod 512 improved_shellsort2033211592
	sim-bpred -bpred bimod -bpred:bimod 1024 improved_shellsort2033211592
	sim-bpred -bpred bimod -bpred:bimod 2048 improved_shellsort2033211592
	sim-bpred -bpred 2lev -bpred:2lev 1 512 10 1 improved_shellsort2033211592
	sim-bpred -bpred 2lev -bpred:2lev 1 1024 10 1 improved_shellsort2033211592
	sim-bpred -bpred 2lev -bpred:2lev 1 2048 10 1 improved_shellsort2033211592
	sim-bpred -bpred 2lev -bpred:2lev 1 4096 10 1 improved_shellsort2033211592
	sslittle-na-sstrix-gcc -Wall -O3 -funroll-loops -finline-functions  -DRANDOM_SIZE=32768 -DOFFSET=7 -DSORT=improved_shellsort sorts/improved_shellsort1883581923.c simpleMain.c -o improved_shellsort2033211592
	sim-cache -cache:dl1 dl1:256:32:1:l -cache:dl2 dl2:131072:32:1:l -cache:il1 il1:256:32:1:l -cache:il2 dl2 improved_shellsort2033211592
	sim-cache -cache:dl1 dl1:256:32:1:l -cache:dl2 dl2:65536:32:1:l -cache:il1 il1:256:32:1:l -cache:il2 dl2 improved_shellsort2033211592
	sim-cache -cache:dl1 dl1:1:32:256:l -cache:dl2 dl2:1:32:131072:l -cache:il1 il1:1:32:256:l -cache:il2 dl2 improved_shellsort2033211592
	sim-cache -cache:dl1 dl1:1:32:256:l -cache:dl2 dl2:1:32:65536:l -cache:il1 il1:1:32:256:l -cache:il2 dl2 improved_shellsort2033211592
	sim-bpred -bpred bimod -bpred:bimod 512 improved_shellsort2033211592
	sim-bpred -bpred bimod -bpred:bimod 1024 improved_shellsort2033211592
	sim-bpred -bpred bimod -bpred:bimod 2048 improved_shellsort2033211592
	sim-bpred -bpred 2lev -bpred:2lev 1 512 10 1 improved_shellsort2033211592
	sim-bpred -bpred 2lev -bpred:2lev 1 1024 10 1 improved_shellsort2033211592
	sim-bpred -bpred 2lev -bpred:2lev 1 2048 10 1 improved_shellsort2033211592
	sim-bpred -bpred 2lev -bpred:2lev 1 4096 10 1 improved_shellsort2033211592
	sslittle-na-sstrix-gcc -Wall -O3 -funroll-loops -finline-functions  -DRANDOM_SIZE=65536 -DOFFSET=7 -DSORT=improved_shellsort sorts/improved_shellsort1883581923.c simpleMain.c -o improved_shellsort2033211592
	sim-cache -cache:dl1 dl1:256:32:1:l -cache:dl2 dl2:131072:32:1:l -cache:il1 il1:256:32:1:l -cache:il2 dl2 improved_shellsort2033211592
	sim-cache -cache:dl1 dl1:256:32:1:l -cache:dl2 dl2:65536:32:1:l -cache:il1 il1:256:32:1:l -cache:il2 dl2 improved_shellsort2033211592
	sim-cache -cache:dl1 dl1:1:32:256:l -cache:dl2 dl2:1:32:131072:l -cache:il1 il1:1:32:256:l -cache:il2 dl2 improved_shellsort2033211592
	sim-cache -cache:dl1 dl1:1:32:256:l -cache:dl2 dl2:1:32:65536:l -cache:il1 il1:1:32:256:l -cache:il2 dl2 improved_shellsort2033211592
	sim-bpred -bpred bimod -bpred:bimod 512 improved_shellsort2033211592
	sim-bpred -bpred bimod -bpred:bimod 1024 improved_shellsort2033211592
	sim-bpred -bpred bimod -bpred:bimod 2048 improved_shellsort2033211592
	sim-bpred -bpred 2lev -bpred:2lev 1 512 10 1 improved_shellsort2033211592
	sim-bpred -bpred 2lev -bpred:2lev 1 1024 10 1 improved_shellsort2033211592
	sim-bpred -bpred 2lev -bpred:2lev 1 2048 10 1 improved_shellsort2033211592
	sim-bpred -bpred 2lev -bpred:2lev 1 4096 10 1 improved_shellsort2033211592
	sslittle-na-sstrix-gcc -Wall -O3 -funroll-loops -finline-functions  -DRANDOM_SIZE=131072 -DOFFSET=7 -DSORT=improved_shellsort sorts/improved_shellsort1883581923.c simpleMain.c -o improved_shellsort2033211592
	sim-cache -cache:dl1 dl1:256:32:1:l -cache:dl2 dl2:131072:32:1:l -cache:il1 il1:256:32:1:l -cache:il2 dl2 improved_shellsort2033211592
	sim-cache -cache:dl1 dl1:256:32:1:l -cache:dl2 dl2:65536:32:1:l -cache:il1 il1:256:32:1:l -cache:il2 dl2 improved_shellsort2033211592
	sim-cache -cache:dl1 dl1:1:32:256:l -cache:dl2 dl2:1:32:131072:l -cache:il1 il1:1:32:256:l -cache:il2 dl2 improved_shellsort2033211592
	sim-cache -cache:dl1 dl1:1:32:256:l -cache:dl2 dl2:1:32:65536:l -cache:il1 il1:1:32:256:l -cache:il2 dl2 improved_shellsort2033211592
	sim-bpred -bpred bimod -bpred:bimod 512 improved_shellsort2033211592
	sim-bpred -bpred bimod -bpred:bimod 1024 improved_shellsort2033211592
	sim-bpred -bpred bimod -bpred:bimod 2048 improved_shellsort2033211592
	sim-bpred -bpred 2lev -bpred:2lev 1 512 10 1 improved_shellsort2033211592
	sim-bpred -bpred 2lev -bpred:2lev 1 1024 10 1 improved_shellsort2033211592
	sim-bpred -bpred 2lev -bpred:2lev 1 2048 10 1 improved_shellsort2033211592
	sim-bpred -bpred 2lev -bpred:2lev 1 4096 10 1 improved_shellsort2033211592
	sslittle-na-sstrix-gcc -Wall -O3 -funroll-loops -finline-functions  -DRANDOM_SIZE=262144 -DOFFSET=7 -DSORT=improved_shellsort sorts/improved_shellsort1883581923.c simpleMain.c -o improved_shellsort2033211592
	sim-cache -cache:dl1 dl1:256:32:1:l -cache:dl2 dl2:131072:32:1:l -cache:il1 il1:256:32:1:l -cache:il2 dl2 improved_shellsort2033211592
	sim-cache -cache:dl1 dl1:256:32:1:l -cache:dl2 dl2:65536:32:1:l -cache:il1 il1:256:32:1:l -cache:il2 dl2 improved_shellsort2033211592
	sim-cache -cache:dl1 dl1:1:32:256:l -cache:dl2 dl2:1:32:131072:l -cache:il1 il1:1:32:256:l -cache:il2 dl2 improved_shellsort2033211592
	sim-cache -cache:dl1 dl1:1:32:256:l -cache:dl2 dl2:1:32:65536:l -cache:il1 il1:1:32:256:l -cache:il2 dl2 improved_shellsort2033211592
	sim-bpred -bpred bimod -bpred:bimod 512 improved_shellsort2033211592
	sim-bpred -bpred bimod -bpred:bimod 1024 improved_shellsort2033211592
	sim-bpred -bpred bimod -bpred:bimod 2048 improved_shellsort2033211592
	sim-bpred -bpred 2lev -bpred:2lev 1 512 10 1 improved_shellsort2033211592
	sim-bpred -bpred 2lev -bpred:2lev 1 1024 10 1 improved_shellsort2033211592
	sim-bpred -bpred 2lev -bpred:2lev 1 2048 10 1 improved_shellsort2033211592
	sim-bpred -bpred 2lev -bpred:2lev 1 4096 10 1 improved_shellsort2033211592
	sslittle-na-sstrix-gcc -Wall -O3 -funroll-loops -finline-functions  -DRANDOM_SIZE=524288 -DOFFSET=7 -DSORT=improved_shellsort sorts/improved_shellsort1883581923.c simpleMain.c -o improved_shellsort2033211592
	sim-cache -cache:dl1 dl1:256:32:1:l -cache:dl2 dl2:131072:32:1:l -cache:il1 il1:256:32:1:l -cache:il2 dl2 improved_shellsort2033211592
	sim-cache -cache:dl1 dl1:256:32:1:l -cache:dl2 dl2:65536:32:1:l -cache:il1 il1:256:32:1:l -cache:il2 dl2 improved_shellsort2033211592
	sim-cache -cache:dl1 dl1:1:32:256:l -cache:dl2 dl2:1:32:131072:l -cache:il1 il1:1:32:256:l -cache:il2 dl2 improved_shellsort2033211592
	sim-cache -cache:dl1 dl1:1:32:256:l -cache:dl2 dl2:1:32:65536:l -cache:il1 il1:1:32:256:l -cache:il2 dl2 improved_shellsort2033211592
	sim-bpred -bpred bimod -bpred:bimod 512 improved_shellsort2033211592
	sim-bpred -bpred bimod -bpred:bimod 1024 improved_shellsort2033211592
	sim-bpred -bpred bimod -bpred:bimod 2048 improved_shellsort2033211592
	sim-bpred -bpred 2lev -bpred:2lev 1 512 10 1 improved_shellsort2033211592
	sim-bpred -bpred 2lev -bpred:2lev 1 1024 10 1 improved_shellsort2033211592
	sim-bpred -bpred 2lev -bpred:2lev 1 2048 10 1 improved_shellsort2033211592
	sim-bpred -bpred 2lev -bpred:2lev 1 4096 10 1 improved_shellsort2033211592
	sslittle-na-sstrix-gcc -Wall -O3 -funroll-loops -finline-functions  -DRANDOM_SIZE=1048576 -DOFFSET=7 -DSORT=improved_shellsort sorts/improved_shellsort1883581923.c simpleMain.c -o improved_shellsort2033211592
	sim-cache -cache:dl1 dl1:256:32:1:l -cache:dl2 dl2:131072:32:1:l -cache:il1 il1:256:32:1:l -cache:il2 dl2 improved_shellsort2033211592
	sim-cache -cache:dl1 dl1:256:32:1:l -cache:dl2 dl2:65536:32:1:l -cache:il1 il1:256:32:1:l -cache:il2 dl2 improved_shellsort2033211592
	sim-cache -cache:dl1 dl1:1:32:256:l -cache:dl2 dl2:1:32:131072:l -cache:il1 il1:1:32:256:l -cache:il2 dl2 improved_shellsort2033211592
	sim-cache -cache:dl1 dl1:1:32:256:l -cache:dl2 dl2:1:32:65536:l -cache:il1 il1:1:32:256:l -cache:il2 dl2 improved_shellsort2033211592
	sim-bpred -bpred bimod -bpred:bimod 512 improved_shellsort2033211592
	sim-bpred -bpred bimod -bpred:bimod 1024 improved_shellsort2033211592
	sim-bpred -bpred bimod -bpred:bimod 2048 improved_shellsort2033211592
	sim-bpred -bpred 2lev -bpred:2lev 1 512 10 1 improved_shellsort2033211592
	sim-bpred -bpred 2lev -bpred:2lev 1 1024 10 1 improved_shellsort2033211592
	sim-bpred -bpred 2lev -bpred:2lev 1 2048 10 1 improved_shellsort2033211592
	sim-bpred -bpred 2lev -bpred:2lev 1 4096 10 1 improved_shellsort2033211592
	sslittle-na-sstrix-gcc -Wall -O3 -funroll-loops -finline-functions  -DRANDOM_SIZE=2097152 -DOFFSET=7 -DSORT=improved_shellsort sorts/improved_shellsort1883581923.c simpleMain.c -o improved_shellsort2033211592
	sim-cache -cache:dl1 dl1:256:32:1:l -cache:dl2 dl2:131072:32:1:l -cache:il1 il1:256:32:1:l -cache:il2 dl2 improved_shellsort2033211592
	sim-cache -cache:dl1 dl1:256:32:1:l -cache:dl2 dl2:65536:32:1:l -cache:il1 il1:256:32:1:l -cache:il2 dl2 improved_shellsort2033211592
	sim-cache -cache:dl1 dl1:1:32:256:l -cache:dl2 dl2:1:32:131072:l -cache:il1 il1:1:32:256:l -cache:il2 dl2 improved_shellsort2033211592
	sim-cache -cache:dl1 dl1:1:32:256:l -cache:dl2 dl2:1:32:65536:l -cache:il1 il1:1:32:256:l -cache:il2 dl2 improved_shellsort2033211592
	sim-bpred -bpred bimod -bpred:bimod 512 improved_shellsort2033211592
	sim-bpred -bpred bimod -bpred:bimod 1024 improved_shellsort2033211592
	sim-bpred -bpred bimod -bpred:bimod 2048 improved_shellsort2033211592
	sim-bpred -bpred 2lev -bpred:2lev 1 512 10 1 improved_shellsort2033211592
	sim-bpred -bpred 2lev -bpred:2lev 1 1024 10 1 improved_shellsort2033211592
	sim-bpred -bpred 2lev -bpred:2lev 1 2048 10 1 improved_shellsort2033211592
	sim-bpred -bpred 2lev -bpred:2lev 1 4096 10 1 improved_shellsort2033211592
	sslittle-na-sstrix-gcc -Wall -O3 -funroll-loops -finline-functions  -DRANDOM_SIZE=4194304 -DOFFSET=7 -DSORT=improved_shellsort sorts/improved_shellsort1883581923.c simpleMain.c -o improved_shellsort2033211592
	sim-cache -cache:dl1 dl1:256:32:1:l -cache:dl2 dl2:131072:32:1:l -cache:il1 il1:256:32:1:l -cache:il2 dl2 improved_shellsort2033211592
	sim-cache -cache:dl1 dl1:256:32:1:l -cache:dl2 dl2:65536:32:1:l -cache:il1 il1:256:32:1:l -cache:il2 dl2 improved_shellsort2033211592
	sim-cache -cache:dl1 dl1:1:32:256:l -cache:dl2 dl2:1:32:131072:l -cache:il1 il1:1:32:256:l -cache:il2 dl2 improved_shellsort2033211592
	sim-cache -cache:dl1 dl1:1:32:256:l -cache:dl2 dl2:1:32:65536:l -cache:il1 il1:1:32:256:l -cache:il2 dl2 improved_shellsort2033211592
	sim-bpred -bpred bimod -bpred:bimod 512 improved_shellsort2033211592
	sim-bpred -bpred bimod -bpred:bimod 1024 improved_shellsort2033211592
	sim-bpred -bpred bimod -bpred:bimod 2048 improved_shellsort2033211592
	sim-bpred -bpred 2lev -bpred:2lev 1 512 10 1 improved_shellsort2033211592
	sim-bpred -bpred 2lev -bpred:2lev 1 1024 10 1 improved_shellsort2033211592
	sim-bpred -bpred 2lev -bpred:2lev 1 2048 10 1 improved_shellsort2033211592
	sim-bpred -bpred 2lev -bpred:2lev 1 4096 10 1 improved_shellsort2033211592
